MODEL 1
REMARK VINA RESULT:      -6.9      0.000      0.000
REMARK  4 active torsions:
REMARK  status: ('A' for Active; 'I' for Inactive)
REMARK    1  A    between atoms: C2_2  and  C3_3 
REMARK    2  A    between atoms: C3_3  and  C4_4 
REMARK    3  A    between atoms: C13_19  and  C14_20 
REMARK    4  A    between atoms: C14_20  and  N5_21 
ROOT
HETATM    1  C4  UNL     1      24.160   2.920  51.462  1.00  0.00     0.073 C 
HETATM    2  C5  UNL     1      24.039   4.423  51.762  1.00  0.00     0.057 C 
HETATM    3  C6  UNL     1      22.955   4.664  52.790  1.00  0.00     0.125 C 
HETATM    4  N1  UNL     1      21.667   4.195  52.315  1.00  0.00    -0.359 N 
HETATM    5  C7  UNL     1      20.690   4.415  51.304  1.00  0.00     0.243 C 
HETATM    6  O1  UNL     1      21.538   5.291  51.022  1.00  0.00    -0.271 OA
HETATM    7  C8  UNL     1      19.412   3.612  51.163  1.00  0.00     0.306 C 
HETATM    8  O2  UNL     1      19.486   2.680  52.230  1.00  0.00    -0.247 OA
HETATM    9  N2  UNL     1      19.168   1.352  52.125  1.00  0.00    -0.145 NA
HETATM   10  C9  UNL     1      20.127   0.477  51.861  1.00  0.00     0.156 C 
HETATM   11  C10 UNL     1      21.561   0.778  51.656  1.00  0.00    -0.004 C 
HETATM   12  C11 UNL     1      22.164   1.440  50.654  1.00  0.00     0.094 C 
HETATM   13  N3  UNL     1      23.054   2.577  50.592  1.00  0.00    -0.384 N 
HETATM   14  C12 UNL     1      22.563   0.331  52.631  1.00  0.00     0.190 C 
HETATM   15  N4  UNL     1      23.406   1.321  53.165  1.00  0.00    -0.289 NA
HETATM   16  C13 UNL     1      24.223   2.169  52.713  1.00  0.00     0.056 C 
HETATM   17  H12 UNL     1      21.306   3.403  52.930  1.00  0.00     0.162 HD
HETATM   18  H17 UNL     1      22.884   3.246  49.812  1.00  0.00     0.160 HD
ENDROOT
BRANCH  16  19
HETATM   19  C14 UNL     1      25.433   2.503  53.497  1.00  0.00     0.230 C 
BRANCH  19  20
HETATM   20  N5  UNL     1      26.162   1.297  53.824  1.00  0.00    -0.193 NA
HETATM   21  N6  UNL     1      27.217   1.340  54.456  1.00  0.00    -0.203 NA
HETATM   22  C15 UNL     1      27.994   0.200  54.817  1.00  0.00     0.203 C 
ENDBRANCH  19  20
ENDBRANCH  16  19
BRANCH   1  23
HETATM   23  C3  UNL     1      25.430   2.817  50.640  1.00  0.00     0.037 C 
BRANCH  23  24
HETATM   24  C2  UNL     1      25.476   3.676  49.432  1.00  0.00    -0.002 C 
HETATM   25  C1  UNL     1      26.911   4.183  49.221  1.00  0.00     0.005 C 
ENDBRANCH  23  24
ENDBRANCH   1  23
TORSDOF 4
ENDMDL
MODEL 2
REMARK VINA RESULT:      -6.7      7.314      9.527
REMARK  4 active torsions:
REMARK  status: ('A' for Active; 'I' for Inactive)
REMARK    1  A    between atoms: C2_2  and  C3_3 
REMARK    2  A    between atoms: C3_3  and  C4_4 
REMARK    3  A    between atoms: C13_19  and  C14_20 
REMARK    4  A    between atoms: C14_20  and  N5_21 
ROOT
HETATM    1  C4  UNL     1      31.281   7.151  47.430  1.00  0.00     0.073 C 
HETATM    2  C5  UNL     1      32.125   8.189  48.189  1.00  0.00     0.057 C 
HETATM    3  C6  UNL     1      31.605   8.352  49.600  1.00  0.00     0.125 C 
HETATM    4  N1  UNL     1      30.227   8.805  49.604  1.00  0.00    -0.359 N 
HETATM    5  C7  UNL     1      29.398   9.896  49.223  1.00  0.00     0.243 C 
HETATM    6  O1  UNL     1      30.528  10.314  48.884  1.00  0.00    -0.271 OA
HETATM    7  C8  UNL     1      27.893   9.930  49.407  1.00  0.00     0.306 C 
HETATM    8  O2  UNL     1      27.605   8.678  50.007  1.00  0.00    -0.247 OA
HETATM    9  N2  UNL     1      26.554   7.873  49.655  1.00  0.00    -0.145 NA
HETATM   10  C9  UNL     1      26.746   6.916  48.758  1.00  0.00     0.156 C 
HETATM   11  C10 UNL     1      28.013   6.603  48.062  1.00  0.00    -0.004 C 
HETATM   12  C11 UNL     1      28.690   7.321  47.148  1.00  0.00     0.094 C 
HETATM   13  N3  UNL     1      30.047   7.809  47.056  1.00  0.00    -0.384 N 
HETATM   14  C12 UNL     1      28.722   5.347  48.332  1.00  0.00     0.190 C 
HETATM   15  N4  UNL     1      30.067   5.456  48.726  1.00  0.00    -0.289 NA
HETATM   16  C13 UNL     1      31.124   5.949  48.246  1.00  0.00     0.056 C 
HETATM   17  H12 UNL     1      29.593   8.070  50.045  1.00  0.00     0.162 HD
HETATM   18  H17 UNL     1      30.159   8.767  46.664  1.00  0.00     0.160 HD
ENDROOT
BRANCH  16  19
HETATM   19  C14 UNL     1      32.420   5.280  48.499  1.00  0.00     0.230 C 
BRANCH  19  20
HETATM   20  N5  UNL     1      32.310   3.864  48.221  1.00  0.00    -0.193 NA
HETATM   21  N6  UNL     1      32.608   3.406  47.119  1.00  0.00    -0.203 NA
HETATM   22  C15 UNL     1      32.529   2.026  46.765  1.00  0.00     0.203 C 
ENDBRANCH  19  20
ENDBRANCH  16  19
BRANCH   1  23
HETATM   23  C3  UNL     1      32.067   6.908  46.156  1.00  0.00     0.037 C 
BRANCH  23  24
HETATM   24  C2  UNL     1      31.790   7.855  45.049  1.00  0.00    -0.002 C 
HETATM   25  C1  UNL     1      32.182   7.207  43.712  1.00  0.00     0.005 C 
ENDBRANCH  23  24
ENDBRANCH   1  23
TORSDOF 4
ENDMDL
MODEL 3
REMARK VINA RESULT:      -6.2      2.157      4.426
REMARK  4 active torsions:
REMARK  status: ('A' for Active; 'I' for Inactive)
REMARK    1  A    between atoms: C2_2  and  C3_3 
REMARK    2  A    between atoms: C3_3  and  C4_4 
REMARK    3  A    between atoms: C13_19  and  C14_20 
REMARK    4  A    between atoms: C14_20  and  N5_21 
ROOT
HETATM    1  C4  UNL     1      21.404   1.379  52.426  1.00  0.00     0.073 C 
HETATM    2  C5  UNL     1      21.045   0.375  51.318  1.00  0.00     0.057 C 
HETATM    3  C6  UNL     1      21.624   0.829  49.996  1.00  0.00     0.125 C 
HETATM    4  N1  UNL     1      21.103   2.127  49.612  1.00  0.00    -0.359 N 
HETATM    5  C7  UNL     1      19.900   2.800  49.261  1.00  0.00     0.243 C 
HETATM    6  O1  UNL     1      19.488   1.632  49.434  1.00  0.00    -0.271 OA
HETATM    7  C8  UNL     1      19.812   4.279  48.938  1.00  0.00     0.306 C 
HETATM    8  O2  UNL     1      21.150   4.729  49.079  1.00  0.00    -0.247 OA
HETATM    9  N2  UNL     1      21.516   5.893  49.701  1.00  0.00    -0.145 NA
HETATM   10  C9  UNL     1      21.842   5.865  50.985  1.00  0.00     0.156 C 
HETATM   11  C10 UNL     1      21.856   4.674  51.864  1.00  0.00    -0.004 C 
HETATM   12  C11 UNL     1      20.833   3.925  52.312  1.00  0.00     0.094 C 
HETATM   13  N3  UNL     1      20.522   2.515  52.262  1.00  0.00    -0.384 N 
HETATM   14  C12 UNL     1      23.123   4.146  52.383  1.00  0.00     0.190 C 
HETATM   15  N4  UNL     1      23.391   2.789  52.129  1.00  0.00    -0.289 NA
HETATM   16  C13 UNL     1      22.831   1.685  52.373  1.00  0.00     0.056 C 
HETATM   17  H12 UNL     1      21.887   2.849  49.573  1.00  0.00     0.162 HD
HETATM   18  H17 UNL     1      19.523   2.277  52.087  1.00  0.00     0.160 HD
ENDROOT
BRANCH  16  19
HETATM   19  C14 UNL     1      23.663   0.493  52.650  1.00  0.00     0.230 C 
BRANCH  19  20
HETATM   20  N5  UNL     1      24.852   0.876  53.379  1.00  0.00    -0.193 NA
HETATM   21  N6  UNL     1      25.473   0.062  54.061  1.00  0.00    -0.203 NA
HETATM   22  C15 UNL     1      26.651   0.358  54.808  1.00  0.00     0.203 C 
ENDBRANCH  19  20
ENDBRANCH  16  19
BRANCH   1  23
HETATM   23  C3  UNL     1      20.994   0.670  53.702  1.00  0.00     0.037 C 
BRANCH  23  24
HETATM   24  C2  UNL     1      20.337  -0.646  53.515  1.00  0.00    -0.002 C 
HETATM   25  C1  UNL     1      21.055  -1.702  54.369  1.00  0.00     0.005 C 
ENDBRANCH  23  24
ENDBRANCH   1  23
TORSDOF 4
ENDMDL
MODEL 4
REMARK VINA RESULT:      -6.1      2.267      2.700
REMARK  4 active torsions:
REMARK  status: ('A' for Active; 'I' for Inactive)
REMARK    1  A    between atoms: C2_2  and  C3_3 
REMARK    2  A    between atoms: C3_3  and  C4_4 
REMARK    3  A    between atoms: C13_19  and  C14_20 
REMARK    4  A    between atoms: C14_20  and  N5_21 
ROOT
HETATM    1  C4  UNL     1      23.880   3.410  50.216  1.00  0.00     0.073 C 
HETATM    2  C5  UNL     1      23.885   4.419  51.376  1.00  0.00     0.057 C 
HETATM    3  C6  UNL     1      22.567   4.370  52.116  1.00  0.00     0.125 C 
HETATM    4  N1  UNL     1      21.459   4.699  51.240  1.00  0.00    -0.359 N 
HETATM    5  C7  UNL     1      20.920   5.753  50.450  1.00  0.00     0.243 C 
HETATM    6  O1  UNL     1      21.932   6.303  50.940  1.00  0.00    -0.271 OA
HETATM    7  C8  UNL     1      19.661   5.636  49.614  1.00  0.00     0.306 C 
HETATM    8  O2  UNL     1      19.237   4.301  49.838  1.00  0.00    -0.247 OA
HETATM    9  N2  UNL     1      18.782   3.456  48.861  1.00  0.00    -0.145 NA
HETATM   10  C9  UNL     1      19.637   2.632  48.271  1.00  0.00     0.156 C 
HETATM   11  C10 UNL     1      21.084   2.513  48.555  1.00  0.00    -0.004 C 
HETATM   12  C11 UNL     1      22.078   3.389  48.324  1.00  0.00     0.094 C 
HETATM   13  N3  UNL     1      23.093   3.999  49.153  1.00  0.00    -0.384 N 
HETATM   14  C12 UNL     1      21.625   1.300  49.177  1.00  0.00     0.190 C 
HETATM   15  N4  UNL     1      22.374   1.476  50.354  1.00  0.00    -0.289 NA
HETATM   16  C13 UNL     1      23.410   2.111  50.692  1.00  0.00     0.056 C 
HETATM   17  H12 UNL     1      20.801   3.866  51.138  1.00  0.00     0.162 HD
HETATM   18  H17 UNL     1      23.293   5.003  48.961  1.00  0.00     0.160 HD
ENDROOT
BRANCH  16  19
HETATM   19  C14 UNL     1      24.322   1.531  51.703  1.00  0.00     0.230 C 
BRANCH  19  20
HETATM   20  N5  UNL     1      23.558   0.958  52.790  1.00  0.00    -0.193 NA
HETATM   21  N6  UNL     1      23.755  -0.195  53.170  1.00  0.00    -0.203 NA
HETATM   22  C15 UNL     1      23.047  -0.832  54.232  1.00  0.00     0.203 C 
ENDBRANCH  19  20
ENDBRANCH  16  19
BRANCH   1  23
HETATM   23  C3  UNL     1      25.322   3.388  49.750  1.00  0.00     0.037 C 
BRANCH  23  24
HETATM   24  C2  UNL     1      25.963   4.717  49.601  1.00  0.00    -0.002 C 
HETATM   25  C1  UNL     1      27.304   4.559  48.869  1.00  0.00     0.005 C 
ENDBRANCH  23  24
ENDBRANCH   1  23
TORSDOF 4
ENDMDL
MODEL 5
REMARK VINA RESULT:      -5.9     22.637     24.836
REMARK  4 active torsions:
REMARK  status: ('A' for Active; 'I' for Inactive)
REMARK    1  A    between atoms: C2_2  and  C3_3 
REMARK    2  A    between atoms: C3_3  and  C4_4 
REMARK    3  A    between atoms: C13_19  and  C14_20 
REMARK    4  A    between atoms: C14_20  and  N5_21 
ROOT
HETATM    1  C4  UNL     1      39.193  -1.917  68.324  1.00  0.00     0.073 C 
HETATM    2  C5  UNL     1      39.070  -0.750  67.332  1.00  0.00     0.057 C 
HETATM    3  C6  UNL     1      40.350  -0.603  66.538  1.00  0.00     0.125 C 
HETATM    4  N1  UNL     1      41.480  -0.336  67.407  1.00  0.00    -0.359 N 
HETATM    5  C7  UNL     1      41.996   0.621  68.325  1.00  0.00     0.243 C 
HETATM    6  O1  UNL     1      40.930   1.172  67.966  1.00  0.00    -0.271 OA
HETATM    7  C8  UNL     1      43.301   0.464  69.080  1.00  0.00     0.306 C 
HETATM    8  O2  UNL     1      43.789  -0.792  68.638  1.00  0.00    -0.247 OA
HETATM    9  N2  UNL     1      44.341  -1.742  69.456  1.00  0.00    -0.145 NA
HETATM   10  C9  UNL     1      43.568  -2.698  69.950  1.00  0.00     0.156 C 
HETATM   11  C10 UNL     1      42.117  -2.867  69.713  1.00  0.00    -0.004 C 
HETATM   12  C11 UNL     1      41.087  -2.102  70.114  1.00  0.00     0.094 C 
HETATM   13  N3  UNL     1      39.998  -1.443  69.431  1.00  0.00    -0.384 N 
HETATM   14  C12 UNL     1      41.617  -4.008  68.937  1.00  0.00     0.190 C 
HETATM   15  N4  UNL     1      40.799  -3.707  67.833  1.00  0.00    -0.289 NA
HETATM   16  C13 UNL     1      39.712  -3.098  67.638  1.00  0.00     0.056 C 
HETATM   17  H12 UNL     1      42.189  -1.131  67.355  1.00  0.00     0.162 HD
HETATM   18  H17 UNL     1      39.750  -0.493  69.781  1.00  0.00     0.160 HD
ENDROOT
BRANCH  16  19
HETATM   19  C14 UNL     1      38.785  -3.580  66.590  1.00  0.00     0.230 C 
BRANCH  19  20
HETATM   20  N5  UNL     1      38.417  -4.956  66.847  1.00  0.00    -0.193 NA
HETATM   21  N6  UNL     1      38.732  -5.856  66.070  1.00  0.00    -0.203 NA
HETATM   22  C15 UNL     1      38.408  -7.233  66.251  1.00  0.00     0.203 C 
ENDBRANCH  19  20
ENDBRANCH  16  19
BRANCH   1  23
HETATM   23  C3  UNL     1      37.780  -2.102  68.842  1.00  0.00     0.037 C 
BRANCH  23  24
HETATM   24  C2  UNL     1      37.642  -3.021  69.998  1.00  0.00    -0.002 C 
HETATM   25  C1  UNL     1      36.893  -2.306  71.132  1.00  0.00     0.005 C 
ENDBRANCH  23  24
ENDBRANCH   1  23
TORSDOF 4
ENDMDL
MODEL 6
REMARK VINA RESULT:      -5.9      2.420      4.261
REMARK  4 active torsions:
REMARK  status: ('A' for Active; 'I' for Inactive)
REMARK    1  A    between atoms: C2_2  and  C3_3 
REMARK    2  A    between atoms: C3_3  and  C4_4 
REMARK    3  A    between atoms: C13_19  and  C14_20 
REMARK    4  A    between atoms: C14_20  and  N5_21 
ROOT
HETATM    1  C4  UNL     1      21.950   3.192  50.819  1.00  0.00     0.073 C 
HETATM    2  C5  UNL     1      20.452   3.441  51.057  1.00  0.00     0.057 C 
HETATM    3  C6  UNL     1      20.115   3.233  52.517  1.00  0.00     0.125 C 
HETATM    4  N1  UNL     1      20.418   1.878  52.938  1.00  0.00    -0.359 N 
HETATM    5  C7  UNL     1      20.060   0.520  52.711  1.00  0.00     0.243 C 
HETATM    6  O1  UNL     1      19.281   1.114  51.933  1.00  0.00    -0.271 OA
HETATM    7  C8  UNL     1      20.705  -0.662  53.409  1.00  0.00     0.306 C 
HETATM    8  O2  UNL     1      21.667  -0.059  54.259  1.00  0.00    -0.247 OA
HETATM    9  N2  UNL     1      22.946  -0.518  54.433  1.00  0.00    -0.145 NA
HETATM   10  C9  UNL     1      23.919  -0.015  53.687  1.00  0.00     0.156 C 
HETATM   11  C10 UNL     1      23.781   1.026  52.645  1.00  0.00    -0.004 C 
HETATM   12  C11 UNL     1      23.167   0.968  51.450  1.00  0.00     0.094 C 
HETATM   13  N3  UNL     1      22.139   1.757  50.809  1.00  0.00    -0.384 N 
HETATM   14  C12 UNL     1      24.367   2.357  52.839  1.00  0.00     0.190 C 
HETATM   15  N4  UNL     1      23.496   3.453  52.708  1.00  0.00    -0.289 NA
HETATM   16  C13 UNL     1      22.737   3.917  51.814  1.00  0.00     0.056 C 
HETATM   17  H12 UNL     1      21.179   1.879  53.685  1.00  0.00     0.162 HD
HETATM   18  H17 UNL     1      21.435   1.223  50.258  1.00  0.00     0.160 HD
ENDROOT
BRANCH  16  19
HETATM   19  C14 UNL     1      22.566   5.382  51.692  1.00  0.00     0.230 C 
BRANCH  19  20
HETATM   20  N5  UNL     1      23.859   6.027  51.606  1.00  0.00    -0.193 NA
HETATM   21  N6  UNL     1      24.191   6.658  50.603  1.00  0.00    -0.203 NA
HETATM   22  C15 UNL     1      25.443   7.321  50.439  1.00  0.00     0.203 C 
ENDBRANCH  19  20
ENDBRANCH  16  19
BRANCH   1  23
HETATM   23  C3  UNL     1      22.178   3.687  49.404  1.00  0.00     0.037 C 
BRANCH  23  24
HETATM   24  C2  UNL     1      23.092   2.857  48.580  1.00  0.00    -0.002 C 
HETATM   25  C1  UNL     1      22.293   2.179  47.457  1.00  0.00     0.005 C 
ENDBRANCH  23  24
ENDBRANCH   1  23
TORSDOF 4
ENDMDL
MODEL 7
REMARK VINA RESULT:      -5.9      2.531      4.618
REMARK  4 active torsions:
REMARK  status: ('A' for Active; 'I' for Inactive)
REMARK    1  A    between atoms: C2_2  and  C3_3 
REMARK    2  A    between atoms: C3_3  and  C4_4 
REMARK    3  A    between atoms: C13_19  and  C14_20 
REMARK    4  A    between atoms: C14_20  and  N5_21 
ROOT
HETATM    1  C4  UNL     1      22.944   2.010  51.317  1.00  0.00     0.073 C 
HETATM    2  C5  UNL     1      22.478   2.957  52.434  1.00  0.00     0.057 C 
HETATM    3  C6  UNL     1      21.199   3.654  52.026  1.00  0.00     0.125 C 
HETATM    4  N1  UNL     1      21.389   4.439  50.821  1.00  0.00    -0.359 N 
HETATM    5  C7  UNL     1      22.105   5.554  50.303  1.00  0.00     0.243 C 
HETATM    6  O1  UNL     1      22.497   5.539  51.491  1.00  0.00    -0.271 OA
HETATM    7  C8  UNL     1      22.007   6.041  48.870  1.00  0.00     0.306 C 
HETATM    8  O2  UNL     1      21.087   5.139  48.277  1.00  0.00    -0.247 OA
HETATM    9  N2  UNL     1      21.240   4.578  47.037  1.00  0.00    -0.145 NA
HETATM   10  C9  UNL     1      21.815   3.388  46.933  1.00  0.00     0.156 C 
HETATM   11  C10 UNL     1      22.333   2.561  48.046  1.00  0.00    -0.004 C 
HETATM   12  C11 UNL     1      23.382   2.776  48.858  1.00  0.00     0.094 C 
HETATM   13  N3  UNL     1      23.548   2.836  50.292  1.00  0.00    -0.384 N 
HETATM   14  C12 UNL     1      21.681   1.295  48.399  1.00  0.00     0.190 C 
HETATM   15  N4  UNL     1      21.273   1.150  49.737  1.00  0.00    -0.289 NA
HETATM   16  C13 UNL     1      21.826   1.182  50.871  1.00  0.00     0.056 C 
HETATM   17  H12 UNL     1      20.785   4.061  50.028  1.00  0.00     0.162 HD
HETATM   18  H17 UNL     1      24.194   3.574  50.644  1.00  0.00     0.160 HD
ENDROOT
BRANCH  16  19
HETATM   19  C14 UNL     1      21.332   0.295  51.947  1.00  0.00     0.230 C 
BRANCH  19  20
HETATM   20  N5  UNL     1      19.891   0.183  51.876  1.00  0.00    -0.193 NA
HETATM   21  N6  UNL     1      19.269  -0.551  52.643  1.00  0.00    -0.203 NA
HETATM   22  C15 UNL     1      17.853  -0.716  52.638  1.00  0.00     0.203 C 
ENDBRANCH  19  20
ENDBRANCH  16  19
BRANCH   1  23
HETATM   23  C3  UNL     1      24.057   1.208  51.963  1.00  0.00     0.037 C 
BRANCH  23  24
HETATM   24  C2  UNL     1      25.420   1.772  51.807  1.00  0.00    -0.002 C 
HETATM   25  C1  UNL     1      26.457   0.646  51.930  1.00  0.00     0.005 C 
ENDBRANCH  23  24
ENDBRANCH   1  23
TORSDOF 4
ENDMDL
MODEL 8
REMARK VINA RESULT:      -5.7      2.986      5.930
REMARK  4 active torsions:
REMARK  status: ('A' for Active; 'I' for Inactive)
REMARK    1  A    between atoms: C2_2  and  C3_3 
REMARK    2  A    between atoms: C3_3  and  C4_4 
REMARK    3  A    between atoms: C13_19  and  C14_20 
REMARK    4  A    between atoms: C14_20  and  N5_21 
ROOT
HETATM    1  C4  UNL     1      21.402   1.794  51.138  1.00  0.00     0.073 C 
HETATM    2  C5  UNL     1      21.938   2.648  52.298  1.00  0.00     0.057 C 
HETATM    3  C6  UNL     1      21.790   4.119  51.974  1.00  0.00     0.125 C 
HETATM    4  N1  UNL     1      22.532   4.470  50.778  1.00  0.00    -0.359 N 
HETATM    5  C7  UNL     1      23.850   4.534  50.246  1.00  0.00     0.243 C 
HETATM    6  O1  UNL     1      24.072   4.134  51.411  1.00  0.00    -0.271 OA
HETATM    7  C8  UNL     1      24.180   4.967  48.831  1.00  0.00     0.306 C 
HETATM    8  O2  UNL     1      22.910   5.255  48.268  1.00  0.00    -0.247 OA
HETATM    9  N2  UNL     1      22.516   4.882  47.010  1.00  0.00    -0.145 NA
HETATM   10  C9  UNL     1      21.853   3.746  46.851  1.00  0.00     0.156 C 
HETATM   11  C10 UNL     1      21.473   2.792  47.916  1.00  0.00    -0.004 C 
HETATM   12  C11 UNL     1      22.250   2.000  48.676  1.00  0.00     0.094 C 
HETATM   13  N3  UNL     1      22.411   1.817  50.100  1.00  0.00    -0.384 N 
HETATM   14  C12 UNL     1      20.064   2.600  48.277  1.00  0.00     0.190 C 
HETATM   15  N4  UNL     1      19.732   2.780  49.632  1.00  0.00    -0.289 NA
HETATM   16  C13 UNL     1      20.083   2.278  50.735  1.00  0.00     0.056 C 
HETATM   17  H12 UNL     1      21.870   4.801  50.010  1.00  0.00     0.162 HD
HETATM   18  H17 UNL     1      23.388   1.678  50.433  1.00  0.00     0.160 HD
ENDROOT
BRANCH  16  19
HETATM   19  C14 UNL     1      19.085   2.127  51.816  1.00  0.00     0.230 C 
BRANCH  19  20
HETATM   20  N5  UNL     1      18.254   3.310  51.893  1.00  0.00    -0.193 NA
HETATM   21  N6  UNL     1      17.029   3.225  51.964  1.00  0.00    -0.203 NA
HETATM   22  C15 UNL     1      16.141   4.338  52.043  1.00  0.00     0.203 C 
ENDBRANCH  19  20
ENDBRANCH  16  19
BRANCH   1  23
HETATM   23  C3  UNL     1      21.371   0.389  51.707  1.00  0.00     0.037 C 
BRANCH  23  24
HETATM   24  C2  UNL     1      21.831   0.263  53.112  1.00  0.00    -0.002 C 
HETATM   25  C1  UNL     1      22.894  -0.842  53.204  1.00  0.00     0.005 C 
ENDBRANCH  23  24
ENDBRANCH   1  23
TORSDOF 4
ENDMDL
MODEL 9
REMARK VINA RESULT:      -5.7     23.269     25.439
REMARK  4 active torsions:
REMARK  status: ('A' for Active; 'I' for Inactive)
REMARK    1  A    between atoms: C2_2  and  C3_3 
REMARK    2  A    between atoms: C3_3  and  C4_4 
REMARK    3  A    between atoms: C13_19  and  C14_20 
REMARK    4  A    between atoms: C14_20  and  N5_21 
ROOT
HETATM    1  C4  UNL     1      42.465   0.224  69.430  1.00  0.00     0.073 C 
HETATM    2  C5  UNL     1      42.106  -0.770  68.313  1.00  0.00     0.057 C 
HETATM    3  C6  UNL     1      41.000  -0.205  67.449  1.00  0.00     0.125 C 
HETATM    4  N1  UNL     1      39.802   0.048  68.227  1.00  0.00    -0.359 N 
HETATM    5  C7  UNL     1      38.800  -0.604  69.000  1.00  0.00     0.243 C 
HETATM    6  O1  UNL     1      39.497  -1.575  68.629  1.00  0.00    -0.271 OA
HETATM    7  C8  UNL     1      37.667   0.113  69.707  1.00  0.00     0.306 C 
HETATM    8  O2  UNL     1      37.892   1.478  69.394  1.00  0.00    -0.247 OA
HETATM    9  N2  UNL     1      37.789   2.507  70.292  1.00  0.00    -0.145 NA
HETATM   10  C9  UNL     1      38.875   2.917  70.931  1.00  0.00     0.156 C 
HETATM   11  C10 UNL     1      40.243   2.371  70.783  1.00  0.00    -0.004 C 
HETATM   12  C11 UNL     1      40.730   1.170  71.139  1.00  0.00     0.094 C 
HETATM   13  N3  UNL     1      41.427   0.118  70.434  1.00  0.00    -0.384 N 
HETATM   14  C12 UNL     1      41.305   3.178  70.172  1.00  0.00     0.190 C 
HETATM   15  N4  UNL     1      41.980   2.605  69.079  1.00  0.00    -0.289 NA
HETATM   16  C13 UNL     1      42.651   1.558  68.865  1.00  0.00     0.056 C 
HETATM   17  H12 UNL     1      39.574   1.089  68.236  1.00  0.00     0.162 HD
HETATM   18  H17 UNL     1      41.149  -0.855  70.680  1.00  0.00     0.160 HD
ENDROOT
BRANCH  16  19
HETATM   19  C14 UNL     1      43.793   1.606  67.926  1.00  0.00     0.230 C 
BRANCH  19  20
HETATM   20  N5  UNL     1      44.173   2.980  67.675  1.00  0.00    -0.193 NA
HETATM   21  N6  UNL     1      44.522   3.351  66.556  1.00  0.00    -0.203 NA
HETATM   22  C15 UNL     1      44.911   4.684  66.227  1.00  0.00     0.203 C 
ENDBRANCH  19  20
ENDBRANCH  16  19
BRANCH   1  23
HETATM   23  C3  UNL     1      43.733  -0.350  70.031  1.00  0.00     0.037 C 
BRANCH  23  24
HETATM   24  C2  UNL     1      44.003  -1.772  69.706  1.00  0.00    -0.002 C 
HETATM   25  C1  UNL     1      44.094  -2.585  71.007  1.00  0.00     0.005 C 
ENDBRANCH  23  24
ENDBRANCH   1  23
TORSDOF 4
ENDMDL
