MODEL 1
REMARK VINA RESULT:      -7.8      0.000      0.000
REMARK  3 active torsions:
REMARK  status: ('A' for Active; 'I' for Inactive)
REMARK    1  A    between atoms: C2_2  and  C3_3 
REMARK    2  A    between atoms: C13_20  and  C14_21 
REMARK    3  A    between atoms: C14_21  and  O3_22 
ROOT
HETATM    1  C3  UNL     1      22.925   0.149  52.902  1.00  0.00     0.212 A 
HETATM    2  O1  UNL     1      22.498   0.846  51.952  1.00  0.00     0.000 OA
HETATM    3  N1  UNL     1      23.638   1.362  52.612  1.00  0.00     0.175 N 
HETATM    4  C4  UNL     1      23.139   2.086  51.572  1.00  0.00     0.284 A 
HETATM    5  C5  UNL     1      22.724   2.717  50.698  1.00  0.00     0.004 C 
HETATM    6  N2  UNL     1      22.254   3.470  49.686  1.00  0.00    -0.304 N 
HETATM    7  C6  UNL     1      23.346   4.347  49.494  1.00  0.00     0.139 A 
HETATM    8  C7  UNL     1      24.669   4.033  49.372  1.00  0.00     0.080 A 
HETATM    9  C8  UNL     1      25.708   4.920  49.217  1.00  0.00     0.065 A 
HETATM   10  N3  UNL     1      25.293   6.194  49.191  1.00  0.00    -0.221 NA
HETATM   11  C9  UNL     1      23.985   6.526  49.309  1.00  0.00     0.225 A 
HETATM   12 CL1  UNL     1      23.719   8.278  49.240  1.00  0.00    -0.041 Cl
HETATM   13  N4  UNL     1      22.967   5.627  49.463  1.00  0.00    -0.200 NA
HETATM   14  C10 UNL     1      27.044   4.244  49.125  1.00  0.00     0.226 C 
HETATM   15  O2  UNL     1      26.916   3.010  49.712  1.00  0.00    -0.385 OA
HETATM   16  C11 UNL     1      26.611   2.996  51.057  1.00  0.00     0.168 C 
HETATM   17  C12 UNL     1      26.388   1.547  51.423  1.00  0.00     0.035 C 
HETATM   18  C13 UNL     1      26.043   1.288  52.836  1.00  0.00     0.041 C 
HETATM   19  C16 UNL     1      24.760   1.836  53.344  1.00  0.00     0.295 C 
HETATM   20  H4  UNL     1      21.354   3.393  49.224  1.00  0.00     0.177 HD
ENDROOT
BRANCH  18  21
HETATM   21  C14 UNL     1      27.221   1.753  53.707  1.00  0.00     0.173 C 
BRANCH  21  22
HETATM   22  O3  UNL     1      27.328   0.908  54.816  1.00  0.00    -0.396 OA
HETATM   23  C15 UNL     1      28.566   0.273  54.785  1.00  0.00     0.201 C 
ENDBRANCH  21  22
ENDBRANCH  18  21
BRANCH   1  24
HETATM   24  C2  UNL     1      23.303  -0.747  53.961  1.00  0.00     0.033 C 
HETATM   25  C1  UNL     1      22.371  -1.123  54.816  1.00  0.00     0.014 C 
ENDBRANCH   1  24
TORSDOF 3
ENDMDL
MODEL 2
REMARK VINA RESULT:      -7.6      4.020      6.272
REMARK  3 active torsions:
REMARK  status: ('A' for Active; 'I' for Inactive)
REMARK    1  A    between atoms: C2_2  and  C3_3 
REMARK    2  A    between atoms: C13_20  and  C14_21 
REMARK    3  A    between atoms: C14_21  and  O3_22 
ROOT
HETATM    1  C3  UNL     1      20.067  -0.317  53.089  1.00  0.00     0.212 A 
HETATM    2  O1  UNL     1      21.040  -0.522  53.853  1.00  0.00     0.000 OA
HETATM    3  N1  UNL     1      21.380  -0.224  52.512  1.00  0.00     0.175 N 
HETATM    4  C4  UNL     1      22.405  -0.453  53.378  1.00  0.00     0.284 A 
HETATM    5  C5  UNL     1      23.286  -0.652  54.098  1.00  0.00     0.004 C 
HETATM    6  N2  UNL     1      24.328  -0.886  54.918  1.00  0.00    -0.304 N 
HETATM    7  C6  UNL     1      25.390  -0.398  54.125  1.00  0.00     0.139 A 
HETATM    8  C7  UNL     1      25.472   0.794  53.464  1.00  0.00     0.080 A 
HETATM    9  C8  UNL     1      26.514   1.221  52.675  1.00  0.00     0.065 A 
HETATM   10  N3  UNL     1      27.503   0.320  52.601  1.00  0.00    -0.221 NA
HETATM   11  C9  UNL     1      27.441  -0.868  53.249  1.00  0.00     0.225 A 
HETATM   12 CL1  UNL     1      28.883  -1.865  52.980  1.00  0.00    -0.041 Cl
HETATM   13  N4  UNL     1      26.395  -1.273  54.030  1.00  0.00    -0.200 NA
HETATM   14  C10 UNL     1      26.280   2.581  52.085  1.00  0.00     0.226 C 
HETATM   15  O2  UNL     1      24.924   2.796  52.084  1.00  0.00    -0.385 OA
HETATM   16  C11 UNL     1      24.166   1.945  51.307  1.00  0.00     0.168 C 
HETATM   17  C12 UNL     1      22.723   2.295  51.586  1.00  0.00     0.035 C 
HETATM   18  C13 UNL     1      21.718   1.499  50.852  1.00  0.00     0.041 C 
HETATM   19  C16 UNL     1      21.644   0.045  51.142  1.00  0.00     0.295 C 
HETATM   20  H4  UNL     1      24.306  -1.305  55.842  1.00  0.00     0.177 HD
ENDROOT
BRANCH  18  21
HETATM   21  C14 UNL     1      21.916   1.749  49.348  1.00  0.00     0.173 C 
BRANCH  21  22
HETATM   22  O3  UNL     1      20.743   1.399  48.671  1.00  0.00    -0.396 OA
HETATM   23  C15 UNL     1      19.807   2.415  48.831  1.00  0.00     0.201 C 
ENDBRANCH  21  22
ENDBRANCH  18  21
BRANCH   1  24
HETATM   24  C2  UNL     1      18.863  -0.106  52.333  1.00  0.00     0.033 C 
HETATM   25  C1  UNL     1      17.827  -0.881  52.589  1.00  0.00     0.014 C 
ENDBRANCH   1  24
TORSDOF 3
ENDMDL
MODEL 3
REMARK VINA RESULT:      -7.4      1.865      4.213
REMARK  3 active torsions:
REMARK  status: ('A' for Active; 'I' for Inactive)
REMARK    1  A    between atoms: C2_2  and  C3_3 
REMARK    2  A    between atoms: C13_20  and  C14_21 
REMARK    3  A    between atoms: C14_21  and  O3_22 
ROOT
HETATM    1  C3  UNL     1      27.899   1.158  52.743  1.00  0.00     0.212 A 
HETATM    2  O1  UNL     1      27.721   2.225  52.113  1.00  0.00     0.000 OA
HETATM    3  N1  UNL     1      26.628   1.326  52.095  1.00  0.00     0.175 N 
HETATM    4  C4  UNL     1      26.479   2.501  51.423  1.00  0.00     0.284 A 
HETATM    5  C5  UNL     1      26.338   3.489  50.842  1.00  0.00     0.004 C 
HETATM    6  N2  UNL     1      26.155   4.632  50.154  1.00  0.00    -0.304 N 
HETATM    7  C6  UNL     1      24.756   4.588  49.957  1.00  0.00     0.139 A 
HETATM    8  C7  UNL     1      23.781   4.344  50.880  1.00  0.00     0.080 A 
HETATM    9  C8  UNL     1      22.428   4.280  50.643  1.00  0.00     0.065 A 
HETATM   10  N3  UNL     1      22.124   4.488  49.355  1.00  0.00    -0.221 NA
HETATM   11  C9  UNL     1      23.077   4.732  48.423  1.00  0.00     0.225 A 
HETATM   12 CL1  UNL     1      22.397   4.972  46.803  1.00  0.00    -0.041 Cl
HETATM   13  N4  UNL     1      24.417   4.792  48.681  1.00  0.00    -0.200 NA
HETATM   14  C10 UNL     1      21.632   3.982  51.880  1.00  0.00     0.226 C 
HETATM   15  O2  UNL     1      22.480   3.375  52.773  1.00  0.00    -0.385 OA
HETATM   16  C11 UNL     1      23.003   2.156  52.395  1.00  0.00     0.168 C 
HETATM   17  C12 UNL     1      23.997   1.774  53.467  1.00  0.00     0.035 C 
HETATM   18  C13 UNL     1      24.690   0.485  53.268  1.00  0.00     0.041 C 
HETATM   19  C16 UNL     1      25.587   0.359  52.091  1.00  0.00     0.295 C 
HETATM   20  H4  UNL     1      26.860   5.304  49.873  1.00  0.00     0.177 HD
ENDROOT
BRANCH  18  21
HETATM   21  C14 UNL     1      23.633  -0.631  53.273  1.00  0.00     0.173 C 
BRANCH  21  22
HETATM   22  O3  UNL     1      23.288  -0.924  54.597  1.00  0.00    -0.396 OA
HETATM   23  C15 UNL     1      21.950  -1.303  54.643  1.00  0.00     0.201 C 
ENDBRANCH  21  22
ENDBRANCH  18  21
BRANCH   1  24
HETATM   24  C2  UNL     1      28.242  -0.015  53.502  1.00  0.00     0.033 C 
HETATM   25  C1  UNL     1      29.514  -0.219  53.786  1.00  0.00     0.014 C 
ENDBRANCH   1  24
TORSDOF 3
ENDMDL
MODEL 4
REMARK VINA RESULT:      -7.3      3.361      7.085
REMARK  3 active torsions:
REMARK  status: ('A' for Active; 'I' for Inactive)
REMARK    1  A    between atoms: C2_2  and  C3_3 
REMARK    2  A    between atoms: C13_20  and  C14_21 
REMARK    3  A    between atoms: C14_21  and  O3_22 
ROOT
HETATM    1  C3  UNL     1      26.470   3.615  49.776  1.00  0.00     0.212 A 
HETATM    2  O1  UNL     1      26.822   2.544  50.324  1.00  0.00     0.000 OA
HETATM    3  N1  UNL     1      25.682   3.163  50.890  1.00  0.00     0.175 N 
HETATM    4  C4  UNL     1      26.101   1.996  51.452  1.00  0.00     0.284 A 
HETATM    5  C5  UNL     1      26.447   1.010  51.945  1.00  0.00     0.004 C 
HETATM    6  N2  UNL     1      26.836  -0.133  52.539  1.00  0.00    -0.304 N 
HETATM    7  C6  UNL     1      25.693  -0.415  53.321  1.00  0.00     0.139 A 
HETATM    8  C7  UNL     1      24.385  -0.420  52.932  1.00  0.00     0.080 A 
HETATM    9  C8  UNL     1      23.295  -0.670  53.732  1.00  0.00     0.065 A 
HETATM   10  N3  UNL     1      23.640  -0.926  55.002  1.00  0.00    -0.221 NA
HETATM   11  C9  UNL     1      24.933  -0.926  55.408  1.00  0.00     0.225 A 
HETATM   12 CL1  UNL     1      25.103  -1.296  57.134  1.00  0.00    -0.041 Cl
HETATM   13  N4  UNL     1      26.002  -0.674  54.595  1.00  0.00    -0.200 NA
HETATM   14  C10 UNL     1      21.994  -0.585  52.990  1.00  0.00     0.226 C 
HETATM   15  O2  UNL     1      22.210   0.191  51.878  1.00  0.00    -0.385 OA
HETATM   16  C11 UNL     1      22.568   1.504  52.103  1.00  0.00     0.168 C 
HETATM   17  C12 UNL     1      22.882   2.092  50.748  1.00  0.00     0.035 C 
HETATM   18  C13 UNL     1      23.295   3.511  50.745  1.00  0.00     0.041 C 
HETATM   19  C16 UNL     1      24.566   3.860  51.428  1.00  0.00     0.295 C 
HETATM   20  H4  UNL     1      27.720  -0.618  52.428  1.00  0.00     0.177 HD
ENDROOT
BRANCH  18  21
HETATM   21  C14 UNL     1      22.130   4.348  51.295  1.00  0.00     0.173 C 
BRANCH  21  22
HETATM   22  O3  UNL     1      22.536   5.683  51.393  1.00  0.00    -0.396 OA
HETATM   23  C15 UNL     1      22.020   6.395  50.315  1.00  0.00     0.201 C 
ENDBRANCH  21  22
ENDBRANCH  18  21
BRANCH   1  24
HETATM   24  C2  UNL     1      26.182   4.824  49.054  1.00  0.00     0.033 C 
HETATM   25  C1  UNL     1      27.199   5.555  48.639  1.00  0.00     0.014 C 
ENDBRANCH   1  24
TORSDOF 3
ENDMDL
MODEL 5
REMARK VINA RESULT:      -6.7      3.399      5.718
REMARK  3 active torsions:
REMARK  status: ('A' for Active; 'I' for Inactive)
REMARK    1  A    between atoms: C2_2  and  C3_3 
REMARK    2  A    between atoms: C13_20  and  C14_21 
REMARK    3  A    between atoms: C14_21  and  O3_22 
ROOT
HETATM    1  C3  UNL     1      25.741   1.565  53.601  1.00  0.00     0.212 A 
HETATM    2  O1  UNL     1      24.831   0.709  53.506  1.00  0.00     0.000 OA
HETATM    3  N1  UNL     1      24.509   1.988  52.994  1.00  0.00     0.175 N 
HETATM    4  C4  UNL     1      23.551   1.024  52.911  1.00  0.00     0.284 A 
HETATM    5  C5  UNL     1      22.724   0.221  52.839  1.00  0.00     0.004 C 
HETATM    6  N2  UNL     1      21.744  -0.698  52.751  1.00  0.00    -0.304 N 
HETATM    7  C6  UNL     1      20.870  -0.052  51.848  1.00  0.00     0.139 A 
HETATM    8  C7  UNL     1      21.174   0.538  50.655  1.00  0.00     0.080 A 
HETATM    9  C8  UNL     1      20.298   1.186  49.816  1.00  0.00     0.065 A 
HETATM   10  N3  UNL     1      19.045   1.191  50.291  1.00  0.00    -0.221 NA
HETATM   11  C9  UNL     1      18.723   0.611  51.472  1.00  0.00     0.225 A 
HETATM   12 CL1  UNL     1      16.998   0.765  51.856  1.00  0.00    -0.041 Cl
HETATM   13  N4  UNL     1      19.610  -0.027  52.291  1.00  0.00    -0.200 NA
HETATM   14  C10 UNL     1      20.963   1.733  48.587  1.00  0.00     0.226 C 
HETATM   15  O2  UNL     1      22.297   1.874  48.875  1.00  0.00    -0.385 OA
HETATM   16  C11 UNL     1      22.621   2.771  49.872  1.00  0.00     0.168 C 
HETATM   17  C12 UNL     1      24.110   2.638  50.091  1.00  0.00     0.035 C 
HETATM   18  C13 UNL     1      24.685   3.516  51.130  1.00  0.00     0.041 C 
HETATM   19  C16 UNL     1      24.245   3.306  52.532  1.00  0.00     0.295 C 
HETATM   20  H4  UNL     1      21.690  -1.593  53.226  1.00  0.00     0.177 HD
ENDROOT
BRANCH  18  21
HETATM   21  C14 UNL     1      24.463   4.975  50.699  1.00  0.00     0.173 C 
BRANCH  21  22
HETATM   22  O3  UNL     1      23.674   5.618  51.659  1.00  0.00    -0.396 OA
HETATM   23  C15 UNL     1      22.688   6.356  51.015  1.00  0.00     0.201 C 
ENDBRANCH  21  22
ENDBRANCH  18  21
BRANCH   1  24
HETATM   24  C2  UNL     1      26.868   2.440  53.775  1.00  0.00     0.033 C 
HETATM   25  C1  UNL     1      28.007   2.106  53.199  1.00  0.00     0.014 C 
ENDBRANCH   1  24
TORSDOF 3
ENDMDL
MODEL 6
REMARK VINA RESULT:      -6.7      3.220      6.971
REMARK  3 active torsions:
REMARK  status: ('A' for Active; 'I' for Inactive)
REMARK    1  A    between atoms: C2_2  and  C3_3 
REMARK    2  A    between atoms: C13_20  and  C14_21 
REMARK    3  A    between atoms: C14_21  and  O3_22 
ROOT
HETATM    1  C3  UNL     1      26.389   4.842  49.382  1.00  0.00     0.212 A 
HETATM    2  O1  UNL     1      26.276   3.774  50.028  1.00  0.00     0.000 OA
HETATM    3  N1  UNL     1      25.079   4.513  49.873  1.00  0.00     0.175 N 
HETATM    4  C4  UNL     1      25.004   3.344  50.567  1.00  0.00     0.284 A 
HETATM    5  C5  UNL     1      24.924   2.358  51.165  1.00  0.00     0.004 C 
HETATM    6  N2  UNL     1      24.809   1.217  51.869  1.00  0.00    -0.304 N 
HETATM    7  C6  UNL     1      23.404   1.070  51.887  1.00  0.00     0.139 A 
HETATM    8  C7  UNL     1      22.532   1.156  50.841  1.00  0.00     0.080 A 
HETATM    9  C8  UNL     1      21.164   1.037  50.904  1.00  0.00     0.065 A 
HETATM   10  N3  UNL     1      20.727   0.817  52.151  1.00  0.00    -0.221 NA
HETATM   11  C9  UNL     1      21.575   0.728  53.204  1.00  0.00     0.225 A 
HETATM   12 CL1  UNL     1      20.731   0.431  54.735  1.00  0.00    -0.041 Cl
HETATM   13  N4  UNL     1      22.934   0.849  53.118  1.00  0.00    -0.200 NA
HETATM   14  C10 UNL     1      20.501   1.194  49.567  1.00  0.00     0.226 C 
HETATM   15  O2  UNL     1      21.367   1.893  48.763  1.00  0.00    -0.385 OA
HETATM   16  C11 UNL     1      21.668   3.181  49.156  1.00  0.00     0.168 C 
HETATM   17  C12 UNL     1      22.732   3.674  48.202  1.00  0.00     0.035 C 
HETATM   18  C13 UNL     1      23.213   5.051  48.435  1.00  0.00     0.041 C 
HETATM   19  C16 UNL     1      23.925   5.326  49.709  1.00  0.00     0.295 C 
HETATM   20  H4  UNL     1      25.556   0.655  52.262  1.00  0.00     0.177 HD
ENDROOT
BRANCH  18  21
HETATM   21  C14 UNL     1      22.025   6.009  48.254  1.00  0.00     0.173 C 
BRANCH  21  22
HETATM   22  O3  UNL     1      21.919   6.822  49.388  1.00  0.00    -0.396 OA
HETATM   23  C15 UNL     1      20.575   6.972  49.715  1.00  0.00     0.201 C 
ENDBRANCH  21  22
ENDBRANCH  18  21
BRANCH   1  24
HETATM   24  C2  UNL     1      26.665   6.034  48.627  1.00  0.00     0.033 C 
HETATM   25  C1  UNL     1      27.905   6.240  48.226  1.00  0.00     0.014 C 
ENDBRANCH   1  24
TORSDOF 3
ENDMDL
MODEL 7
REMARK VINA RESULT:      -6.6      1.905      4.229
REMARK  3 active torsions:
REMARK  status: ('A' for Active; 'I' for Inactive)
REMARK    1  A    between atoms: C2_2  and  C3_3 
REMARK    2  A    between atoms: C13_20  and  C14_21 
REMARK    3  A    between atoms: C14_21  and  O3_22 
ROOT
HETATM    1  C3  UNL     1      27.112   1.516  52.024  1.00  0.00     0.212 A 
HETATM    2  O1  UNL     1      27.202   2.591  51.388  1.00  0.00     0.000 OA
HETATM    3  N1  UNL     1      25.909   2.020  51.423  1.00  0.00     0.175 N 
HETATM    4  C4  UNL     1      26.054   3.190  50.743  1.00  0.00     0.284 A 
HETATM    5  C5  UNL     1      26.162   4.179  50.156  1.00  0.00     0.004 C 
HETATM    6  N2  UNL     1      26.266   5.328  49.462  1.00  0.00    -0.304 N 
HETATM    7  C6  UNL     1      24.900   5.663  49.318  1.00  0.00     0.139 A 
HETATM    8  C7  UNL     1      23.933   5.692  50.281  1.00  0.00     0.080 A 
HETATM    9  C8  UNL     1      22.604   5.993  50.096  1.00  0.00     0.065 A 
HETATM   10  N3  UNL     1      22.317   6.275  48.817  1.00  0.00    -0.221 NA
HETATM   11  C9  UNL     1      23.262   6.252  47.848  1.00  0.00     0.225 A 
HETATM   12 CL1  UNL     1      22.609   6.665  46.251  1.00  0.00    -0.041 Cl
HETATM   13  N4  UNL     1      24.579   5.949  48.053  1.00  0.00    -0.200 NA
HETATM   14  C10 UNL     1      21.807   5.923  51.365  1.00  0.00     0.226 C 
HETATM   15  O2  UNL     1      22.494   5.111  52.232  1.00  0.00    -0.385 OA
HETATM   16  C11 UNL     1      22.655   3.796  51.849  1.00  0.00     0.168 C 
HETATM   17  C12 UNL     1      23.551   3.161  52.887  1.00  0.00     0.035 C 
HETATM   18  C13 UNL     1      23.863   1.733  52.677  1.00  0.00     0.041 C 
HETATM   19  C16 UNL     1      24.646   1.369  51.469  1.00  0.00     0.295 C 
HETATM   20  H4  UNL     1      27.114   5.786  49.146  1.00  0.00     0.177 HD
ENDROOT
BRANCH  18  21
HETATM   21  C14 UNL     1      22.546   0.943  52.735  1.00  0.00     0.173 C 
BRANCH  21  22
HETATM   22  O3  UNL     1      22.287   0.397  51.473  1.00  0.00    -0.396 OA
HETATM   23  C15 UNL     1      20.914   0.402  51.250  1.00  0.00     0.201 C 
ENDBRANCH  21  22
ENDBRANCH  18  21
BRANCH   1  24
HETATM   24  C2  UNL     1      27.156   0.295  52.783  1.00  0.00     0.033 C 
HETATM   25  C1  UNL     1      27.647   0.343  54.006  1.00  0.00     0.014 C 
ENDBRANCH   1  24
TORSDOF 3
ENDMDL
MODEL 8
REMARK VINA RESULT:      -6.5      3.861      6.417
REMARK  3 active torsions:
REMARK  status: ('A' for Active; 'I' for Inactive)
REMARK    1  A    between atoms: C2_2  and  C3_3 
REMARK    2  A    between atoms: C13_20  and  C14_21 
REMARK    3  A    between atoms: C14_21  and  O3_22 
ROOT
HETATM    1  C3  UNL     1      18.286   0.120  51.274  1.00  0.00     0.212 A 
HETATM    2  O1  UNL     1      19.154  -0.202  52.118  1.00  0.00     0.000 OA
HETATM    3  N1  UNL     1      19.636   0.537  51.011  1.00  0.00     0.175 N 
HETATM    4  C4  UNL     1      20.544   0.165  51.955  1.00  0.00     0.284 A 
HETATM    5  C5  UNL     1      21.329  -0.149  52.743  1.00  0.00     0.004 C 
HETATM    6  N2  UNL     1      22.261  -0.508  53.645  1.00  0.00    -0.304 N 
HETATM    7  C6  UNL     1      23.334   0.321  53.246  1.00  0.00     0.139 A 
HETATM    8  C7  UNL     1      23.314   1.660  52.987  1.00  0.00     0.080 A 
HETATM    9  C8  UNL     1      24.375   2.429  52.570  1.00  0.00     0.065 A 
HETATM   10  N3  UNL     1      25.500   1.714  52.431  1.00  0.00    -0.221 NA
HETATM   11  C9  UNL     1      25.541   0.383  52.684  1.00  0.00     0.225 A 
HETATM   12 CL1  UNL     1      27.153  -0.309  52.421  1.00  0.00    -0.041 Cl
HETATM   13  N4  UNL     1      24.473  -0.361  53.097  1.00  0.00    -0.200 NA
HETATM   14  C10 UNL     1      24.009   3.869  52.365  1.00  0.00     0.226 C 
HETATM   15  O2  UNL     1      22.652   3.919  52.165  1.00  0.00    -0.385 OA
HETATM   16  C11 UNL     1      22.170   3.275  51.044  1.00  0.00     0.168 C 
HETATM   17  C12 UNL     1      20.664   3.354  51.129  1.00  0.00     0.035 C 
HETATM   18  C13 UNL     1      19.926   2.720  50.017  1.00  0.00     0.041 C 
HETATM   19  C16 UNL     1      20.053   1.250  49.855  1.00  0.00     0.295 C 
HETATM   20  H4  UNL     1      22.172  -1.195  54.386  1.00  0.00     0.177 HD
ENDROOT
BRANCH  18  21
HETATM   21  C14 UNL     1      20.301   3.450  48.718  1.00  0.00     0.173 C 
BRANCH  21  22
HETATM   22  O3  UNL     1      20.910   2.540  47.846  1.00  0.00    -0.396 OA
HETATM   23  C15 UNL     1      21.770   3.231  46.998  1.00  0.00     0.201 C 
ENDBRANCH  21  22
ENDBRANCH  18  21
BRANCH   1  24
HETATM   24  C2  UNL     1      17.189   0.420  50.393  1.00  0.00     0.033 C 
HETATM   25  C1  UNL     1      16.206   1.165  50.860  1.00  0.00     0.014 C 
ENDBRANCH   1  24
TORSDOF 3
ENDMDL
MODEL 9
REMARK VINA RESULT:      -6.5      4.888      7.266
REMARK  3 active torsions:
REMARK  status: ('A' for Active; 'I' for Inactive)
REMARK    1  A    between atoms: C2_2  and  C3_3 
REMARK    2  A    between atoms: C13_20  and  C14_21 
REMARK    3  A    between atoms: C14_21  and  O3_22 
ROOT
HETATM    1  C3  UNL     1      22.780  -0.878  54.031  1.00  0.00     0.212 A 
HETATM    2  O1  UNL     1      21.665  -1.450  54.000  1.00  0.00     0.000 OA
HETATM    3  N1  UNL     1      21.656  -0.092  53.603  1.00  0.00     0.175 N 
HETATM    4  C4  UNL     1      20.466  -0.754  53.585  1.00  0.00     0.284 A 
HETATM    5  C5  UNL     1      19.448  -1.299  53.571  1.00  0.00     0.004 C 
HETATM    6  N2  UNL     1      18.250  -1.913  53.552  1.00  0.00    -0.304 N 
HETATM    7  C6  UNL     1      17.499  -0.982  52.800  1.00  0.00     0.139 A 
HETATM    8  C7  UNL     1      17.829  -0.393  51.614  1.00  0.00     0.080 A 
HETATM    9  C8  UNL     1      17.083   0.534  50.926  1.00  0.00     0.065 A 
HETATM   10  N3  UNL     1      15.935   0.832  51.550  1.00  0.00    -0.221 NA
HETATM   11  C9  UNL     1      15.589   0.259  52.728  1.00  0.00     0.225 A 
HETATM   12 CL1  UNL     1      14.022   0.832  53.328  1.00  0.00    -0.041 Cl
HETATM   13  N4  UNL     1      16.346  -0.662  53.395  1.00  0.00    -0.200 NA
HETATM   14  C10 UNL     1      17.741   0.989  49.656  1.00  0.00     0.226 C 
HETATM   15  O2  UNL     1      19.086   0.745  49.786  1.00  0.00    -0.385 OA
HETATM   16  C11 UNL     1      19.744   1.433  50.785  1.00  0.00     0.168 C 
HETATM   17  C12 UNL     1      21.153   0.890  50.812  1.00  0.00     0.035 C 
HETATM   18  C13 UNL     1      22.052   1.490  51.819  1.00  0.00     0.041 C 
HETATM   19  C16 UNL     1      21.717   1.284  53.251  1.00  0.00     0.295 C 
HETATM   20  H4  UNL     1      18.002  -2.799  53.980  1.00  0.00     0.177 HD
ENDROOT
BRANCH  18  21
HETATM   21  C14 UNL     1      22.195   2.987  51.500  1.00  0.00     0.173 C 
BRANCH  21  22
HETATM   22  O3  UNL     1      23.321   3.173  50.691  1.00  0.00    -0.396 OA
HETATM   23  C15 UNL     1      24.387   2.456  51.224  1.00  0.00     0.201 C 
ENDBRANCH  21  22
ENDBRANCH  18  21
BRANCH   1  24
HETATM   24  C2  UNL     1      24.116  -0.353  54.113  1.00  0.00     0.033 C 
HETATM   25  C1  UNL     1      25.017  -0.816  53.268  1.00  0.00     0.014 C 
ENDBRANCH   1  24
TORSDOF 3
ENDMDL
