MODEL 1
REMARK VINA RESULT:      -9.2      0.000      0.000
REMARK  6 active torsions:
REMARK  status: ('A' for Active; 'I' for Inactive)
REMARK    1  A    between atoms: C2_2  and  C3_3 
REMARK    2  A    between atoms: C4_4  and  C5_5 
REMARK       I    between atoms: C5_5  and  N1_7 
REMARK    3  A    between atoms: N1_7  and  C6_8 
REMARK    4  A    between atoms: C9_11  and  N2_12 
REMARK    5  A    between atoms: N2_12  and  C10_13 
REMARK    6  A    between atoms: C21_28  and  O2_29 
ROOT
HETATM    1  C6  UNL     1      24.036   2.877  49.826  1.00  0.00     0.069 A 
HETATM    2  C7  UNL     1      24.102   2.282  51.064  1.00  0.00     0.048 A 
HETATM    3  C8  UNL     1      23.121   1.421  51.481  1.00  0.00     0.023 A 
HETATM    4  C9  UNL     1      23.210   0.839  52.726  1.00  0.00     0.067 A 
HETATM    5  C16 UNL     1      22.214  -0.024  53.129  1.00  0.00     0.089 A 
HETATM    6  C17 UNL     1      22.296  -0.636  54.424  1.00  0.00     0.103 C 
HETATM    7  N3  UNL     1      22.379  -1.126  55.469  1.00  0.00    -0.191 NA
HETATM    8  C18 UNL     1      21.134  -0.322  52.327  1.00  0.00     0.142 A 
HETATM    9  N4  UNL     1      21.091   0.272  51.121  1.00  0.00    -0.259 NA
HETATM   10  C19 UNL     1      22.040   1.118  50.688  1.00  0.00     0.071 A 
HETATM   11  C20 UNL     1      21.944   1.697  49.443  1.00  0.00     0.071 A 
HETATM   12  C21 UNL     1      22.949   2.545  49.079  1.00  0.00     0.097 A 
ENDROOT
BRANCH   4  13
HETATM   13  N2  UNL     1      24.295   1.105  53.594  1.00  0.00    -0.354 N 
HETATM   14  H10 UNL     1      24.164   1.798  54.360  1.00  0.00     0.166 HD
BRANCH  13  15
HETATM   15  C10 UNL     1      25.534   0.442  53.425  1.00  0.00     0.034 A 
HETATM   16  C11 UNL     1      25.560  -0.813  52.853  1.00  0.00     0.032 A 
HETATM   17  C12 UNL     1      26.755  -1.493  52.672  1.00  0.00     0.046 A 
HETATM   18  C13 UNL     1      27.939  -0.886  53.081  1.00  0.00     0.138 A 
HETATM   19  F1  UNL     1      29.085  -1.557  52.898  1.00  0.00    -0.204 F 
HETATM   20  C14 UNL     1      27.894   0.372  53.654  1.00  0.00     0.074 A 
HETATM   21 CL1  UNL     1      29.414   1.075  54.143  1.00  0.00    -0.081 Cl
HETATM   22  C15 UNL     1      26.703   1.047  53.833  1.00  0.00     0.056 A 
ENDBRANCH  13  15
ENDBRANCH   4  13
BRANCH   1  23
HETATM   23  N1  UNL     1      25.099   3.741  49.507  1.00  0.00    -0.321 N 
HETATM   24  C5  UNL     1      25.261   5.121  49.282  1.00  0.00     0.245 C 
HETATM   25  O1  UNL     1      24.223   5.809  49.377  1.00  0.00    -0.268 OA
HETATM   26  H8  UNL     1      26.072   3.328  49.384  1.00  0.00     0.169 HD
BRANCH  24  27
HETATM   27  C4  UNL     1      26.497   5.793  48.957  1.00  0.00     0.070 C 
HETATM   28  C3  UNL     1      27.620   5.191  48.598  1.00  0.00    -0.022 C 
BRANCH  28  29
HETATM   29  C2  UNL     1      28.950   5.744  48.240  1.00  0.00     0.023 C 
HETATM   30  C1  UNL     1      28.868   6.991  47.419  1.00  0.00     0.009 C 
ENDBRANCH  28  29
ENDBRANCH  24  27
ENDBRANCH   1  23
BRANCH  12  31
HETATM   31  O2  UNL     1      22.800   3.089  47.834  1.00  0.00    -0.354 OA
HETATM   32  C22 UNL     1      21.796   3.948  47.391  1.00  0.00     0.210 C 
ENDBRANCH  12  31
TORSDOF 6
ENDMDL
MODEL 2
REMARK VINA RESULT:      -8.5      3.189      5.122
REMARK  6 active torsions:
REMARK  status: ('A' for Active; 'I' for Inactive)
REMARK    1  A    between atoms: C2_2  and  C3_3 
REMARK    2  A    between atoms: C4_4  and  C5_5 
REMARK       I    between atoms: C5_5  and  N1_7 
REMARK    3  A    between atoms: N1_7  and  C6_8 
REMARK    4  A    between atoms: C9_11  and  N2_12 
REMARK    5  A    between atoms: N2_12  and  C10_13 
REMARK    6  A    between atoms: C21_28  and  O2_29 
ROOT
HETATM    1  C6  UNL     1      25.813   2.535  51.906  1.00  0.00     0.069 A 
HETATM    2  C7  UNL     1      24.456   2.317  51.959  1.00  0.00     0.048 A 
HETATM    3  C8  UNL     1      23.942   1.269  52.676  1.00  0.00     0.023 A 
HETATM    4  C9  UNL     1      22.580   1.073  52.713  1.00  0.00     0.067 A 
HETATM    5  C16 UNL     1      22.080   0.013  53.439  1.00  0.00     0.089 A 
HETATM    6  C17 UNL     1      20.662  -0.201  53.485  1.00  0.00     0.103 C 
HETATM    7  N3  UNL     1      19.517  -0.358  53.517  1.00  0.00    -0.191 NA
HETATM    8  C18 UNL     1      22.900  -0.855  54.128  1.00  0.00     0.142 A 
HETATM    9  N4  UNL     1      24.223  -0.623  54.060  1.00  0.00    -0.259 NA
HETATM   10  C19 UNL     1      24.752   0.398  53.365  1.00  0.00     0.071 A 
HETATM   11  C20 UNL     1      26.115   0.588  53.332  1.00  0.00     0.071 A 
HETATM   12  C21 UNL     1      26.571   1.647  52.603  1.00  0.00     0.097 A 
ENDROOT
BRANCH   4  13
HETATM   13  N2  UNL     1      21.686   1.930  52.028  1.00  0.00    -0.354 N 
HETATM   14  H10 UNL     1      20.945   2.417  52.572  1.00  0.00     0.166 HD
BRANCH  13  15
HETATM   15  C10 UNL     1      21.799   2.121  50.630  1.00  0.00     0.034 A 
HETATM   16  C11 UNL     1      21.647   1.043  49.783  1.00  0.00     0.032 A 
HETATM   17  C12 UNL     1      21.751   1.192  48.408  1.00  0.00     0.046 A 
HETATM   18  C13 UNL     1      22.015   2.457  47.890  1.00  0.00     0.138 A 
HETATM   19  F1  UNL     1      22.112   2.583  46.559  1.00  0.00    -0.204 F 
HETATM   20  C14 UNL     1      22.165   3.527  48.754  1.00  0.00     0.074 A 
HETATM   21 CL1  UNL     1      22.494   5.083  48.040  1.00  0.00    -0.081 Cl
HETATM   22  C15 UNL     1      22.061   3.375  50.123  1.00  0.00     0.056 A 
ENDBRANCH  13  15
ENDBRANCH   4  13
BRANCH   1  23
HETATM   23  N1  UNL     1      26.224   3.640  51.140  1.00  0.00    -0.321 N 
HETATM   24  C5  UNL     1      26.107   4.054  49.799  1.00  0.00     0.245 C 
HETATM   25  O1  UNL     1      25.486   3.275  49.046  1.00  0.00    -0.268 OA
HETATM   26  H8  UNL     1      26.773   4.416  51.618  1.00  0.00     0.169 HD
BRANCH  24  27
HETATM   27  C4  UNL     1      26.634   5.274  49.234  1.00  0.00     0.070 C 
HETATM   28  C3  UNL     1      27.750   5.367  48.528  1.00  0.00    -0.022 C 
BRANCH  28  29
HETATM   29  C2  UNL     1      28.406   6.537  47.893  1.00  0.00     0.023 C 
HETATM   30  C1  UNL     1      29.896   6.422  47.842  1.00  0.00     0.009 C 
ENDBRANCH  28  29
ENDBRANCH  24  27
ENDBRANCH   1  23
BRANCH  12  31
HETATM   31  O2  UNL     1      27.931   1.786  52.607  1.00  0.00    -0.354 OA
HETATM   32  C22 UNL     1      28.732   2.324  53.613  1.00  0.00     0.210 C 
ENDBRANCH  12  31
TORSDOF 6
ENDMDL
MODEL 3
REMARK VINA RESULT:      -8.5      3.428      5.447
REMARK  6 active torsions:
REMARK  status: ('A' for Active; 'I' for Inactive)
REMARK    1  A    between atoms: C2_2  and  C3_3 
REMARK    2  A    between atoms: C4_4  and  C5_5 
REMARK       I    between atoms: C5_5  and  N1_7 
REMARK    3  A    between atoms: N1_7  and  C6_8 
REMARK    4  A    between atoms: C9_11  and  N2_12 
REMARK    5  A    between atoms: N2_12  and  C10_13 
REMARK    6  A    between atoms: C21_28  and  O2_29 
ROOT
HETATM    1  C6  UNL     1      25.940   1.084  52.409  1.00  0.00     0.069 A 
HETATM    2  C7  UNL     1      24.623   0.703  52.304  1.00  0.00     0.048 A 
HETATM    3  C8  UNL     1      24.026  -0.034  53.293  1.00  0.00     0.023 A 
HETATM    4  C9  UNL     1      22.706  -0.403  53.164  1.00  0.00     0.067 A 
HETATM    5  C16 UNL     1      22.122  -1.145  54.168  1.00  0.00     0.089 A 
HETATM    6  C17 UNL     1      20.746  -1.536  54.045  1.00  0.00     0.103 C 
HETATM    7  N3  UNL     1      19.636  -1.838  53.934  1.00  0.00    -0.191 NA
HETATM    8  C18 UNL     1      22.817  -1.528  55.295  1.00  0.00     0.142 A 
HETATM    9  N4  UNL     1      24.103  -1.145  55.375  1.00  0.00    -0.259 NA
HETATM   10  C19 UNL     1      24.711  -0.422  54.420  1.00  0.00     0.071 A 
HETATM   11  C20 UNL     1      26.031  -0.056  54.555  1.00  0.00     0.071 A 
HETATM   12  C21 UNL     1      26.574   0.678  53.541  1.00  0.00     0.097 A 
ENDROOT
BRANCH   4  13
HETATM   13  N2  UNL     1      21.939  -0.039  52.032  1.00  0.00    -0.354 N 
HETATM   14  H10 UNL     1      21.618  -0.788  51.385  1.00  0.00     0.166 HD
BRANCH  13  15
HETATM   15  C10 UNL     1      21.617   1.317  51.783  1.00  0.00     0.034 A 
HETATM   16  C11 UNL     1      20.804   1.994  52.668  1.00  0.00     0.032 A 
HETATM   17  C12 UNL     1      20.467   3.323  52.457  1.00  0.00     0.046 A 
HETATM   18  C13 UNL     1      20.965   3.969  51.329  1.00  0.00     0.138 A 
HETATM   19  F1  UNL     1      20.630   5.253  51.141  1.00  0.00    -0.204 F 
HETATM   20  C14 UNL     1      21.778   3.273  50.452  1.00  0.00     0.074 A 
HETATM   21 CL1  UNL     1      22.368   4.142  49.059  1.00  0.00    -0.081 Cl
HETATM   22  C15 UNL     1      22.113   1.951  50.665  1.00  0.00     0.056 A 
ENDBRANCH  13  15
ENDBRANCH   4  13
BRANCH   1  23
HETATM   23  N1  UNL     1      26.444   1.838  51.334  1.00  0.00    -0.321 N 
HETATM   24  C5  UNL     1      26.132   3.060  50.708  1.00  0.00     0.245 C 
HETATM   25  O1  UNL     1      25.162   3.681  51.192  1.00  0.00    -0.268 OA
HETATM   26  H8  UNL     1      27.281   1.461  50.795  1.00  0.00     0.169 HD
BRANCH  24  27
HETATM   27  C4  UNL     1      26.821   3.641  49.581  1.00  0.00     0.070 C 
HETATM   28  C3  UNL     1      26.899   4.937  49.320  1.00  0.00    -0.022 C 
BRANCH  28  29
HETATM   29  C2  UNL     1      27.563   5.670  48.214  1.00  0.00     0.023 C 
HETATM   30  C1  UNL     1      29.056   5.580  48.260  1.00  0.00     0.009 C 
ENDBRANCH  28  29
ENDBRANCH  24  27
ENDBRANCH   1  23
BRANCH  12  31
HETATM   31  O2  UNL     1      27.886   1.010  53.730  1.00  0.00    -0.354 OA
HETATM   32  C22 UNL     1      28.959   0.153  53.970  1.00  0.00     0.210 C 
ENDBRANCH  12  31
TORSDOF 6
ENDMDL
MODEL 4
REMARK VINA RESULT:      -8.2      3.579      6.665
REMARK  6 active torsions:
REMARK  status: ('A' for Active; 'I' for Inactive)
REMARK    1  A    between atoms: C2_2  and  C3_3 
REMARK    2  A    between atoms: C4_4  and  C5_5 
REMARK       I    between atoms: C5_5  and  N1_7 
REMARK    3  A    between atoms: N1_7  and  C6_8 
REMARK    4  A    between atoms: C9_11  and  N2_12 
REMARK    5  A    between atoms: N2_12  and  C10_13 
REMARK    6  A    between atoms: C21_28  and  O2_29 
ROOT
HETATM    1  C6  UNL     1      23.297   0.961  52.440  1.00  0.00     0.069 A 
HETATM    2  C7  UNL     1      22.991   1.899  51.483  1.00  0.00     0.048 A 
HETATM    3  C8  UNL     1      21.761   2.502  51.460  1.00  0.00     0.023 A 
HETATM    4  C9  UNL     1      21.480   3.438  50.491  1.00  0.00     0.067 A 
HETATM    5  C16 UNL     1      20.237   4.035  50.483  1.00  0.00     0.089 A 
HETATM    6  C17 UNL     1      19.932   5.012  49.477  1.00  0.00     0.103 C 
HETATM    7  N3  UNL     1      19.703   5.802  48.664  1.00  0.00    -0.191 NA
HETATM    8  C18 UNL     1      19.269   3.723  51.414  1.00  0.00     0.142 A 
HETATM    9  N4  UNL     1      19.591   2.802  52.339  1.00  0.00    -0.259 NA
HETATM   10  C19 UNL     1      20.789   2.198  52.384  1.00  0.00     0.071 A 
HETATM   11  C20 UNL     1      21.064   1.262  53.355  1.00  0.00     0.071 A 
HETATM   12  C21 UNL     1      22.305   0.694  53.331  1.00  0.00     0.097 A 
ENDROOT
BRANCH   4  13
HETATM   13  N2  UNL     1      22.432   3.801  49.509  1.00  0.00    -0.354 N 
HETATM   14  H10 UNL     1      22.390   3.339  48.578  1.00  0.00     0.166 HD
BRANCH  13  15
HETATM   15  C10 UNL     1      23.423   4.773  49.789  1.00  0.00     0.034 A 
HETATM   16  C11 UNL     1      23.183   5.728  50.754  1.00  0.00     0.032 A 
HETATM   17  C12 UNL     1      24.130   6.696  51.055  1.00  0.00     0.046 A 
HETATM   18  C13 UNL     1      25.337   6.690  50.361  1.00  0.00     0.138 A 
HETATM   19  F1  UNL     1      26.241   7.632  50.664  1.00  0.00    -0.204 F 
HETATM   20  C14 UNL     1      25.560   5.725  49.395  1.00  0.00     0.074 A 
HETATM   21 CL1  UNL     1      27.092   5.774  48.564  1.00  0.00    -0.081 Cl
HETATM   22  C15 UNL     1      24.616   4.763  49.098  1.00  0.00     0.056 A 
ENDBRANCH  13  15
ENDBRANCH   4  13
BRANCH   1  23
HETATM   23  N1  UNL     1      24.589   0.410  52.364  1.00  0.00    -0.321 N 
HETATM   24  C5  UNL     1      25.834   0.639  52.980  1.00  0.00     0.245 C 
HETATM   25  O1  UNL     1      25.859   1.560  53.823  1.00  0.00    -0.268 OA
HETATM   26  H8  UNL     1      24.762  -0.395  51.691  1.00  0.00     0.169 HD
BRANCH  24  27
HETATM   27  C4  UNL     1      27.058  -0.084  52.724  1.00  0.00     0.070 C 
HETATM   28  C3  UNL     1      28.070  -0.194  53.571  1.00  0.00    -0.022 C 
BRANCH  28  29
HETATM   29  C2  UNL     1      29.372  -0.895  53.448  1.00  0.00     0.023 C 
HETATM   30  C1  UNL     1      29.230  -2.366  53.218  1.00  0.00     0.009 C 
ENDBRANCH  28  29
ENDBRANCH  24  27
ENDBRANCH   1  23
BRANCH  12  31
HETATM   31  O2  UNL     1      22.519  -0.226  54.318  1.00  0.00    -0.354 OA
HETATM   32  C22 UNL     1      21.780  -1.376  54.589  1.00  0.00     0.210 C 
ENDBRANCH  12  31
TORSDOF 6
ENDMDL
MODEL 5
REMARK VINA RESULT:      -7.9      3.685      6.503
REMARK  6 active torsions:
REMARK  status: ('A' for Active; 'I' for Inactive)
REMARK    1  A    between atoms: C2_2  and  C3_3 
REMARK    2  A    between atoms: C4_4  and  C5_5 
REMARK       I    between atoms: C5_5  and  N1_7 
REMARK    3  A    between atoms: N1_7  and  C6_8 
REMARK    4  A    between atoms: C9_11  and  N2_12 
REMARK    5  A    between atoms: N2_12  and  C10_13 
REMARK    6  A    between atoms: C21_28  and  O2_29 
ROOT
HETATM    1  C6  UNL     1      23.316  -0.422  53.589  1.00  0.00     0.069 A 
HETATM    2  C7  UNL     1      22.571   0.089  52.552  1.00  0.00     0.048 A 
HETATM    3  C8  UNL     1      21.208  -0.056  52.529  1.00  0.00     0.023 A 
HETATM    4  C9  UNL     1      20.486   0.465  51.480  1.00  0.00     0.067 A 
HETATM    5  C16 UNL     1      19.116   0.309  51.473  1.00  0.00     0.089 A 
HETATM    6  C17 UNL     1      18.352   0.848  50.384  1.00  0.00     0.103 C 
HETATM    7  N3  UNL     1      17.750   1.292  49.503  1.00  0.00    -0.191 NA
HETATM    8  C18 UNL     1      18.450  -0.352  52.482  1.00  0.00     0.142 A 
HETATM    9  N4  UNL     1      19.199  -0.844  53.484  1.00  0.00    -0.259 NA
HETATM   10  C19 UNL     1      20.535  -0.714  53.531  1.00  0.00     0.071 A 
HETATM   11  C20 UNL     1      21.251  -1.238  54.583  1.00  0.00     0.071 A 
HETATM   12  C21 UNL     1      22.604  -1.063  54.554  1.00  0.00     0.097 A 
ENDROOT
BRANCH   4  13
HETATM   13  N2  UNL     1      21.113   1.155  50.415  1.00  0.00    -0.354 N 
HETATM   14  H10 UNL     1      21.119   0.717  49.471  1.00  0.00     0.166 HD
BRANCH  13  15
HETATM   15  C10 UNL     1      21.722   2.415  50.631  1.00  0.00     0.034 A 
HETATM   16  C11 UNL     1      21.082   3.352  51.415  1.00  0.00     0.032 A 
HETATM   17  C12 UNL     1      21.648   4.597  51.648  1.00  0.00     0.046 A 
HETATM   18  C13 UNL     1      22.880   4.890  51.072  1.00  0.00     0.138 A 
HETATM   19  F1  UNL     1      23.413   6.097  51.307  1.00  0.00    -0.204 F 
HETATM   20  C14 UNL     1      23.506   3.939  50.287  1.00  0.00     0.074 A 
HETATM   21 CL1  UNL     1      25.048   4.371  49.595  1.00  0.00    -0.081 Cl
HETATM   22  C15 UNL     1      22.942   2.700  50.057  1.00  0.00     0.056 A 
ENDBRANCH  13  15
ENDBRANCH   4  13
BRANCH   1  23
HETATM   23  N1  UNL     1      24.703  -0.212  53.505  1.00  0.00    -0.321 N 
HETATM   24  C5  UNL     1      25.563   0.898  53.401  1.00  0.00     0.245 C 
HETATM   25  O1  UNL     1      25.003   2.014  53.372  1.00  0.00    -0.268 OA
HETATM   26  H8  UNL     1      25.349  -1.057  53.516  1.00  0.00     0.169 HD
BRANCH  24  27
HETATM   27  C4  UNL     1      27.005   0.856  53.327  1.00  0.00     0.070 C 
HETATM   28  C3  UNL     1      27.781   0.045  54.029  1.00  0.00    -0.022 C 
BRANCH  28  29
HETATM   29  C2  UNL     1      29.256  -0.109  54.057  1.00  0.00     0.023 C 
HETATM   30  C1  UNL     1      29.727  -1.396  53.459  1.00  0.00     0.009 C 
ENDBRANCH  28  29
ENDBRANCH  24  27
ENDBRANCH   1  23
BRANCH  12  31
HETATM   31  O2  UNL     1      23.261  -1.604  55.623  1.00  0.00    -0.354 OA
HETATM   32  C22 UNL     1      24.457  -1.174  56.198  1.00  0.00     0.210 C 
ENDBRANCH  12  31
TORSDOF 6
ENDMDL
MODEL 6
REMARK VINA RESULT:      -7.9      3.734      6.126
REMARK  6 active torsions:
REMARK  status: ('A' for Active; 'I' for Inactive)
REMARK    1  A    between atoms: C2_2  and  C3_3 
REMARK    2  A    between atoms: C4_4  and  C5_5 
REMARK       I    between atoms: C5_5  and  N1_7 
REMARK    3  A    between atoms: N1_7  and  C6_8 
REMARK    4  A    between atoms: C9_11  and  N2_12 
REMARK    5  A    between atoms: N2_12  and  C10_13 
REMARK    6  A    between atoms: C21_28  and  O2_29 
ROOT
HETATM    1  C6  UNL     1      20.122   0.257  51.729  1.00  0.00     0.069 A 
HETATM    2  C7  UNL     1      21.481   0.346  51.919  1.00  0.00     0.048 A 
HETATM    3  C8  UNL     1      22.070  -0.199  53.030  1.00  0.00     0.023 A 
HETATM    4  C9  UNL     1      23.433  -0.096  53.197  1.00  0.00     0.067 A 
HETATM    5  C16 UNL     1      24.009  -0.650  54.320  1.00  0.00     0.089 A 
HETATM    6  C17 UNL     1      25.429  -0.548  54.505  1.00  0.00     0.103 C 
HETATM    7  N3  UNL     1      26.574  -0.463  54.638  1.00  0.00    -0.191 NA
HETATM    8  C18 UNL     1      23.265  -1.303  55.278  1.00  0.00     0.142 A 
HETATM    9  N4  UNL     1      21.938  -1.377  55.071  1.00  0.00    -0.259 NA
HETATM   10  C19 UNL     1      21.336  -0.852  53.991  1.00  0.00     0.071 A 
HETATM   11  C20 UNL     1      19.974  -0.959  53.831  1.00  0.00     0.071 A 
HETATM   12  C21 UNL     1      19.440  -0.398  52.706  1.00  0.00     0.097 A 
ENDROOT
BRANCH   4  13
HETATM   13  N2  UNL     1      24.251   0.562  52.247  1.00  0.00    -0.354 N 
HETATM   14  H10 UNL     1      24.950   0.002  51.718  1.00  0.00     0.166 HD
BRANCH  13  15
HETATM   15  C10 UNL     1      24.120   1.954  52.023  1.00  0.00     0.034 A 
HETATM   16  C11 UNL     1      24.026   2.809  53.101  1.00  0.00     0.032 A 
HETATM   17  C12 UNL     1      23.897   4.178  52.919  1.00  0.00     0.046 A 
HETATM   18  C13 UNL     1      23.862   4.681  51.622  1.00  0.00     0.138 A 
HETATM   19  F1  UNL     1      23.737   6.006  51.465  1.00  0.00    -0.204 F 
HETATM   20  C14 UNL     1      23.957   3.808  50.553  1.00  0.00     0.074 A 
HETATM   21 CL1  UNL     1      23.907   4.504  48.954  1.00  0.00    -0.081 Cl
HETATM   22  C15 UNL     1      24.086   2.446  50.736  1.00  0.00     0.056 A 
ENDBRANCH  13  15
ENDBRANCH   4  13
BRANCH   1  23
HETATM   23  N1  UNL     1      19.630   0.853  50.554  1.00  0.00    -0.321 N 
HETATM   24  C5  UNL     1      19.029   2.077  50.204  1.00  0.00     0.245 C 
HETATM   25  O1  UNL     1      18.864   2.885  51.142  1.00  0.00    -0.268 OA
HETATM   26  H8  UNL     1      19.687   0.307  49.643  1.00  0.00     0.169 HD
BRANCH  24  27
HETATM   27  C4  UNL     1      18.596   2.468  48.883  1.00  0.00     0.070 C 
HETATM   28  C3  UNL     1      19.349   3.085  47.986  1.00  0.00    -0.022 C 
BRANCH  28  29
HETATM   29  C2  UNL     1      19.045   3.542  46.608  1.00  0.00     0.023 C 
HETATM   30  C1  UNL     1      20.270   3.830  45.798  1.00  0.00     0.009 C 
ENDBRANCH  28  29
ENDBRANCH  24  27
ENDBRANCH   1  23
BRANCH  12  31
HETATM   31  O2  UNL     1      18.085  -0.535  52.601  1.00  0.00    -0.354 OA
HETATM   32  C22 UNL     1      17.294  -1.586  53.063  1.00  0.00     0.210 C 
ENDBRANCH  12  31
TORSDOF 6
ENDMDL
MODEL 7
REMARK VINA RESULT:      -7.8      3.614      5.690
REMARK  6 active torsions:
REMARK  status: ('A' for Active; 'I' for Inactive)
REMARK    1  A    between atoms: C2_2  and  C3_3 
REMARK    2  A    between atoms: C4_4  and  C5_5 
REMARK       I    between atoms: C5_5  and  N1_7 
REMARK    3  A    between atoms: N1_7  and  C6_8 
REMARK    4  A    between atoms: C9_11  and  N2_12 
REMARK    5  A    between atoms: N2_12  and  C10_13 
REMARK    6  A    between atoms: C21_28  and  O2_29 
ROOT
HETATM    1  C6  UNL     1      26.279   2.805  50.901  1.00  0.00     0.069 A 
HETATM    2  C7  UNL     1      24.960   2.536  50.625  1.00  0.00     0.048 A 
HETATM    3  C8  UNL     1      24.220   1.733  51.453  1.00  0.00     0.023 A 
HETATM    4  C9  UNL     1      22.900   1.479  51.154  1.00  0.00     0.067 A 
HETATM    5  C16 UNL     1      22.171   0.669  51.998  1.00  0.00     0.089 A 
HETATM    6  C17 UNL     1      20.795   0.397  51.697  1.00  0.00     0.103 C 
HETATM    7  N3  UNL     1      19.686   0.191  51.444  1.00  0.00    -0.191 NA
HETATM    8  C18 UNL     1      22.722   0.106  53.130  1.00  0.00     0.142 A 
HETATM    9  N4  UNL     1      24.014   0.383  53.379  1.00  0.00    -0.259 NA
HETATM   10  C19 UNL     1      24.760   1.168  52.584  1.00  0.00     0.071 A 
HETATM   11  C20 UNL     1      26.079   1.417  52.888  1.00  0.00     0.071 A 
HETATM   12  C21 UNL     1      26.767   2.224  52.029  1.00  0.00     0.097 A 
ENDROOT
BRANCH   4  13
HETATM   13  N2  UNL     1      22.279   2.028  50.008  1.00  0.00    -0.354 N 
HETATM   14  H10 UNL     1      21.980   1.386  49.246  1.00  0.00     0.166 HD
BRANCH  13  15
HETATM   15  C10 UNL     1      22.069   3.424  49.899  1.00  0.00     0.034 A 
HETATM   16  C11 UNL     1      21.369   4.084  50.887  1.00  0.00     0.032 A 
HETATM   17  C12 UNL     1      21.144   5.451  50.815  1.00  0.00     0.046 A 
HETATM   18  C13 UNL     1      21.638   6.153  49.719  1.00  0.00     0.138 A 
HETATM   19  F1  UNL     1      21.411   7.473  49.665  1.00  0.00    -0.204 F 
HETATM   20  C14 UNL     1      22.336   5.474  48.737  1.00  0.00     0.074 A 
HETATM   21 CL1  UNL     1      22.927   6.414  47.391  1.00  0.00    -0.081 Cl
HETATM   22  C15 UNL     1      22.559   4.114  48.812  1.00  0.00     0.056 A 
ENDBRANCH  13  15
ENDBRANCH   4  13
BRANCH   1  23
HETATM   23  N1  UNL     1      26.937   3.641  49.981  1.00  0.00    -0.321 N 
HETATM   24  C5  UNL     1      26.730   4.923  49.437  1.00  0.00     0.245 C 
HETATM   25  O1  UNL     1      25.711   5.522  49.840  1.00  0.00    -0.268 OA
HETATM   26  H8  UNL     1      27.835   3.295  49.528  1.00  0.00     0.169 HD
BRANCH  24  27
HETATM   27  C4  UNL     1      27.576   5.588  48.474  1.00  0.00     0.070 C 
HETATM   28  C3  UNL     1      27.418   6.832  48.051  1.00  0.00    -0.022 C 
BRANCH  28  29
HETATM   29  C2  UNL     1      28.198   7.637  47.078  1.00  0.00     0.023 C 
HETATM   30  C1  UNL     1      27.358   8.606  46.307  1.00  0.00     0.009 C 
ENDBRANCH  28  29
ENDBRANCH  24  27
ENDBRANCH   1  23
BRANCH  12  31
HETATM   31  O2  UNL     1      28.070   2.436  52.383  1.00  0.00    -0.354 OA
HETATM   32  C22 UNL     1      28.625   2.402  53.661  1.00  0.00     0.210 C 
ENDBRANCH  12  31
TORSDOF 6
ENDMDL
MODEL 8
REMARK VINA RESULT:      -7.7      3.602      5.609
REMARK  6 active torsions:
REMARK  status: ('A' for Active; 'I' for Inactive)
REMARK    1  A    between atoms: C2_2  and  C3_3 
REMARK    2  A    between atoms: C4_4  and  C5_5 
REMARK       I    between atoms: C5_5  and  N1_7 
REMARK    3  A    between atoms: N1_7  and  C6_8 
REMARK    4  A    between atoms: C9_11  and  N2_12 
REMARK    5  A    between atoms: N2_12  and  C10_13 
REMARK    6  A    between atoms: C21_28  and  O2_29 
ROOT
HETATM    1  C6  UNL     1      24.960   1.059  52.083  1.00  0.00     0.069 A 
HETATM    2  C7  UNL     1      23.616   0.806  51.939  1.00  0.00     0.048 A 
HETATM    3  C8  UNL     1      22.935   0.078  52.880  1.00  0.00     0.023 A 
HETATM    4  C9  UNL     1      21.590  -0.162  52.713  1.00  0.00     0.067 A 
HETATM    5  C16 UNL     1      20.922  -0.896  53.669  1.00  0.00     0.089 A 
HETATM    6  C17 UNL     1      19.519  -1.152  53.505  1.00  0.00     0.103 C 
HETATM    7  N3  UNL     1      18.388  -1.346  53.362  1.00  0.00    -0.191 NA
HETATM    8  C18 UNL     1      21.557  -1.396  54.784  1.00  0.00     0.142 A 
HETATM    9  N4  UNL     1      22.871  -1.137  54.903  1.00  0.00    -0.259 NA
HETATM   10  C19 UNL     1      23.560  -0.426  53.996  1.00  0.00     0.071 A 
HETATM   11  C20 UNL     1      24.905  -0.190  54.169  1.00  0.00     0.071 A 
HETATM   12  C21 UNL     1      25.532   0.541  53.202  1.00  0.00     0.097 A 
ENDROOT
BRANCH   4  13
HETATM   13  N2  UNL     1      20.882   0.326  51.589  1.00  0.00    -0.354 N 
HETATM   14  H10 UNL     1      20.428  -0.357  50.949  1.00  0.00     0.166 HD
BRANCH  13  15
HETATM   15  C10 UNL     1      20.795   1.717  51.339  1.00  0.00     0.034 A 
HETATM   16  C11 UNL     1      20.544   2.580  52.386  1.00  0.00     0.032 A 
HETATM   17  C12 UNL     1      20.451   3.948  52.179  1.00  0.00     0.046 A 
HETATM   18  C13 UNL     1      20.615   4.443  50.888  1.00  0.00     0.138 A 
HETATM   19  F1  UNL     1      20.522   5.767  50.706  1.00  0.00    -0.204 F 
HETATM   20  C14 UNL     1      20.864   3.563  49.851  1.00  0.00     0.074 A 
HETATM   21 CL1  UNL     1      21.058   4.248  48.259  1.00  0.00    -0.081 Cl
HETATM   22  C15 UNL     1      20.956   2.201  50.059  1.00  0.00     0.056 A 
ENDBRANCH  13  15
ENDBRANCH   4  13
BRANCH   1  23
HETATM   23  N1  UNL     1      25.551   1.816  51.055  1.00  0.00    -0.321 N 
HETATM   24  C5  UNL     1      25.293   3.041  50.412  1.00  0.00     0.245 C 
HETATM   25  O1  UNL     1      24.289   3.663  50.817  1.00  0.00    -0.268 OA
HETATM   26  H8  UNL     1      26.428   1.439  50.585  1.00  0.00     0.169 HD
BRANCH  24  27
HETATM   27  C4  UNL     1      26.073   3.625  49.346  1.00  0.00     0.070 C 
HETATM   28  C3  UNL     1      27.128   4.408  49.514  1.00  0.00    -0.022 C 
BRANCH  28  29
HETATM   29  C2  UNL     1      28.015   5.072  48.528  1.00  0.00     0.023 C 
HETATM   30  C1  UNL     1      27.589   6.467  48.197  1.00  0.00     0.009 C 
ENDBRANCH  28  29
ENDBRANCH  24  27
ENDBRANCH   1  23
BRANCH  12  31
HETATM   31  O2  UNL     1      26.865   0.742  53.428  1.00  0.00    -0.354 OA
HETATM   32  C22 UNL     1      27.610   0.360  54.542  1.00  0.00     0.210 C 
ENDBRANCH  12  31
TORSDOF 6
ENDMDL
MODEL 9
REMARK VINA RESULT:      -7.5      3.958      5.893
REMARK  6 active torsions:
REMARK  status: ('A' for Active; 'I' for Inactive)
REMARK    1  A    between atoms: C2_2  and  C3_3 
REMARK    2  A    between atoms: C4_4  and  C5_5 
REMARK       I    between atoms: C5_5  and  N1_7 
REMARK    3  A    between atoms: N1_7  and  C6_8 
REMARK    4  A    between atoms: C9_11  and  N2_12 
REMARK    5  A    between atoms: N2_12  and  C10_13 
REMARK    6  A    between atoms: C21_28  and  O2_29 
ROOT
HETATM    1  C6  UNL     1      24.445   5.006  50.053  1.00  0.00     0.069 A 
HETATM    2  C7  UNL     1      24.061   4.063  50.978  1.00  0.00     0.048 A 
HETATM    3  C8  UNL     1      24.905   3.042  51.330  1.00  0.00     0.023 A 
HETATM    4  C9  UNL     1      24.496   2.111  52.258  1.00  0.00     0.067 A 
HETATM    5  C16 UNL     1      25.358   1.091  52.599  1.00  0.00     0.089 A 
HETATM    6  C17 UNL     1      24.943   0.114  53.566  1.00  0.00     0.103 C 
HETATM    7  N3  UNL     1      24.596  -0.663  54.349  1.00  0.00    -0.191 NA
HETATM    8  C18 UNL     1      26.613   0.974  52.042  1.00  0.00     0.142 A 
HETATM    9  N4  UNL     1      26.966   1.907  51.140  1.00  0.00    -0.259 NA
HETATM   10  C19 UNL     1      26.158   2.918  50.779  1.00  0.00     0.071 A 
HETATM   11  C20 UNL     1      26.573   3.845  49.851  1.00  0.00     0.071 A 
HETATM   12  C21 UNL     1      25.693   4.840  49.538  1.00  0.00     0.097 A 
ENDROOT
BRANCH   4  13
HETATM   13  N2  UNL     1      23.220   2.178  52.865  1.00  0.00    -0.354 N 
HETATM   14  H10 UNL     1      23.153   2.495  53.854  1.00  0.00     0.166 HD
BRANCH  13  15
HETATM   15  C10 UNL     1      22.057   1.818  52.143  1.00  0.00     0.034 A 
HETATM   16  C11 UNL     1      22.092   0.728  51.299  1.00  0.00     0.032 A 
HETATM   17  C12 UNL     1      20.972   0.347  50.575  1.00  0.00     0.046 A 
HETATM   18  C13 UNL     1      19.802   1.087  50.713  1.00  0.00     0.138 A 
HETATM   19  F1  UNL     1      18.729   0.705  50.006  1.00  0.00    -0.204 F 
HETATM   20  C14 UNL     1      19.785   2.178  51.563  1.00  0.00     0.074 A 
HETATM   21 CL1  UNL     1      18.287   3.062  51.689  1.00  0.00    -0.081 Cl
HETATM   22  C15 UNL     1      20.901   2.555  52.282  1.00  0.00     0.056 A 
ENDBRANCH  13  15
ENDBRANCH   4  13
BRANCH   1  23
HETATM   23  N1  UNL     1      23.497   6.006  49.772  1.00  0.00    -0.321 N 
HETATM   24  C5  UNL     1      23.208   7.300  50.244  1.00  0.00     0.245 C 
HETATM   25  O1  UNL     1      23.955   7.724  51.150  1.00  0.00    -0.268 OA
HETATM   26  H8  UNL     1      22.770   5.821  49.018  1.00  0.00     0.169 HD
BRANCH  24  27
HETATM   27  C4  UNL     1      22.143   8.159  49.780  1.00  0.00     0.070 C 
HETATM   28  C3  UNL     1      20.885   8.103  50.189  1.00  0.00    -0.022 C 
BRANCH  28  29
HETATM   29  C2  UNL     1      19.700   8.909  49.806  1.00  0.00     0.023 C 
HETATM   30  C1  UNL     1      20.051  10.272  49.303  1.00  0.00     0.009 C 
ENDBRANCH  28  29
ENDBRANCH  24  27
ENDBRANCH   1  23
BRANCH  12  31
HETATM   31  O2  UNL     1      26.159   5.730  48.612  1.00  0.00    -0.354 OA
HETATM   32  C22 UNL     1      26.839   6.925  48.842  1.00  0.00     0.210 C 
ENDBRANCH  12  31
TORSDOF 6
ENDMDL
