MODEL 1
REMARK VINA RESULT:      -9.2      0.000      0.000
REMARK  2 active torsions:
REMARK  status: ('A' for Active; 'I' for Inactive)
REMARK    1  A    between atoms: O1_1  and  C1_2 
REMARK    2  A    between atoms: C3_5  and  N1_6 
ROOT
HETATM    1  N1  UNL     1      26.458   0.497  53.218  1.00  0.00    -0.289 N 
HETATM    2  C4  UNL     1      25.986   1.655  53.956  1.00  0.00     0.148 C 
HETATM    3  C5  UNL     1      25.541   2.608  52.846  1.00  0.00     0.053 C 
HETATM    4  C6  UNL     1      25.310   1.702  51.657  1.00  0.00     0.062 C 
HETATM    5  C7  UNL     1      26.286   1.987  50.562  1.00  0.00     0.062 C 
HETATM    6  C8  UNL     1      26.478   3.434  50.300  1.00  0.00     0.018 C 
HETATM    7  C9  UNL     1      25.760   4.429  49.801  1.00  0.00     0.112 C 
HETATM    8  F1  UNL     1      26.330   5.676  49.726  1.00  0.00    -0.206 F 
HETATM    9  C10 UNL     1      24.377   4.450  49.276  1.00  0.00     0.043 C 
HETATM   10  C11 UNL     1      23.305   3.692  49.556  1.00  0.00     0.015 C 
HETATM   11  C12 UNL     1      23.036   2.569  50.451  1.00  0.00    -0.026 A 
HETATM   12  C13 UNL     1      21.693   2.366  50.345  1.00  0.00     0.031 A 
HETATM   13  C14 UNL     1      21.094   1.356  51.078  1.00  0.00     0.011 A 
HETATM   14 BR1  UNL     1      19.221   1.144  50.871  1.00  0.00    -0.051 Br
HETATM   15  C15 UNL     1      21.889   0.583  51.897  1.00  0.00     0.020 A 
HETATM   16  C16 UNL     1      23.245   0.816  51.981  1.00  0.00     0.011 A 
HETATM   17  C17 UNL     1      23.889   1.822  51.262  1.00  0.00    -0.023 A 
HETATM   18  N2  UNL     1      25.519   0.362  52.178  1.00  0.00    -0.222 NA
HETATM   19  H15 UNL     1      25.890  -0.215  51.384  1.00  0.00     0.148 HD
ENDROOT
BRANCH   1  20
HETATM   20  C3  UNL     1      27.574  -0.412  53.352  1.00  0.00     0.185 A 
HETATM   21  S1  UNL     1      29.139   0.514  53.672  1.00  0.00    -0.058 SA
HETATM   22  C2  UNL     1      30.138  -1.095  53.745  1.00  0.00     0.111 A 
HETATM   23  C1  UNL     1      29.072  -2.057  53.507  1.00  0.00     0.171 A 
HETATM   24  N3  UNL     1      27.864  -1.564  53.333  1.00  0.00    -0.199 NA
BRANCH  23  25
HETATM   25  O1  UNL     1      29.095  -3.464  53.427  1.00  0.00    -0.344 OA
HETATM   26  H1  UNL     1      30.015  -3.917  53.529  1.00  0.00     0.219 HD
ENDBRANCH  23  25
ENDBRANCH   1  20
TORSDOF 2
ENDMDL
MODEL 2
REMARK VINA RESULT:      -8.8      4.955      7.327
REMARK  2 active torsions:
REMARK  status: ('A' for Active; 'I' for Inactive)
REMARK    1  A    between atoms: O1_1  and  C1_2 
REMARK    2  A    between atoms: C3_5  and  N1_6 
ROOT
HETATM    1  N1  UNL     1      23.603   3.548  50.424  1.00  0.00    -0.289 N 
HETATM    2  C4  UNL     1      23.765   4.143  51.738  1.00  0.00     0.148 C 
HETATM    3  C5  UNL     1      23.450   2.980  52.679  1.00  0.00     0.053 C 
HETATM    4  C6  UNL     1      23.667   1.750  51.827  1.00  0.00     0.062 C 
HETATM    5  C7  UNL     1      22.387   1.013  51.605  1.00  0.00     0.062 C 
HETATM    6  C8  UNL     1      21.567   0.866  52.832  1.00  0.00     0.018 C 
HETATM    7  C9  UNL     1      21.649   0.204  53.976  1.00  0.00     0.112 C 
HETATM    8  F1  UNL     1      20.633   0.343  54.889  1.00  0.00    -0.206 F 
HETATM    9  C10 UNL     1      22.690  -0.715  54.485  1.00  0.00     0.043 C 
HETATM   10  C11 UNL     1      24.007  -0.798  54.233  1.00  0.00     0.015 C 
HETATM   11  C12 UNL     1      24.949  -0.062  53.393  1.00  0.00    -0.026 A 
HETATM   12  C13 UNL     1      26.167  -0.577  53.721  1.00  0.00     0.031 A 
HETATM   13  C14 UNL     1      27.305  -0.092  53.097  1.00  0.00     0.011 A 
HETATM   14 BR1  UNL     1      28.958  -0.864  53.612  1.00  0.00    -0.051 Br
HETATM   15  C15 UNL     1      27.160   0.906  52.156  1.00  0.00     0.020 A 
HETATM   16  C16 UNL     1      25.912   1.404  51.850  1.00  0.00     0.011 A 
HETATM   17  C17 UNL     1      24.741   0.946  52.453  1.00  0.00    -0.023 A 
HETATM   18  N2  UNL     1      24.173   2.268  50.567  1.00  0.00    -0.222 NA
HETATM   19  H15 UNL     1      23.850   1.607  49.819  1.00  0.00     0.148 HD
ENDROOT
BRANCH   1  20
HETATM   20  C3  UNL     1      23.035   3.986  49.169  1.00  0.00     0.185 A 
HETATM   21  S1  UNL     1      22.394   2.549  48.201  1.00  0.00    -0.058 SA
HETATM   22  C2  UNL     1      21.829   3.683  46.793  1.00  0.00     0.111 A 
HETATM   23  C1  UNL     1      22.241   4.970  47.332  1.00  0.00     0.171 A 
HETATM   24  N3  UNL     1      22.821   4.953  48.513  1.00  0.00    -0.199 NA
BRANCH  23  25
HETATM   25  O1  UNL     1      22.130   6.273  46.806  1.00  0.00    -0.344 OA
HETATM   26  H1  UNL     1      21.327   6.834  47.127  1.00  0.00     0.219 HD
ENDBRANCH  23  25
ENDBRANCH   1  20
TORSDOF 2
ENDMDL
MODEL 3
REMARK VINA RESULT:      -8.5      2.268      2.714
REMARK  2 active torsions:
REMARK  status: ('A' for Active; 'I' for Inactive)
REMARK    1  A    between atoms: O1_1  and  C1_2 
REMARK    2  A    between atoms: C3_5  and  N1_6 
ROOT
HETATM    1  N1  UNL     1      25.297   2.250  53.231  1.00  0.00    -0.289 N 
HETATM    2  C4  UNL     1      24.452   3.405  53.473  1.00  0.00     0.148 C 
HETATM    3  C5  UNL     1      23.652   3.519  52.175  1.00  0.00     0.053 C 
HETATM    4  C6  UNL     1      23.739   2.137  51.568  1.00  0.00     0.062 C 
HETATM    5  C7  UNL     1      24.507   2.156  50.287  1.00  0.00     0.062 C 
HETATM    6  C8  UNL     1      24.141   3.281  49.392  1.00  0.00     0.018 C 
HETATM    7  C9  UNL     1      23.091   3.636  48.667  1.00  0.00     0.112 C 
HETATM    8  F1  UNL     1      23.155   4.803  47.947  1.00  0.00    -0.206 F 
HETATM    9  C10 UNL     1      21.783   2.971  48.474  1.00  0.00     0.043 C 
HETATM   10  C11 UNL     1      21.078   2.145  49.263  1.00  0.00     0.015 C 
HETATM   11  C12 UNL     1      21.271   1.564  50.590  1.00  0.00    -0.026 A 
HETATM   12  C13 UNL     1      20.096   0.926  50.854  1.00  0.00     0.031 A 
HETATM   13  C14 UNL     1      19.936   0.257  52.055  1.00  0.00     0.011 A 
HETATM   14 BR1  UNL     1      18.271  -0.603  52.341  1.00  0.00    -0.051 Br
HETATM   15  C15 UNL     1      20.985   0.260  52.951  1.00  0.00     0.020 A 
HETATM   16  C16 UNL     1      22.160   0.916  52.651  1.00  0.00     0.011 A 
HETATM   17  C17 UNL     1      22.364   1.602  51.454  1.00  0.00    -0.023 A 
HETATM   18  N2  UNL     1      24.445   1.349  52.564  1.00  0.00    -0.222 NA
HETATM   19  H15 UNL     1      24.980   0.614  52.041  1.00  0.00     0.148 HD
ENDROOT
BRANCH   1  20
HETATM   20  C3  UNL     1      26.675   1.916  53.518  1.00  0.00     0.185 A 
HETATM   21  S1  UNL     1      27.093   0.241  52.865  1.00  0.00    -0.058 SA
HETATM   22  C2  UNL     1      28.872   0.378  53.503  1.00  0.00     0.111 A 
HETATM   23  C1  UNL     1      28.815   1.701  54.107  1.00  0.00     0.171 A 
HETATM   24  N3  UNL     1      27.662   2.332  54.031  1.00  0.00    -0.199 NA
BRANCH  23  25
HETATM   25  O1  UNL     1      29.797   2.456  54.779  1.00  0.00    -0.344 OA
HETATM   26  H1  UNL     1      29.665   2.588  55.793  1.00  0.00     0.219 HD
ENDBRANCH  23  25
ENDBRANCH   1  20
TORSDOF 2
ENDMDL
MODEL 4
REMARK VINA RESULT:      -8.5      5.224      7.677
REMARK  2 active torsions:
REMARK  status: ('A' for Active; 'I' for Inactive)
REMARK    1  A    between atoms: O1_1  and  C1_2 
REMARK    2  A    between atoms: C3_5  and  N1_6 
ROOT
HETATM    1  N1  UNL     1      22.157   3.056  49.799  1.00  0.00    -0.289 N 
HETATM    2  C4  UNL     1      21.953   3.739  51.063  1.00  0.00     0.148 C 
HETATM    3  C5  UNL     1      21.722   2.586  52.040  1.00  0.00     0.053 C 
HETATM    4  C6  UNL     1      22.340   1.391  51.348  1.00  0.00     0.062 C 
HETATM    5  C7  UNL     1      21.302   0.380  50.985  1.00  0.00     0.062 C 
HETATM    6  C8  UNL     1      20.323   0.120  52.068  1.00  0.00     0.018 C 
HETATM    7  C9  UNL     1      20.333  -0.449  53.264  1.00  0.00     0.112 C 
HETATM    8  F1  UNL     1      19.164  -0.489  53.982  1.00  0.00    -0.206 F 
HETATM    9  C10 UNL     1      21.434  -1.089  54.017  1.00  0.00     0.043 C 
HETATM   10  C11 UNL     1      22.762  -0.892  53.994  1.00  0.00     0.015 C 
HETATM   11  C12 UNL     1      23.667  -0.011  53.258  1.00  0.00    -0.026 A 
HETATM   12  C13 UNL     1      24.886  -0.228  53.826  1.00  0.00     0.031 A 
HETATM   13  C14 UNL     1      25.991   0.462  53.358  1.00  0.00     0.011 A 
HETATM   14 BR1  UNL     1      27.648   0.100  54.205  1.00  0.00    -0.051 Br
HETATM   15  C15 UNL     1      25.814   1.354  52.321  1.00  0.00     0.020 A 
HETATM   16  C16 UNL     1      24.566   1.549  51.770  1.00  0.00     0.011 A 
HETATM   17  C17 UNL     1      23.426   0.876  52.211  1.00  0.00    -0.023 A 
HETATM   18  N2  UNL     1      22.945   1.942  50.147  1.00  0.00    -0.222 NA
HETATM   19  H15 UNL     1      22.906   1.188  49.418  1.00  0.00     0.148 HD
ENDROOT
BRANCH   1  20
HETATM   20  C3  UNL     1      21.745   3.293  48.433  1.00  0.00     0.185 A 
HETATM   21  S1  UNL     1      19.935   3.643  48.346  1.00  0.00    -0.058 SA
HETATM   22  C2  UNL     1      20.012   3.850  46.464  1.00  0.00     0.111 A 
HETATM   23  C1  UNL     1      21.430   3.609  46.248  1.00  0.00     0.171 A 
HETATM   24  N3  UNL     1      22.151   3.349  47.318  1.00  0.00    -0.199 NA
BRANCH  23  25
HETATM   25  O1  UNL     1      22.200   3.603  45.067  1.00  0.00    -0.344 OA
HETATM   26  H1  UNL     1      21.683   3.690  44.179  1.00  0.00     0.219 HD
ENDBRANCH  23  25
ENDBRANCH   1  20
TORSDOF 2
ENDMDL
MODEL 5
REMARK VINA RESULT:      -8.3      4.701      6.627
REMARK  2 active torsions:
REMARK  status: ('A' for Active; 'I' for Inactive)
REMARK    1  A    between atoms: O1_1  and  C1_2 
REMARK    2  A    between atoms: C3_5  and  N1_6 
ROOT
HETATM    1  N1  UNL     1      22.883   4.105  50.718  1.00  0.00    -0.289 N 
HETATM    2  C4  UNL     1      23.154   2.991  49.828  1.00  0.00     0.148 C 
HETATM    3  C5  UNL     1      23.592   1.886  50.789  1.00  0.00     0.053 C 
HETATM    4  C6  UNL     1      23.020   2.312  52.123  1.00  0.00     0.062 C 
HETATM    5  C7  UNL     1      24.103   2.638  53.098  1.00  0.00     0.062 C 
HETATM    6  C8  UNL     1      25.210   1.652  53.106  1.00  0.00     0.018 C 
HETATM    7  C9  UNL     1      25.378   0.391  53.474  1.00  0.00     0.112 C 
HETATM    8  F1  UNL     1      26.615  -0.182  53.310  1.00  0.00    -0.206 F 
HETATM    9  C10 UNL     1      24.426  -0.575  54.067  1.00  0.00     0.043 C 
HETATM   10  C11 UNL     1      23.091  -0.680  53.978  1.00  0.00     0.015 C 
HETATM   11  C12 UNL     1      22.036   0.069  53.297  1.00  0.00    -0.026 A 
HETATM   12  C13 UNL     1      20.909  -0.665  53.512  1.00  0.00     0.031 A 
HETATM   13  C14 UNL     1      19.701  -0.231  52.991  1.00  0.00     0.011 A 
HETATM   14 BR1  UNL     1      18.182  -1.313  53.337  1.00  0.00    -0.051 Br
HETATM   15  C15 UNL     1      19.685   0.942  52.266  1.00  0.00     0.020 A 
HETATM   16  C16 UNL     1      20.845   1.659  52.068  1.00  0.00     0.011 A 
HETATM   17  C17 UNL     1      22.082   1.259  52.573  1.00  0.00    -0.023 A 
HETATM   18  N2  UNL     1      22.243   3.502  51.819  1.00  0.00    -0.222 NA
HETATM   19  H15 UNL     1      22.276   4.109  52.674  1.00  0.00     0.148 HD
ENDROOT
BRANCH   1  20
HETATM   20  C3  UNL     1      23.126   5.530  50.673  1.00  0.00     0.185 A 
HETATM   21  S1  UNL     1      21.597   6.441  50.181  1.00  0.00    -0.058 SA
HETATM   22  C2  UNL     1      22.490   8.107  50.295  1.00  0.00     0.111 A 
HETATM   23  C1  UNL     1      23.813   7.651  50.694  1.00  0.00     0.171 A 
HETATM   24  N3  UNL     1      23.967   6.352  50.839  1.00  0.00    -0.199 NA
BRANCH  23  25
HETATM   25  O1  UNL     1      24.997   8.366  50.962  1.00  0.00    -0.344 OA
HETATM   26  H1  UNL     1      24.934   9.395  50.927  1.00  0.00     0.219 HD
ENDBRANCH  23  25
ENDBRANCH   1  20
TORSDOF 2
ENDMDL
MODEL 6
REMARK VINA RESULT:      -8.3      4.306      5.620
REMARK  2 active torsions:
REMARK  status: ('A' for Active; 'I' for Inactive)
REMARK    1  A    between atoms: O1_1  and  C1_2 
REMARK    2  A    between atoms: C3_5  and  N1_6 
ROOT
HETATM    1  N1  UNL     1      25.348   4.534  50.144  1.00  0.00    -0.289 N 
HETATM    2  C4  UNL     1      24.254   5.184  50.844  1.00  0.00     0.148 C 
HETATM    3  C5  UNL     1      23.050   4.319  50.471  1.00  0.00     0.053 C 
HETATM    4  C6  UNL     1      23.661   3.000  50.055  1.00  0.00     0.062 C 
HETATM    5  C7  UNL     1      23.430   2.731  48.604  1.00  0.00     0.062 C 
HETATM    6  C8  UNL     1      22.045   3.020  48.160  1.00  0.00     0.018 C 
HETATM    7  C9  UNL     1      20.840   2.507  48.357  1.00  0.00     0.112 C 
HETATM    8  F1  UNL     1      19.767   3.094  47.734  1.00  0.00    -0.206 F 
HETATM    9  C10 UNL     1      20.407   1.350  49.171  1.00  0.00     0.043 C 
HETATM   10  C11 UNL     1      20.930   0.788  50.273  1.00  0.00     0.015 C 
HETATM   11  C12 UNL     1      22.095   1.051  51.116  1.00  0.00    -0.026 A 
HETATM   12  C13 UNL     1      21.957   0.188  52.161  1.00  0.00     0.031 A 
HETATM   13  C14 UNL     1      22.909   0.174  53.166  1.00  0.00     0.011 A 
HETATM   14 BR1  UNL     1      22.639  -1.058  54.583  1.00  0.00    -0.051 Br
HETATM   15  C15 UNL     1      23.974   1.044  53.071  1.00  0.00     0.020 A 
HETATM   16  C16 UNL     1      24.082   1.904  51.999  1.00  0.00     0.011 A 
HETATM   17  C17 UNL     1      23.147   1.953  50.965  1.00  0.00    -0.023 A 
HETATM   18  N2  UNL     1      25.081   3.162  50.315  1.00  0.00    -0.222 NA
HETATM   19  H15 UNL     1      25.585   2.572  49.610  1.00  0.00     0.148 HD
ENDROOT
BRANCH   1  20
HETATM   20  C3  UNL     1      26.502   4.994  49.404  1.00  0.00     0.185 A 
HETATM   21  S1  UNL     1      26.268   6.736  48.840  1.00  0.00    -0.058 SA
HETATM   22  C2  UNL     1      27.969   6.751  48.008  1.00  0.00     0.111 A 
HETATM   23  C1  UNL     1      28.408   5.399  48.321  1.00  0.00     0.171 A 
HETATM   24  N3  UNL     1      27.573   4.657  49.016  1.00  0.00    -0.199 NA
BRANCH  23  25
HETATM   25  O1  UNL     1      29.600   4.716  48.007  1.00  0.00    -0.344 OA
HETATM   26  H1  UNL     1      29.544   4.007  47.261  1.00  0.00     0.219 HD
ENDBRANCH  23  25
ENDBRANCH   1  20
TORSDOF 2
ENDMDL
MODEL 7
REMARK VINA RESULT:      -8.1      5.469      7.879
REMARK  2 active torsions:
REMARK  status: ('A' for Active; 'I' for Inactive)
REMARK    1  A    between atoms: O1_1  and  C1_2 
REMARK    2  A    between atoms: C3_5  and  N1_6 
ROOT
HETATM    1  N1  UNL     1      19.606   1.287  51.274  1.00  0.00    -0.289 N 
HETATM    2  C4  UNL     1      19.873   2.219  52.355  1.00  0.00     0.148 C 
HETATM    3  C5  UNL     1      21.158   1.667  52.971  1.00  0.00     0.053 C 
HETATM    4  C6  UNL     1      21.759   0.822  51.870  1.00  0.00     0.062 C 
HETATM    5  C7  UNL     1      21.776  -0.624  52.245  1.00  0.00     0.062 C 
HETATM    6  C8  UNL     1      22.236  -0.871  53.633  1.00  0.00     0.018 C 
HETATM    7  C9  UNL     1      23.372  -0.773  54.307  1.00  0.00     0.112 C 
HETATM    8  F1  UNL     1      23.379  -1.115  55.637  1.00  0.00    -0.206 F 
HETATM    9  C10 UNL     1      24.717  -0.338  53.870  1.00  0.00     0.043 C 
HETATM   10  C11 UNL     1      25.111   0.498  52.897  1.00  0.00     0.015 C 
HETATM   11  C12 UNL     1      24.431   1.310  51.889  1.00  0.00    -0.026 A 
HETATM   12  C13 UNL     1      25.427   2.038  51.313  1.00  0.00     0.031 A 
HETATM   13  C14 UNL     1      25.124   2.929  50.297  1.00  0.00     0.011 A 
HETATM   14 BR1  UNL     1      26.570   3.902  49.551  1.00  0.00    -0.051 Br
HETATM   15  C15 UNL     1      23.807   3.048  49.904  1.00  0.00     0.020 A 
HETATM   16  C16 UNL     1      22.824   2.296  50.510  1.00  0.00     0.011 A 
HETATM   17  C17 UNL     1      23.085   1.387  51.535  1.00  0.00    -0.023 A 
HETATM   18  N2  UNL     1      20.881   1.034  50.732  1.00  0.00    -0.222 NA
HETATM   19  H15 UNL     1      20.901   0.151  50.168  1.00  0.00     0.148 HD
ENDROOT
BRANCH   1  20
HETATM   20  C3  UNL     1      18.419   0.661  50.737  1.00  0.00     0.185 A 
HETATM   21  S1  UNL     1      17.540  -0.307  52.041  1.00  0.00    -0.058 SA
HETATM   22  C2  UNL     1      16.194  -0.834  50.817  1.00  0.00     0.111 A 
HETATM   23  C1  UNL     1      16.673  -0.162  49.619  1.00  0.00     0.171 A 
HETATM   24  N3  UNL     1      17.782   0.536  49.741  1.00  0.00    -0.199 NA
BRANCH  23  25
HETATM   25  O1  UNL     1      16.152  -0.118  48.310  1.00  0.00    -0.344 OA
HETATM   26  H1  UNL     1      15.424  -0.810  48.079  1.00  0.00     0.219 HD
ENDBRANCH  23  25
ENDBRANCH   1  20
TORSDOF 2
ENDMDL
MODEL 8
REMARK VINA RESULT:      -8.1      4.309      5.835
REMARK  2 active torsions:
REMARK  status: ('A' for Active; 'I' for Inactive)
REMARK    1  A    between atoms: O1_1  and  C1_2 
REMARK    2  A    between atoms: C3_5  and  N1_6 
ROOT
HETATM    1  N1  UNL     1      23.571   2.179  50.797  1.00  0.00    -0.289 N 
HETATM    2  C4  UNL     1      23.049   2.496  49.480  1.00  0.00     0.148 C 
HETATM    3  C5  UNL     1      23.039   4.025  49.477  1.00  0.00     0.053 C 
HETATM    4  C6  UNL     1      24.034   4.400  50.552  1.00  0.00     0.062 C 
HETATM    5  C7  UNL     1      23.363   5.086  51.696  1.00  0.00     0.062 C 
HETATM    6  C8  UNL     1      22.380   6.114  51.276  1.00  0.00     0.018 C 
HETATM    7  C9  UNL     1      22.416   7.305  50.696  1.00  0.00     0.112 C 
HETATM    8  F1  UNL     1      21.231   7.962  50.474  1.00  0.00    -0.206 F 
HETATM    9  C10 UNL     1      23.561   8.108  50.215  1.00  0.00     0.043 C 
HETATM   10  C11 UNL     1      24.777   7.752  49.772  1.00  0.00     0.015 C 
HETATM   11  C12 UNL     1      25.479   6.484  49.579  1.00  0.00    -0.026 A 
HETATM   12  C13 UNL     1      26.640   6.832  48.958  1.00  0.00     0.031 A 
HETATM   13  C14 UNL     1      27.556   5.850  48.621  1.00  0.00     0.011 A 
HETATM   14 BR1  UNL     1      29.146   6.422  47.760  1.00  0.00    -0.051 Br
HETATM   15  C15 UNL     1      27.255   4.540  48.932  1.00  0.00     0.020 A 
HETATM   16  C16 UNL     1      26.070   4.224  49.560  1.00  0.00     0.011 A 
HETATM   17  C17 UNL     1      25.119   5.180  49.916  1.00  0.00    -0.023 A 
HETATM   18  N2  UNL     1      24.592   3.130  50.986  1.00  0.00    -0.222 NA
HETATM   19  H15 UNL     1      24.843   3.243  51.998  1.00  0.00     0.148 HD
ENDROOT
BRANCH   1  20
HETATM   20  C3  UNL     1      23.262   1.190  51.806  1.00  0.00     0.185 A 
HETATM   21  S1  UNL     1      24.792   0.654  52.689  1.00  0.00    -0.058 SA
HETATM   22  C2  UNL     1      23.807  -0.537  53.784  1.00  0.00     0.111 A 
HETATM   23  C1  UNL     1      22.469  -0.300  53.263  1.00  0.00     0.171 A 
HETATM   24  N3  UNL     1      22.365   0.580  52.290  1.00  0.00    -0.199 NA
BRANCH  23  25
HETATM   25  O1  UNL     1      21.224  -0.856  53.619  1.00  0.00    -0.344 OA
HETATM   26  H1  UNL     1      21.147  -1.883  53.574  1.00  0.00     0.219 HD
ENDBRANCH  23  25
ENDBRANCH   1  20
TORSDOF 2
ENDMDL
MODEL 9
REMARK VINA RESULT:      -7.9      4.956      6.428
REMARK  2 active torsions:
REMARK  status: ('A' for Active; 'I' for Inactive)
REMARK    1  A    between atoms: O1_1  and  C1_2 
REMARK    2  A    between atoms: C3_5  and  N1_6 
ROOT
HETATM    1  N1  UNL     1      24.541   6.092  50.699  1.00  0.00    -0.289 N 
HETATM    2  C4  UNL     1      23.189   6.270  51.197  1.00  0.00     0.148 C 
HETATM    3  C5  UNL     1      22.422   5.138  50.512  1.00  0.00     0.053 C 
HETATM    4  C6  UNL     1      23.497   4.143  50.136  1.00  0.00     0.062 C 
HETATM    5  C7  UNL     1      23.628   4.022  48.653  1.00  0.00     0.062 C 
HETATM    6  C8  UNL     1      22.327   3.932  47.948  1.00  0.00     0.018 C 
HETATM    7  C9  UNL     1      21.343   3.051  47.845  1.00  0.00     0.112 C 
HETATM    8  F1  UNL     1      20.264   3.361  47.054  1.00  0.00    -0.206 F 
HETATM    9  C10 UNL     1      21.178   1.715  48.457  1.00  0.00     0.043 C 
HETATM   10  C11 UNL     1      21.653   1.192  49.599  1.00  0.00     0.015 C 
HETATM   11  C12 UNL     1      22.498   1.678  50.688  1.00  0.00    -0.026 A 
HETATM   12  C13 UNL     1      22.468   0.677  51.611  1.00  0.00     0.031 A 
HETATM   13  C14 UNL     1      23.178   0.814  52.792  1.00  0.00     0.011 A 
HETATM   14 BR1  UNL     1      23.082  -0.627  54.021  1.00  0.00    -0.051 Br
HETATM   15  C15 UNL     1      23.897   1.974  52.992  1.00  0.00     0.020 A 
HETATM   16  C16 UNL     1      23.904   2.967  52.037  1.00  0.00     0.011 A 
HETATM   17  C17 UNL     1      23.204   2.871  50.834  1.00  0.00    -0.023 A 
HETATM   18  N2  UNL     1      24.715   4.695  50.705  1.00  0.00    -0.222 NA
HETATM   19  H15 UNL     1      25.501   4.393  50.080  1.00  0.00     0.148 HD
ENDROOT
BRANCH   1  20
HETATM   20  C3  UNL     1      25.591   6.983  50.259  1.00  0.00     0.185 A 
HETATM   21  S1  UNL     1      26.587   6.208  48.912  1.00  0.00    -0.058 SA
HETATM   22  C2  UNL     1      27.698   7.736  48.782  1.00  0.00     0.111 A 
HETATM   23  C1  UNL     1      27.092   8.570  49.809  1.00  0.00     0.171 A 
HETATM   24  N3  UNL     1      26.062   8.057  50.448  1.00  0.00    -0.199 NA
BRANCH  23  25
HETATM   25  O1  UNL     1      27.414   9.866  50.261  1.00  0.00    -0.344 OA
HETATM   26  H1  UNL     1      27.893   9.932  51.171  1.00  0.00     0.219 HD
ENDBRANCH  23  25
ENDBRANCH   1  20
TORSDOF 2
ENDMDL
