MODEL 1
REMARK VINA RESULT:      -7.8      0.000      0.000
REMARK  2 active torsions:
REMARK  status: ('A' for Active; 'I' for Inactive)
REMARK       I    between atoms: C2_2  and  N1_4 
REMARK    1  A    between atoms: N2_7  and  C5_8 
REMARK    2  A    between atoms: C7_10  and  N3_11 
ROOT
HETATM    1  C5  UNL     1      23.576  -0.477  53.195  1.00  0.00     0.227 C 
HETATM    2  C6  UNL     1      24.707  -0.732  54.131  1.00  0.00     0.072 C 
HETATM    3  C7  UNL     1      25.584  -0.173  53.039  1.00  0.00     0.237 C 
HETATM    4  C12 UNL     1      24.415   0.559  52.523  1.00  0.00     0.072 C 
ENDROOT
BRANCH   1   5
HETATM    5  N2  UNL     1      22.349  -0.003  53.790  1.00  0.00     0.096 N 
HETATM    6  C4  UNL     1      21.468  -1.030  54.247  1.00  0.00     0.292 C 
HETATM    7  C3  UNL     1      20.043  -0.462  54.199  1.00  0.00     0.156 C 
HETATM    8  N1  UNL     1      19.710  -0.186  52.818  1.00  0.00    -0.349 N 
HETATM    9  C2  UNL     1      18.383  -0.470  52.417  1.00  0.00     0.215 C 
HETATM   10  C14 UNL     1      20.748   0.358  51.947  1.00  0.00     0.156 C 
HETATM   11  C1  UNL     1      17.330  -0.509  51.410  1.00  0.00     0.117 C 
HETATM   12  O1  UNL     1      17.868  -0.914  53.502  1.00  0.00    -0.274 OA
HETATM   13  C13 UNL     1      21.773   0.957  52.887  1.00  0.00     0.292 C 
ENDBRANCH   1   5
BRANCH   3  14
HETATM   14  N3  UNL     1      26.729   0.506  53.394  1.00  0.00     0.214 N 
HETATM   15  C8  UNL     1      27.976   1.257  53.781  1.00  0.00     0.457 A 
HETATM   16  C9  UNL     1      29.410   1.233  54.072  1.00  0.00     0.090 A 
HETATM   17  N5  UNL     1      28.155   2.641  54.080  1.00  0.00    -0.051 NA
HETATM   18  C11 UNL     1      27.865   0.304  53.593  1.00  0.00     0.460 A 
HETATM   19  N4  UNL     1      27.485   1.619  53.748  1.00  0.00     0.265 N 
HETATM   20  C10 UNL     1      29.299  -0.286  53.784  1.00  0.00     0.096 A 
HETATM   21  H15 UNL     1      27.885   3.612  54.219  1.00  0.00     0.161 HD
ENDBRANCH   3  14
TORSDOF 2
ENDMDL
MODEL 2
REMARK VINA RESULT:      -7.6      4.512      7.223
REMARK  2 active torsions:
REMARK  status: ('A' for Active; 'I' for Inactive)
REMARK       I    between atoms: C2_2  and  N1_4 
REMARK    1  A    between atoms: N2_7  and  C5_8 
REMARK    2  A    between atoms: C7_10  and  N3_11 
ROOT
HETATM    1  C5  UNL     1      24.197   1.439  52.020  1.00  0.00     0.227 C 
HETATM    2  C6  UNL     1      25.012   2.527  51.412  1.00  0.00     0.072 C 
HETATM    3  C7  UNL     1      23.693   3.207  51.143  1.00  0.00     0.237 C 
HETATM    4  C12 UNL     1      23.109   2.435  52.254  1.00  0.00     0.072 C 
ENDROOT
BRANCH   1   5
HETATM    5  N2  UNL     1      24.743   0.816  53.202  1.00  0.00     0.096 N 
HETATM    6  C4  UNL     1      25.719   1.596  53.894  1.00  0.00     0.292 C 
HETATM    7  C3  UNL     1      26.641   0.618  54.636  1.00  0.00     0.156 C 
HETATM    8  N1  UNL     1      27.340  -0.182  53.653  1.00  0.00    -0.349 N 
HETATM    9  C2  UNL     1      28.695  -0.484  53.930  1.00  0.00     0.215 C 
HETATM   10  C14 UNL     1      26.613  -0.615  52.464  1.00  0.00     0.156 C 
HETATM   11  C1  UNL     1      29.963  -1.113  53.583  1.00  0.00     0.117 C 
HETATM   12  O1  UNL     1      28.871   0.098  55.057  1.00  0.00    -0.274 OA
HETATM   13  C13 UNL     1      25.150  -0.515  52.841  1.00  0.00     0.292 C 
ENDBRANCH   1   5
BRANCH   3  14
HETATM   14  N3  UNL     1      23.646   4.584  51.153  1.00  0.00     0.214 N 
HETATM   15  C8  UNL     1      23.600   6.089  51.170  1.00  0.00     0.457 A 
HETATM   16  C9  UNL     1      23.002   7.328  50.671  1.00  0.00     0.090 A 
HETATM   17  N5  UNL     1      24.394   7.020  51.906  1.00  0.00    -0.051 NA
HETATM   18  C11 UNL     1      23.059   5.463  50.650  1.00  0.00     0.460 A 
HETATM   19  N4  UNL     1      24.026   5.863  51.545  1.00  0.00     0.265 N 
HETATM   20  C10 UNL     1      22.111   6.388  49.820  1.00  0.00     0.096 A 
HETATM   21  H15 UNL     1      25.119   7.331  52.549  1.00  0.00     0.161 HD
ENDBRANCH   3  14
TORSDOF 2
ENDMDL
MODEL 3
REMARK VINA RESULT:      -7.5      3.142      4.008
REMARK  2 active torsions:
REMARK  status: ('A' for Active; 'I' for Inactive)
REMARK       I    between atoms: C2_2  and  N1_4 
REMARK    1  A    between atoms: N2_7  and  C5_8 
REMARK    2  A    between atoms: C7_10  and  N3_11 
ROOT
HETATM    1  C5  UNL     1      25.284   2.211  52.984  1.00  0.00     0.227 C 
HETATM    2  C6  UNL     1      26.245   1.571  52.043  1.00  0.00     0.072 C 
HETATM    3  C7  UNL     1      26.920   1.034  53.280  1.00  0.00     0.237 C 
HETATM    4  C12 UNL     1      25.640   1.171  53.995  1.00  0.00     0.072 C 
ENDROOT
BRANCH   1   5
HETATM    5  N2  UNL     1      23.902   2.234  52.567  1.00  0.00     0.096 N 
HETATM    6  C4  UNL     1      23.450   1.044  51.921  1.00  0.00     0.292 C 
HETATM    7  C3  UNL     1      22.300   1.442  50.986  1.00  0.00     0.156 C 
HETATM    8  N1  UNL     1      22.828   2.320  49.963  1.00  0.00    -0.349 N 
HETATM    9  C2  UNL     1      22.311   2.152  48.656  1.00  0.00     0.215 C 
HETATM   10  C14 UNL     1      23.840   3.301  50.343  1.00  0.00     0.156 C 
HETATM   11  C1  UNL     1      22.255   2.514  47.245  1.00  0.00     0.117 C 
HETATM   12  O1  UNL     1      21.472   1.199  48.823  1.00  0.00    -0.274 OA
HETATM   13  C13 UNL     1      23.690   3.458  51.841  1.00  0.00     0.292 C 
ENDBRANCH   1   5
BRANCH   3  14
HETATM   14  N3  UNL     1      27.551  -0.188  53.211  1.00  0.00     0.214 N 
HETATM   15  C8  UNL     1      28.233  -1.529  53.133  1.00  0.00     0.457 A 
HETATM   16  C9  UNL     1      29.449  -2.325  53.301  1.00  0.00     0.090 A 
HETATM   17  N5  UNL     1      27.714  -2.797  52.730  1.00  0.00    -0.051 NA
HETATM   18  C11 UNL     1      28.604  -0.665  53.397  1.00  0.00     0.460 A 
HETATM   19  N4  UNL     1      27.645  -1.555  52.967  1.00  0.00     0.265 N 
HETATM   20  C10 UNL     1      30.097  -0.985  53.732  1.00  0.00     0.096 A 
HETATM   21  H15 UNL     1      27.021  -3.462  52.393  1.00  0.00     0.161 HD
ENDBRANCH   3  14
TORSDOF 2
ENDMDL
MODEL 4
REMARK VINA RESULT:      -7.5      2.623      8.045
REMARK  2 active torsions:
REMARK  status: ('A' for Active; 'I' for Inactive)
REMARK       I    between atoms: C2_2  and  N1_4 
REMARK    1  A    between atoms: N2_7  and  C5_8 
REMARK    2  A    between atoms: C7_10  and  N3_11 
ROOT
HETATM    1  C5  UNL     1      22.808   0.614  53.335  1.00  0.00     0.227 C 
HETATM    2  C6  UNL     1      21.886  -0.124  54.242  1.00  0.00     0.072 C 
HETATM    3  C7  UNL     1      20.777   0.487  53.423  1.00  0.00     0.237 C 
HETATM    4  C12 UNL     1      21.727   0.625  52.305  1.00  0.00     0.072 C 
ENDROOT
BRANCH   1   5
HETATM    5  N2  UNL     1      24.022  -0.072  52.962  1.00  0.00     0.096 N 
HETATM    6  C4  UNL     1      24.682  -0.749  54.033  1.00  0.00     0.292 C 
HETATM    7  C3  UNL     1      26.174  -0.815  53.680  1.00  0.00     0.156 C 
HETATM    8  N1  UNL     1      26.691   0.535  53.636  1.00  0.00    -0.349 N 
HETATM    9  C2  UNL     1      27.994   0.732  54.152  1.00  0.00     0.215 C 
HETATM   10  C14 UNL     1      25.848   1.585  53.071  1.00  0.00     0.156 C 
HETATM   11  C1  UNL     1      29.130   1.589  54.468  1.00  0.00     0.117 C 
HETATM   12  O1  UNL     1      28.316  -0.452  54.518  1.00  0.00    -0.274 OA
HETATM   13  C13 UNL     1      24.832   0.855  52.218  1.00  0.00     0.292 C 
ENDBRANCH   1   5
BRANCH   3  14
HETATM   14  N3  UNL     1      19.608  -0.222  53.259  1.00  0.00     0.214 N 
HETATM   15  C8  UNL     1      18.332  -1.004  53.087  1.00  0.00     0.457 A 
HETATM   16  C9  UNL     1      17.123  -1.267  52.306  1.00  0.00     0.090 A 
HETATM   17  N5  UNL     1      17.763  -2.019  53.914  1.00  0.00    -0.051 NA
HETATM   18  C11 UNL     1      18.704  -0.300  52.520  1.00  0.00     0.460 A 
HETATM   19  N4  UNL     1      18.639  -1.165  53.590  1.00  0.00     0.265 N 
HETATM   20  C10 UNL     1      17.659  -0.159  51.366  1.00  0.00     0.096 A 
HETATM   21  H15 UNL     1      17.692  -2.649  54.710  1.00  0.00     0.161 HD
ENDBRANCH   3  14
TORSDOF 2
ENDMDL
MODEL 5
REMARK VINA RESULT:      -7.4      4.124      5.385
REMARK  2 active torsions:
REMARK  status: ('A' for Active; 'I' for Inactive)
REMARK       I    between atoms: C2_2  and  N1_4 
REMARK    1  A    between atoms: N2_7  and  C5_8 
REMARK    2  A    between atoms: C7_10  and  N3_11 
ROOT
HETATM    1  C5  UNL     1      24.552   1.869  52.996  1.00  0.00     0.227 C 
HETATM    2  C6  UNL     1      26.041   1.850  53.031  1.00  0.00     0.072 C 
HETATM    3  C7  UNL     1      25.894   0.494  53.675  1.00  0.00     0.237 C 
HETATM    4  C12 UNL     1      24.570   0.376  53.040  1.00  0.00     0.072 C 
ENDROOT
BRANCH   1   5
HETATM    5  N2  UNL     1      23.948   2.455  51.824  1.00  0.00     0.096 N 
HETATM    6  C4  UNL     1      24.874   2.979  50.870  1.00  0.00     0.292 C 
HETATM    7  C3  UNL     1      24.154   4.098  50.105  1.00  0.00     0.156 C 
HETATM    8  N1  UNL     1      23.841   5.159  51.037  1.00  0.00    -0.349 N 
HETATM    9  C2  UNL     1      23.979   6.484  50.558  1.00  0.00     0.215 C 
HETATM   10  C14 UNL     1      23.412   4.798  52.385  1.00  0.00     0.156 C 
HETATM   11  C1  UNL     1      23.902   7.928  50.745  1.00  0.00     0.117 C 
HETATM   12  O1  UNL     1      24.366   6.292  49.353  1.00  0.00    -0.274 OA
HETATM   13  C13 UNL     1      22.930   3.367  52.272  1.00  0.00     0.292 C 
ENDBRANCH   1   5
BRANCH   3  14
HETATM   14  N3  UNL     1      26.863  -0.456  53.443  1.00  0.00     0.214 N 
HETATM   15  C8  UNL     1      27.917  -1.501  53.188  1.00  0.00     0.457 A 
HETATM   16  C9  UNL     1      29.331  -1.879  53.193  1.00  0.00     0.090 A 
HETATM   17  N5  UNL     1      27.782  -2.836  52.701  1.00  0.00    -0.051 NA
HETATM   18  C11 UNL     1      28.025  -0.585  53.508  1.00  0.00     0.460 A 
HETATM   19  N4  UNL     1      27.354  -1.701  53.062  1.00  0.00     0.265 N 
HETATM   20  C10 UNL     1      29.569  -0.436  53.705  1.00  0.00     0.096 A 
HETATM   21  H15 UNL     1      27.301  -3.662  52.351  1.00  0.00     0.161 HD
ENDBRANCH   3  14
TORSDOF 2
ENDMDL
MODEL 6
REMARK VINA RESULT:      -7.2      5.266      7.432
REMARK  2 active torsions:
REMARK  status: ('A' for Active; 'I' for Inactive)
REMARK       I    between atoms: C2_2  and  N1_4 
REMARK    1  A    between atoms: N2_7  and  C5_8 
REMARK    2  A    between atoms: C7_10  and  N3_11 
ROOT
HETATM    1  C5  UNL     1      25.446   2.430  51.015  1.00  0.00     0.227 C 
HETATM    2  C6  UNL     1      26.538   2.670  50.032  1.00  0.00     0.072 C 
HETATM    3  C7  UNL     1      25.699   3.830  49.557  1.00  0.00     0.237 C 
HETATM    4  C12 UNL     1      25.064   3.868  50.886  1.00  0.00     0.072 C 
ENDROOT
BRANCH   1   5
HETATM    5  N2  UNL     1      25.854   2.005  52.332  1.00  0.00     0.096 N 
HETATM    6  C4  UNL     1      27.208   2.312  52.669  1.00  0.00     0.292 C 
HETATM    7  C3  UNL     1      27.668   1.273  53.700  1.00  0.00     0.156 C 
HETATM    8  N1  UNL     1      27.661  -0.029  53.068  1.00  0.00    -0.349 N 
HETATM    9  C2  UNL     1      28.719  -0.905  53.411  1.00  0.00     0.215 C 
HETATM   10  C14 UNL     1      26.582  -0.345  52.138  1.00  0.00     0.156 C 
HETATM   11  C1  UNL     1      29.412  -2.182  53.295  1.00  0.00     0.117 C 
HETATM   12  O1  UNL     1      29.392  -0.197  54.240  1.00  0.00    -0.274 OA
HETATM   13  C13 UNL     1      25.472   0.626  52.480  1.00  0.00     0.292 C 
ENDBRANCH   1   5
BRANCH   3  14
HETATM   14  N3  UNL     1      26.335   4.945  49.058  1.00  0.00     0.214 N 
HETATM   15  C8  UNL     1      27.022   6.169  48.512  1.00  0.00     0.457 A 
HETATM   16  C9  UNL     1      28.241   6.793  47.997  1.00  0.00     0.090 A 
HETATM   17  N5  UNL     1      26.510   7.483  48.289  1.00  0.00    -0.051 NA
HETATM   18  C11 UNL     1      27.389   5.278  48.673  1.00  0.00     0.460 A 
HETATM   19  N4  UNL     1      26.435   6.271  48.647  1.00  0.00     0.265 N 
HETATM   20  C10 UNL     1      28.883   5.402  48.229  1.00  0.00     0.096 A 
HETATM   21  H15 UNL     1      25.821   8.231  48.283  1.00  0.00     0.161 HD
ENDBRANCH   3  14
TORSDOF 2
ENDMDL
MODEL 7
REMARK VINA RESULT:      -7.2      2.415      3.173
REMARK  2 active torsions:
REMARK  status: ('A' for Active; 'I' for Inactive)
REMARK       I    between atoms: C2_2  and  N1_4 
REMARK    1  A    between atoms: N2_7  and  C5_8 
REMARK    2  A    between atoms: C7_10  and  N3_11 
ROOT
HETATM    1  C5  UNL     1      23.921   1.075  52.532  1.00  0.00     0.227 C 
HETATM    2  C6  UNL     1      25.280   1.062  51.923  1.00  0.00     0.072 C 
HETATM    3  C7  UNL     1      25.725   0.417  53.212  1.00  0.00     0.237 C 
HETATM    4  C12 UNL     1      24.344  -0.056  53.411  1.00  0.00     0.072 C 
ENDROOT
BRANCH   1   5
HETATM    5  N2  UNL     1      22.819   0.800  51.642  1.00  0.00     0.096 N 
HETATM    6  C4  UNL     1      22.633   1.761  50.602  1.00  0.00     0.292 C 
HETATM    7  C3  UNL     1      21.147   1.732  50.216  1.00  0.00     0.156 C 
HETATM    8  N1  UNL     1      20.372   2.169  51.357  1.00  0.00    -0.349 N 
HETATM    9  C2  UNL     1      19.249   2.986  51.084  1.00  0.00     0.215 C 
HETATM   10  C14 UNL     1      20.793   1.744  52.688  1.00  0.00     0.156 C 
HETATM   11  C1  UNL     1      18.092   3.759  51.519  1.00  0.00     0.117 C 
HETATM   12  O1  UNL     1      19.290   3.076  49.808  1.00  0.00    -0.274 OA
HETATM   13  C13 UNL     1      21.663   0.527  52.454  1.00  0.00     0.292 C 
ENDBRANCH   1   5
BRANCH   3  14
HETATM   14  N3  UNL     1      26.769  -0.480  53.176  1.00  0.00     0.214 N 
HETATM   15  C8  UNL     1      27.905  -1.468  53.135  1.00  0.00     0.457 A 
HETATM   16  C9  UNL     1      29.329  -1.744  53.325  1.00  0.00     0.090 A 
HETATM   17  N5  UNL     1      27.905  -2.847  52.767  1.00  0.00    -0.051 NA
HETATM   18  C11 UNL     1      27.922  -0.521  53.376  1.00  0.00     0.460 A 
HETATM   19  N4  UNL     1      27.372  -1.717  52.970  1.00  0.00     0.265 N 
HETATM   20  C10 UNL     1      29.422  -0.248  53.719  1.00  0.00     0.096 A 
HETATM   21  H15 UNL     1      27.516  -3.732  52.448  1.00  0.00     0.161 HD
ENDBRANCH   3  14
TORSDOF 2
ENDMDL
MODEL 8
REMARK VINA RESULT:      -7.2      3.895      4.670
REMARK  2 active torsions:
REMARK  status: ('A' for Active; 'I' for Inactive)
REMARK       I    between atoms: C2_2  and  N1_4 
REMARK    1  A    between atoms: N2_7  and  C5_8 
REMARK    2  A    between atoms: C7_10  and  N3_11 
ROOT
HETATM    1  C5  UNL     1      23.483   2.002  52.494  1.00  0.00     0.227 C 
HETATM    2  C6  UNL     1      24.460   2.921  53.143  1.00  0.00     0.072 C 
HETATM    3  C7  UNL     1      25.236   1.672  53.480  1.00  0.00     0.237 C 
HETATM    4  C12 UNL     1      24.582   1.002  52.342  1.00  0.00     0.072 C 
ENDROOT
BRANCH   1   5
HETATM    5  N2  UNL     1      22.885   2.469  51.267  1.00  0.00     0.096 N 
HETATM    6  C4  UNL     1      23.711   3.337  50.489  1.00  0.00     0.292 C 
HETATM    7  C3  UNL     1      22.779   4.236  49.666  1.00  0.00     0.156 C 
HETATM    8  N1  UNL     1      22.019   5.062  50.580  1.00  0.00    -0.349 N 
HETATM    9  C2  UNL     1      21.786   6.399  50.181  1.00  0.00     0.215 C 
HETATM   10  C14 UNL     1      21.554   4.469  51.830  1.00  0.00     0.156 C 
HETATM   11  C1  UNL     1      21.223   7.724  50.411  1.00  0.00     0.117 C 
HETATM   12  O1  UNL     1      22.371   6.443  49.043  1.00  0.00    -0.274 OA
HETATM   13  C13 UNL     1      21.577   2.975  51.588  1.00  0.00     0.292 C 
ENDBRANCH   1   5
BRANCH   3  14
HETATM   14  N3  UNL     1      26.609   1.745  53.548  1.00  0.00     0.214 N 
HETATM   15  C8  UNL     1      28.111   1.833  53.618  1.00  0.00     0.457 A 
HETATM   16  C9  UNL     1      29.379   1.248  54.055  1.00  0.00     0.090 A 
HETATM   17  N5  UNL     1      28.992   2.845  53.130  1.00  0.00    -0.051 NA
HETATM   18  C11 UNL     1      27.519   1.140  53.969  1.00  0.00     0.460 A 
HETATM   19  N4  UNL     1      27.862   2.310  53.329  1.00  0.00     0.265 N 
HETATM   20  C10 UNL     1      28.494   0.116  54.635  1.00  0.00     0.096 A 
HETATM   21  H15 UNL     1      29.259   3.717  52.677  1.00  0.00     0.161 HD
ENDBRANCH   3  14
TORSDOF 2
ENDMDL
MODEL 9
REMARK VINA RESULT:      -7.1      2.982      3.302
REMARK  2 active torsions:
REMARK  status: ('A' for Active; 'I' for Inactive)
REMARK       I    between atoms: C2_2  and  N1_4 
REMARK    1  A    between atoms: N2_7  and  C5_8 
REMARK    2  A    between atoms: C7_10  and  N3_11 
ROOT
HETATM    1  C5  UNL     1      24.695   2.548  50.836  1.00  0.00     0.227 C 
HETATM    2  C6  UNL     1      24.993   1.577  51.925  1.00  0.00     0.072 C 
HETATM    3  C7  UNL     1      26.432   1.714  51.496  1.00  0.00     0.237 C 
HETATM    4  C12 UNL     1      26.102   3.037  50.937  1.00  0.00     0.072 C 
ENDROOT
BRANCH   1   5
HETATM    5  N2  UNL     1      23.670   3.525  51.115  1.00  0.00     0.096 N 
HETATM    6  C4  UNL     1      22.899   3.268  52.289  1.00  0.00     0.292 C 
HETATM    7  C3  UNL     1      21.524   3.919  52.084  1.00  0.00     0.156 C 
HETATM    8  N1  UNL     1      20.867   3.256  50.978  1.00  0.00    -0.349 N 
HETATM    9  C2  UNL     1      19.474   3.042  51.106  1.00  0.00     0.215 C 
HETATM   10  C14 UNL     1      21.672   2.860  49.827  1.00  0.00     0.156 C 
HETATM   11  C1  UNL     1      18.203   2.544  50.594  1.00  0.00     0.117 C 
HETATM   12  O1  UNL     1      19.231   3.551  52.255  1.00  0.00    -0.274 OA
HETATM   13  C13 UNL     1      22.916   3.719  49.905  1.00  0.00     0.292 C 
ENDBRANCH   1   5
BRANCH   3  14
HETATM   14  N3  UNL     1      27.420   1.588  52.447  1.00  0.00     0.214 N 
HETATM   15  C8  UNL     1      28.502   1.459  53.488  1.00  0.00     0.457 A 
HETATM   16  C9  UNL     1      29.356   0.594  54.303  1.00  0.00     0.090 A 
HETATM   17  N5  UNL     1      29.207   2.472  54.204  1.00  0.00    -0.051 NA
HETATM   18  C11 UNL     1      28.016   0.755  53.014  1.00  0.00     0.460 A 
HETATM   19  N4  UNL     1      28.363   2.041  53.365  1.00  0.00     0.265 N 
HETATM   20  C10 UNL     1      28.623  -0.568  53.585  1.00  0.00     0.096 A 
HETATM   21  H15 UNL     1      29.459   3.416  54.488  1.00  0.00     0.161 HD
ENDBRANCH   3  14
TORSDOF 2
ENDMDL
