MODEL 1
REMARK VINA RESULT:      -8.4      0.000      0.000
REMARK  4 active torsions:
REMARK  status: ('A' for Active; 'I' for Inactive)
REMARK    1  A    between atoms: N1_1  and  C1_2 
REMARK    2  A    between atoms: C2_4  and  N3_5 
REMARK    3  A    between atoms: N3_5  and  C3_6 
REMARK    4  A    between atoms: N4_16  and  C12_17 
ROOT
HETATM    1  C1  UNL     1      23.068  -0.638  54.347  1.00  0.00     0.724 A 
HETATM    2  N2  UNL     1      24.339  -0.735  53.858  1.00  0.00    -0.044 NA
HETATM    3  C2  UNL     1      24.773   0.087  52.885  1.00  0.00     0.161 A 
HETATM    4  C9  UNL     1      23.912   1.036  52.384  1.00  0.00     0.059 A 
HETATM    5  C10 UNL     1      24.052   1.998  51.408  1.00  0.00     0.036 A 
HETATM    6  C11 UNL     1      22.855   2.685  51.301  1.00  0.00     0.095 A 
HETATM    7  N4  UNL     1      22.016   2.139  52.205  1.00  0.00    -0.327 N 
HETATM    8  C17 UNL     1      22.629   1.145  52.868  1.00  0.00     0.164 A 
HETATM    9  N5  UNL     1      22.249   0.300  53.838  1.00  0.00    -0.044 NA
ENDROOT
BRANCH   3  10
HETATM   10  N3  UNL     1      26.109  -0.098  52.441  1.00  0.00    -0.339 N 
HETATM   11  H3  UNL     1      25.950   0.069  51.408  1.00  0.00     0.167 HD
BRANCH  10  12
HETATM   12  C3  UNL     1      27.420  -0.395  52.860  1.00  0.00     0.051 A 
HETATM   13  C4  UNL     1      27.649  -1.777  52.766  1.00  0.00     0.031 A 
HETATM   14  C5  UNL     1      28.875  -2.337  53.127  1.00  0.00     0.002 A 
HETATM   15  C6  UNL     1      29.810  -1.443  53.569  1.00  0.00     0.002 A 
HETATM   16  C7  UNL     1      29.668  -0.080  53.691  1.00  0.00     0.021 A 
HETATM   17  C8  UNL     1      28.446   0.396  53.321  1.00  0.00     0.037 A 
HETATM   18 BR1  UNL     1      28.045   2.239  53.420  1.00  0.00    -0.049 Br
ENDBRANCH  10  12
ENDBRANCH   3  10
BRANCH   1  19
HETATM   19  N1  UNL     1      22.707  -1.555  55.375  1.00  0.00    -0.231 N 
HETATM   20  H1  UNL     1      21.809  -1.782  55.881  1.00  0.00     0.174 HD
HETATM   21  H2  UNL     1      23.336  -2.233  55.858  1.00  0.00     0.174 HD
ENDBRANCH   1  19
BRANCH   7  22
HETATM   22  C12 UNL     1      20.690   2.637  52.339  1.00  0.00     0.158 A 
HETATM   23  C13 UNL     1      20.434   3.980  51.837  1.00  0.00     0.004 A 
HETATM   24  C14 UNL     1      19.448   3.960  50.932  1.00  0.00    -0.000 A 
HETATM   25  C15 UNL     1      18.974   2.592  50.767  1.00  0.00     0.021 A 
HETATM   26  C16 UNL     1      19.683   1.817  51.574  1.00  0.00     0.038 A 
HETATM   27 CL1  UNL     1      19.415   0.094  51.668  1.00  0.00    -0.086 Cl
ENDBRANCH   7  22
TORSDOF 4
ENDMDL
MODEL 2
REMARK VINA RESULT:      -8.3      2.952      7.094
REMARK  4 active torsions:
REMARK  status: ('A' for Active; 'I' for Inactive)
REMARK    1  A    between atoms: N1_1  and  C1_2 
REMARK    2  A    between atoms: C2_4  and  N3_5 
REMARK    3  A    between atoms: N3_5  and  C3_6 
REMARK    4  A    between atoms: N4_16  and  C12_17 
ROOT
HETATM    1  C1  UNL     1      23.378  -0.566  54.182  1.00  0.00     0.724 A 
HETATM    2  N2  UNL     1      22.774   0.285  53.302  1.00  0.00    -0.044 NA
HETATM    3  C2  UNL     1      23.499   1.071  52.485  1.00  0.00     0.161 A 
HETATM    4  C9  UNL     1      24.873   1.004  52.548  1.00  0.00     0.059 A 
HETATM    5  C10 UNL     1      25.869   1.666  51.865  1.00  0.00     0.036 A 
HETATM    6  C11 UNL     1      27.090   1.214  52.334  1.00  0.00     0.095 A 
HETATM    7  N4  UNL     1      26.822   0.295  53.283  1.00  0.00    -0.327 N 
HETATM    8  C17 UNL     1      25.495   0.151  53.430  1.00  0.00     0.164 A 
HETATM    9  N5  UNL     1      24.722  -0.609  54.221  1.00  0.00    -0.044 NA
ENDROOT
BRANCH   3  10
HETATM   10  N3  UNL     1      22.777   1.924  51.612  1.00  0.00    -0.339 N 
HETATM   11  H3  UNL     1      22.156   2.389  52.332  1.00  0.00     0.167 HD
BRANCH  10  12
HETATM   12  C3  UNL     1      22.623   2.317  50.268  1.00  0.00     0.051 A 
HETATM   13  C4  UNL     1      21.962   1.309  49.550  1.00  0.00     0.031 A 
HETATM   14  C5  UNL     1      21.688   1.446  48.189  1.00  0.00     0.002 A 
HETATM   15  C6  UNL     1      22.109   2.621  47.630  1.00  0.00     0.002 A 
HETATM   16  C7  UNL     1      22.761   3.656  48.261  1.00  0.00     0.021 A 
HETATM   17  C8  UNL     1      22.995   3.453  49.588  1.00  0.00     0.037 A 
HETATM   18 BR1  UNL     1      23.883   4.750  50.633  1.00  0.00    -0.049 Br
ENDBRANCH  10  12
ENDBRANCH   3  10
BRANCH   1  19
HETATM   19  N1  UNL     1      22.520  -1.352  55.002  1.00  0.00    -0.231 N 
HETATM   20  H1  UNL     1      21.576  -1.803  54.865  1.00  0.00     0.174 HD
HETATM   21  H2  UNL     1      22.695  -1.650  55.987  1.00  0.00     0.174 HD
ENDBRANCH   1  19
BRANCH   7  22
HETATM   22  C12 UNL     1      27.885  -0.362  53.962  1.00  0.00     0.158 A 
HETATM   23  C13 UNL     1      28.351  -1.623  53.399  1.00  0.00     0.004 A 
HETATM   24  C14 UNL     1      29.662  -1.561  53.136  1.00  0.00    -0.000 A 
HETATM   25  C15 UNL     1      30.166  -0.246  53.509  1.00  0.00     0.021 A 
HETATM   26  C16 UNL     1      29.151   0.457  53.988  1.00  0.00     0.038 A 
HETATM   27 CL1  UNL     1      29.348   2.100  54.546  1.00  0.00    -0.086 Cl
ENDBRANCH   7  22
TORSDOF 4
ENDMDL
MODEL 3
REMARK VINA RESULT:      -8.0      3.699      5.928
REMARK  4 active torsions:
REMARK  status: ('A' for Active; 'I' for Inactive)
REMARK    1  A    between atoms: N1_1  and  C1_2 
REMARK    2  A    between atoms: C2_4  and  N3_5 
REMARK    3  A    between atoms: N3_5  and  C3_6 
REMARK    4  A    between atoms: N4_16  and  C12_17 
ROOT
HETATM    1  C1  UNL     1      22.435   2.273  49.129  1.00  0.00     0.724 A 
HETATM    2  N2  UNL     1      23.210   3.398  49.169  1.00  0.00    -0.044 NA
HETATM    3  C2  UNL     1      23.960   3.686  50.248  1.00  0.00     0.161 A 
HETATM    4  C9  UNL     1      23.939   2.824  51.321  1.00  0.00     0.059 A 
HETATM    5  C10 UNL     1      24.576   2.842  52.542  1.00  0.00     0.036 A 
HETATM    6  C11 UNL     1      24.186   1.719  53.251  1.00  0.00     0.095 A 
HETATM    7  N4  UNL     1      23.329   1.042  52.459  1.00  0.00    -0.327 N 
HETATM    8  C17 UNL     1      23.164   1.688  51.293  1.00  0.00     0.164 A 
HETATM    9  N5  UNL     1      22.435   1.450  50.193  1.00  0.00    -0.044 NA
ENDROOT
BRANCH   3  10
HETATM   10  N3  UNL     1      24.724   4.880  50.194  1.00  0.00    -0.339 N 
HETATM   11  H3  UNL     1      24.188   5.437  50.917  1.00  0.00     0.167 HD
BRANCH  10  12
HETATM   12  C3  UNL     1      25.825   5.505  49.576  1.00  0.00     0.051 A 
HETATM   13  C4  UNL     1      26.747   4.534  49.153  1.00  0.00     0.031 A 
HETATM   14  C5  UNL     1      27.934   4.890  48.513  1.00  0.00     0.002 A 
HETATM   15  C6  UNL     1      28.116   6.234  48.338  1.00  0.00     0.002 A 
HETATM   16  C7  UNL     1      27.267   7.246  48.721  1.00  0.00     0.021 A 
HETATM   17  C8  UNL     1      26.128   6.825  49.340  1.00  0.00     0.037 A 
HETATM   18 BR1  UNL     1      24.834   8.058  49.950  1.00  0.00    -0.049 Br
ENDBRANCH  10  12
ENDBRANCH   3  10
BRANCH   1  19
HETATM   19  N1  UNL     1      21.678   2.061  47.942  1.00  0.00    -0.231 N 
HETATM   20  H1  UNL     1      21.862   1.572  47.025  1.00  0.00     0.174 HD
HETATM   21  H2  UNL     1      20.706   2.390  47.753  1.00  0.00     0.174 HD
ENDBRANCH   1  19
BRANCH   7  22
HETATM   22  C12 UNL     1      22.747  -0.174  52.913  1.00  0.00     0.158 A 
HETATM   23  C13 UNL     1      23.426  -0.866  54.001  1.00  0.00     0.004 A 
HETATM   24  C14 UNL     1      22.590  -1.049  55.031  1.00  0.00    -0.000 A 
HETATM   25  C15 UNL     1      21.286  -0.489  54.698  1.00  0.00     0.021 A 
HETATM   26  C16 UNL     1      21.363   0.020  53.478  1.00  0.00     0.038 A 
HETATM   27 CL1  UNL     1      19.996   0.791  52.713  1.00  0.00    -0.086 Cl
ENDBRANCH   7  22
TORSDOF 4
ENDMDL
MODEL 4
REMARK VINA RESULT:      -8.0      2.917      7.633
REMARK  4 active torsions:
REMARK  status: ('A' for Active; 'I' for Inactive)
REMARK    1  A    between atoms: N1_1  and  C1_2 
REMARK    2  A    between atoms: C2_4  and  N3_5 
REMARK    3  A    between atoms: N3_5  and  C3_6 
REMARK    4  A    between atoms: N4_16  and  C12_17 
ROOT
HETATM    1  C1  UNL     1      24.105   2.754  50.806  1.00  0.00     0.724 A 
HETATM    2  N2  UNL     1      22.900   2.485  51.392  1.00  0.00    -0.044 NA
HETATM    3  C2  UNL     1      22.799   1.591  52.392  1.00  0.00     0.161 A 
HETATM    4  C9  UNL     1      23.935   0.944  52.822  1.00  0.00     0.059 A 
HETATM    5  C10 UNL     1      24.154  -0.004  53.797  1.00  0.00     0.036 A 
HETATM    6  C11 UNL     1      25.502  -0.315  53.805  1.00  0.00     0.095 A 
HETATM    7  N4  UNL     1      26.077   0.440  52.847  1.00  0.00    -0.327 N 
HETATM    8  C17 UNL     1      25.154   1.206  52.242  1.00  0.00     0.164 A 
HETATM    9  N5  UNL     1      25.198   2.107  51.249  1.00  0.00    -0.044 NA
ENDROOT
BRANCH   3  10
HETATM   10  N3  UNL     1      21.503   1.378  52.929  1.00  0.00    -0.339 N 
HETATM   11  H3  UNL     1      21.585   2.006  53.777  1.00  0.00     0.167 HD
BRANCH  10  12
HETATM   12  C3  UNL     1      20.286   0.695  52.740  1.00  0.00     0.051 A 
HETATM   13  C4  UNL     1      19.447   1.441  51.898  1.00  0.00     0.031 A 
HETATM   14  C5  UNL     1      18.174   0.987  51.553  1.00  0.00     0.002 A 
HETATM   15  C6  UNL     1      17.824  -0.219  52.093  1.00  0.00     0.002 A 
HETATM   16  C7  UNL     1      18.584  -1.011  52.923  1.00  0.00     0.021 A 
HETATM   17  C8  UNL     1      19.815  -0.505  53.217  1.00  0.00     0.037 A 
HETATM   18 BR1  UNL     1      21.009  -1.436  54.346  1.00  0.00    -0.049 Br
ENDBRANCH  10  12
ENDBRANCH   3  10
BRANCH   1  19
HETATM   19  N1  UNL     1      24.104   3.715  49.757  1.00  0.00    -0.231 N 
HETATM   20  H1  UNL     1      23.997   3.665  48.708  1.00  0.00     0.174 HD
HETATM   21  H2  UNL     1      24.223   4.748  49.853  1.00  0.00     0.174 HD
ENDBRANCH   1  19
BRANCH   7  22
HETATM   22  C12 UNL     1      27.476   0.347  52.608  1.00  0.00     0.158 A 
HETATM   23  C13 UNL     1      28.329   1.312  53.289  1.00  0.00     0.004 A 
HETATM   24  C14 UNL     1      29.253   0.680  54.024  1.00  0.00    -0.000 A 
HETATM   25  C15 UNL     1      29.080  -0.760  53.881  1.00  0.00     0.021 A 
HETATM   26  C16 UNL     1      28.057  -0.966  53.066  1.00  0.00     0.038 A 
HETATM   27 CL1  UNL     1      27.527  -2.575  52.641  1.00  0.00    -0.086 Cl
ENDBRANCH   7  22
TORSDOF 4
ENDMDL
MODEL 5
REMARK VINA RESULT:      -8.0      5.279      6.919
REMARK  4 active torsions:
REMARK  status: ('A' for Active; 'I' for Inactive)
REMARK    1  A    between atoms: N1_1  and  C1_2 
REMARK    2  A    between atoms: C2_4  and  N3_5 
REMARK    3  A    between atoms: N3_5  and  C3_6 
REMARK    4  A    between atoms: N4_16  and  C12_17 
ROOT
HETATM    1  C1  UNL     1      23.688   5.892  51.032  1.00  0.00     0.724 A 
HETATM    2  N2  UNL     1      23.702   4.537  51.212  1.00  0.00    -0.044 NA
HETATM    3  C2  UNL     1      24.680   3.777  50.688  1.00  0.00     0.161 A 
HETATM    4  C9  UNL     1      25.678   4.387  49.962  1.00  0.00     0.059 A 
HETATM    5  C10 UNL     1      26.788   3.896  49.311  1.00  0.00     0.036 A 
HETATM    6  C11 UNL     1      27.455   4.960  48.729  1.00  0.00     0.095 A 
HETATM    7  N4  UNL     1      26.750   6.068  49.032  1.00  0.00    -0.327 N 
HETATM    8  C17 UNL     1      25.677   5.749  49.773  1.00  0.00     0.164 A 
HETATM    9  N5  UNL     1      24.676   6.459  50.317  1.00  0.00    -0.044 NA
ENDROOT
BRANCH   3  10
HETATM   10  N3  UNL     1      24.601   2.380  50.927  1.00  0.00    -0.339 N 
HETATM   11  H3  UNL     1      24.038   2.112  50.072  1.00  0.00     0.167 HD
BRANCH  10  12
HETATM   12  C3  UNL     1      24.973   1.350  51.812  1.00  0.00     0.051 A 
HETATM   13  C4  UNL     1      26.340   1.067  51.664  1.00  0.00     0.031 A 
HETATM   14  C5  UNL     1      26.963   0.077  52.425  1.00  0.00     0.002 A 
HETATM   15  C6  UNL     1      26.145  -0.576  53.306  1.00  0.00     0.002 A 
HETATM   16  C7  UNL     1      24.802  -0.360  53.511  1.00  0.00     0.021 A 
HETATM   17  C8  UNL     1      24.261   0.621  52.734  1.00  0.00     0.037 A 
HETATM   18 BR1  UNL     1      22.430   1.066  52.858  1.00  0.00    -0.049 Br
ENDBRANCH  10  12
ENDBRANCH   3  10
BRANCH   1  19
HETATM   19  N1  UNL     1      22.608   6.604  51.626  1.00  0.00    -0.231 N 
HETATM   20  H1  UNL     1      21.874   7.271  51.264  1.00  0.00     0.174 HD
HETATM   21  H2  UNL     1      22.325   6.589  52.630  1.00  0.00     0.174 HD
ENDBRANCH   1  19
BRANCH   7  22
HETATM   22  C12 UNL     1      27.188   7.341  48.572  1.00  0.00     0.158 A 
HETATM   23  C13 UNL     1      28.585   7.454  48.171  1.00  0.00     0.004 A 
HETATM   24  C14 UNL     1      28.674   7.890  46.909  1.00  0.00    -0.000 A 
HETATM   25  C15 UNL     1      27.334   8.101  46.376  1.00  0.00     0.021 A 
HETATM   26  C16 UNL     1      26.466   7.787  47.326  1.00  0.00     0.038 A 
HETATM   27 CL1  UNL     1      24.742   7.905  47.075  1.00  0.00    -0.086 Cl
ENDBRANCH   7  22
TORSDOF 4
ENDMDL
MODEL 6
REMARK VINA RESULT:      -8.0      2.338      3.505
REMARK  4 active torsions:
REMARK  status: ('A' for Active; 'I' for Inactive)
REMARK    1  A    between atoms: N1_1  and  C1_2 
REMARK    2  A    between atoms: C2_4  and  N3_5 
REMARK    3  A    between atoms: N3_5  and  C3_6 
REMARK    4  A    between atoms: N4_16  and  C12_17 
ROOT
HETATM    1  C1  UNL     1      26.225   3.505  50.061  1.00  0.00     0.724 A 
HETATM    2  N2  UNL     1      26.750   2.736  51.060  1.00  0.00    -0.044 NA
HETATM    3  C2  UNL     1      25.977   1.888  51.764  1.00  0.00     0.161 A 
HETATM    4  C9  UNL     1      24.637   1.805  51.461  1.00  0.00     0.059 A 
HETATM    5  C10 UNL     1      23.609   1.056  51.989  1.00  0.00     0.036 A 
HETATM    6  C11 UNL     1      22.447   1.373  51.306  1.00  0.00     0.095 A 
HETATM    7  N4  UNL     1      22.783   2.297  50.384  1.00  0.00    -0.327 N 
HETATM    8  C17 UNL     1      24.095   2.574  50.458  1.00  0.00     0.164 A 
HETATM    9  N5  UNL     1      24.911   3.402  49.789  1.00  0.00    -0.044 NA
ENDROOT
BRANCH   3  10
HETATM   10  N3  UNL     1      26.617   1.138  52.784  1.00  0.00    -0.339 N 
HETATM   11  H3  UNL     1      26.109   1.549  53.616  1.00  0.00     0.167 HD
BRANCH  10  12
HETATM   12  C3  UNL     1      27.586   0.148  53.036  1.00  0.00     0.051 A 
HETATM   13  C4  UNL     1      27.115  -1.101  52.602  1.00  0.00     0.031 A 
HETATM   14  C5  UNL     1      27.884  -2.256  52.741  1.00  0.00     0.002 A 
HETATM   15  C6  UNL     1      29.107  -2.070  53.323  1.00  0.00     0.002 A 
HETATM   16  C7  UNL     1      29.642  -0.886  53.775  1.00  0.00     0.021 A 
HETATM   17  C8  UNL     1      28.836   0.200  53.607  1.00  0.00     0.037 A 
HETATM   18 BR1  UNL     1      29.383   1.919  54.166  1.00  0.00    -0.049 Br
ENDBRANCH  10  12
ENDBRANCH   3  10
BRANCH   1  19
HETATM   19  N1  UNL     1      27.127   4.369  49.379  1.00  0.00    -0.231 N 
HETATM   20  H1  UNL     1      27.621   4.335  48.447  1.00  0.00     0.174 HD
HETATM   21  H2  UNL     1      27.496   5.284  49.719  1.00  0.00     0.174 HD
ENDBRANCH   1  19
BRANCH   7  22
HETATM   22  C12 UNL     1      21.792   2.828  49.512  1.00  0.00     0.158 A 
HETATM   23  C13 UNL     1      20.895   1.875  48.872  1.00  0.00     0.004 A 
HETATM   24  C14 UNL     1      19.620   2.172  49.153  1.00  0.00    -0.000 A 
HETATM   25  C15 UNL     1      19.578   3.354  50.005  1.00  0.00     0.021 A 
HETATM   26  C16 UNL     1      20.826   3.743  50.220  1.00  0.00     0.038 A 
HETATM   27 CL1  UNL     1      21.200   5.136  51.205  1.00  0.00    -0.086 Cl
ENDBRANCH   7  22
TORSDOF 4
ENDMDL
MODEL 7
REMARK VINA RESULT:      -7.9      2.498      3.568
REMARK  4 active torsions:
REMARK  status: ('A' for Active; 'I' for Inactive)
REMARK    1  A    between atoms: N1_1  and  C1_2 
REMARK    2  A    between atoms: C2_4  and  N3_5 
REMARK    3  A    between atoms: N3_5  and  C3_6 
REMARK    4  A    between atoms: N4_16  and  C12_17 
ROOT
HETATM    1  C1  UNL     1      26.185   3.439  50.294  1.00  0.00     0.724 A 
HETATM    2  N2  UNL     1      26.628   2.500  51.182  1.00  0.00    -0.044 NA
HETATM    3  C2  UNL     1      25.768   1.687  51.821  1.00  0.00     0.161 A 
HETATM    4  C9  UNL     1      24.421   1.813  51.566  1.00  0.00     0.059 A 
HETATM    5  C10 UNL     1      23.316   1.150  52.051  1.00  0.00     0.036 A 
HETATM    6  C11 UNL     1      22.190   1.690  51.454  1.00  0.00     0.095 A 
HETATM    7  N4  UNL     1      22.622   2.661  50.624  1.00  0.00    -0.327 N 
HETATM    8  C17 UNL     1      23.961   2.754  50.674  1.00  0.00     0.164 A 
HETATM    9  N5  UNL     1      24.863   3.539  50.066  1.00  0.00    -0.044 NA
ENDROOT
BRANCH   3  10
HETATM   10  N3  UNL     1      26.328   0.749  52.728  1.00  0.00    -0.339 N 
HETATM   11  H3  UNL     1      25.514   0.685  53.401  1.00  0.00     0.167 HD
BRANCH  10  12
HETATM   12  C3  UNL     1      27.466  -0.032  53.003  1.00  0.00     0.051 A 
HETATM   13  C4  UNL     1      27.210  -1.375  52.686  1.00  0.00     0.031 A 
HETATM   14  C5  UNL     1      28.177  -2.363  52.871  1.00  0.00     0.002 A 
HETATM   15  C6  UNL     1      29.367  -1.920  53.376  1.00  0.00     0.002 A 
HETATM   16  C7  UNL     1      29.699  -0.627  53.712  1.00  0.00     0.021 A 
HETATM   17  C8  UNL     1      28.706   0.284  53.505  1.00  0.00     0.037 A 
HETATM   18 BR1  UNL     1      28.958   2.111  53.910  1.00  0.00    -0.049 Br
ENDBRANCH  10  12
ENDBRANCH   3  10
BRANCH   1  19
HETATM   19  N1  UNL     1      27.177   4.249  49.673  1.00  0.00    -0.231 N 
HETATM   20  H1  UNL     1      27.976   4.061  49.010  1.00  0.00     0.174 HD
HETATM   21  H2  UNL     1      27.298   5.280  49.778  1.00  0.00     0.174 HD
ENDBRANCH   1  19
BRANCH   7  22
HETATM   22  C12 UNL     1      21.689   3.411  49.856  1.00  0.00     0.158 A 
HETATM   23  C13 UNL     1      21.522   4.816  50.206  1.00  0.00     0.004 A 
HETATM   24  C14 UNL     1      21.762   5.593  49.144  1.00  0.00    -0.000 A 
HETATM   25  C15 UNL     1      22.107   4.755  48.002  1.00  0.00     0.021 A 
HETATM   26  C16 UNL     1      22.068   3.493  48.400  1.00  0.00     0.038 A 
HETATM   27 CL1  UNL     1      22.425   2.173  47.314  1.00  0.00    -0.086 Cl
ENDBRANCH   7  22
TORSDOF 4
ENDMDL
MODEL 8
REMARK VINA RESULT:      -7.7      3.613      5.378
REMARK  4 active torsions:
REMARK  status: ('A' for Active; 'I' for Inactive)
REMARK    1  A    between atoms: N1_1  and  C1_2 
REMARK    2  A    between atoms: C2_4  and  N3_5 
REMARK    3  A    between atoms: N3_5  and  C3_6 
REMARK    4  A    between atoms: N4_16  and  C12_17 
ROOT
HETATM    1  C1  UNL     1      25.649   1.936  52.975  1.00  0.00     0.724 A 
HETATM    2  N2  UNL     1      26.097   2.682  51.922  1.00  0.00    -0.044 NA
HETATM    3  C2  UNL     1      25.361   2.818  50.805  1.00  0.00     0.161 A 
HETATM    4  C9  UNL     1      24.138   2.190  50.735  1.00  0.00     0.059 A 
HETATM    5  C10 UNL     1      23.175   2.135  49.751  1.00  0.00     0.036 A 
HETATM    6  C11 UNL     1      22.133   1.348  50.209  1.00  0.00     0.095 A 
HETATM    7  N4  UNL     1      22.472   0.943  51.449  1.00  0.00    -0.327 N 
HETATM    8  C17 UNL     1      23.674   1.437  51.787  1.00  0.00     0.164 A 
HETATM    9  N5  UNL     1      24.450   1.334  52.877  1.00  0.00    -0.044 NA
ENDROOT
BRANCH   3  10
HETATM   10  N3  UNL     1      25.917   3.608  49.766  1.00  0.00    -0.339 N 
HETATM   11  H3  UNL     1      26.000   2.854  49.028  1.00  0.00     0.167 HD
BRANCH  10  12
HETATM   12  C3  UNL     1      26.347   4.905  49.422  1.00  0.00     0.051 A 
HETATM   13  C4  UNL     1      27.542   4.832  48.689  1.00  0.00     0.031 A 
HETATM   14  C5  UNL     1      28.184   5.982  48.230  1.00  0.00     0.002 A 
HETATM   15  C6  UNL     1      27.562   7.157  48.548  1.00  0.00     0.002 A 
HETATM   16  C7  UNL     1      26.395   7.315  49.260  1.00  0.00     0.021 A 
HETATM   17  C8  UNL     1      25.824   6.150  49.676  1.00  0.00     0.037 A 
HETATM   18 BR1  UNL     1      24.221   6.151  50.674  1.00  0.00    -0.049 Br
ENDBRANCH  10  12
ENDBRANCH   3  10
BRANCH   1  19
HETATM   19  N1  UNL     1      26.504   1.854  54.110  1.00  0.00    -0.231 N 
HETATM   20  H1  UNL     1      27.438   2.276  54.364  1.00  0.00     0.174 HD
HETATM   21  H2  UNL     1      26.339   1.303  54.981  1.00  0.00     0.174 HD
ENDBRANCH   1  19
BRANCH   7  22
HETATM   22  C12 UNL     1      21.592   0.109  52.193  1.00  0.00     0.158 A 
HETATM   23  C13 UNL     1      22.200  -0.812  53.145  1.00  0.00     0.004 A 
HETATM   24  C14 UNL     1      21.708  -0.606  54.373  1.00  0.00    -0.000 A 
HETATM   25  C15 UNL     1      20.729   0.473  54.325  1.00  0.00     0.021 A 
HETATM   26  C16 UNL     1      20.652   0.895  53.072  1.00  0.00     0.038 A 
HETATM   27 CL1  UNL     1      19.581   2.191  52.600  1.00  0.00    -0.086 Cl
ENDBRANCH   7  22
TORSDOF 4
ENDMDL
MODEL 9
REMARK VINA RESULT:      -7.6      2.127      2.525
REMARK  4 active torsions:
REMARK  status: ('A' for Active; 'I' for Inactive)
REMARK    1  A    between atoms: N1_1  and  C1_2 
REMARK    2  A    between atoms: C2_4  and  N3_5 
REMARK    3  A    between atoms: N3_5  and  C3_6 
REMARK    4  A    between atoms: N4_16  and  C12_17 
ROOT
HETATM    1  C1  UNL     1      22.521  -0.515  53.622  1.00  0.00     0.724 A 
HETATM    2  N2  UNL     1      23.798  -0.748  54.050  1.00  0.00    -0.044 NA
HETATM    3  C2  UNL     1      24.788   0.125  53.789  1.00  0.00     0.161 A 
HETATM    4  C9  UNL     1      24.496   1.267  53.080  1.00  0.00     0.059 A 
HETATM    5  C10 UNL     1      25.272   2.325  52.659  1.00  0.00     0.036 A 
HETATM    6  C11 UNL     1      24.461   3.210  51.969  1.00  0.00     0.095 A 
HETATM    7  N4  UNL     1      23.220   2.683  51.981  1.00  0.00    -0.327 N 
HETATM    8  C17 UNL     1      23.216   1.515  52.643  1.00  0.00     0.164 A 
HETATM    9  N5  UNL     1      22.267   0.611  52.931  1.00  0.00    -0.044 NA
ENDROOT
BRANCH   3  10
HETATM   10  N3  UNL     1      26.079  -0.212  54.272  1.00  0.00    -0.339 N 
HETATM   11  H3  UNL     1      25.787  -0.685  55.173  1.00  0.00     0.167 HD
BRANCH  10  12
HETATM   12  C3  UNL     1      27.458  -0.140  53.992  1.00  0.00     0.051 A 
HETATM   13  C4  UNL     1      27.998   1.025  54.558  1.00  0.00     0.031 A 
HETATM   14  C5  UNL     1      29.351   1.339  54.422  1.00  0.00     0.002 A 
HETATM   15  C6  UNL     1      30.085   0.434  53.707  1.00  0.00     0.002 A 
HETATM   16  C7  UNL     1      29.634  -0.726  53.121  1.00  0.00     0.021 A 
HETATM   17  C8  UNL     1      28.305  -0.969  53.294  1.00  0.00     0.037 A 
HETATM   18 BR1  UNL     1      27.488  -2.506  52.563  1.00  0.00    -0.049 Br
ENDBRANCH  10  12
ENDBRANCH   3  10
BRANCH   1  19
HETATM   19  N1  UNL     1      21.548  -1.500  53.949  1.00  0.00    -0.231 N 
HETATM   20  H1  UNL     1      20.494  -1.511  53.996  1.00  0.00     0.174 HD
HETATM   21  H2  UNL     1      21.728  -2.489  54.231  1.00  0.00     0.174 HD
ENDBRANCH   1  19
BRANCH   7  22
HETATM   22  C12 UNL     1      22.148   3.369  51.345  1.00  0.00     0.158 A 
HETATM   23  C13 UNL     1      21.728   4.633  51.936  1.00  0.00     0.004 A 
HETATM   24  C14 UNL     1      21.798   5.617  51.031  1.00  0.00    -0.000 A 
HETATM   25  C15 UNL     1      22.270   5.073  49.764  1.00  0.00     0.021 A 
HETATM   26  C16 UNL     1      22.477   3.776  49.932  1.00  0.00     0.038 A 
HETATM   27 CL1  UNL     1      23.053   2.759  48.634  1.00  0.00    -0.086 Cl
ENDBRANCH   7  22
TORSDOF 4
ENDMDL
