MODEL 1
REMARK VINA RESULT:      -7.6      0.000      0.000
REMARK  6 active torsions:
REMARK  status: ('A' for Active; 'I' for Inactive)
REMARK    1  A    between atoms: N1_1  and  C1_2 
REMARK    2  A    between atoms: C1_2  and  N2_4 
REMARK    3  A    between atoms: N2_4  and  C2_5 
REMARK    4  A    between atoms: C2_5  and  C3_6 
REMARK    5  A    between atoms: C4_7  and  C5_8 
REMARK    6  A    between atoms: C15_19  and  N3_20 
ROOT
HETATM    1  C2  UNL     1      25.805   1.875  52.488  1.00  0.00     0.102 A 
HETATM    2  C11 UNL     1      25.605   0.451  52.861  1.00  0.00     0.010 A 
HETATM    3  C12 UNL     1      24.503  -0.195  53.208  1.00  0.00    -0.001 A 
HETATM    4  C13 UNL     1      23.251   0.549  53.247  1.00  0.00    -0.002 A 
HETATM    5  C14 UNL     1      23.336   1.829  52.916  1.00  0.00     0.011 A 
HETATM    6  C15 UNL     1      24.496   2.659  52.502  1.00  0.00     0.276 A 
ENDROOT
BRANCH   1   7
HETATM    7  N2  UNL     1      26.581   2.423  53.631  1.00  0.00    -0.353 N 
HETATM    8  H3  UNL     1      26.288   2.949  54.482  1.00  0.00     0.163 HD
BRANCH   7   9
HETATM    9  C1  UNL     1      27.967   2.210  53.581  1.00  0.00     0.144 C 
HETATM   10  S1  UNL     1      28.785   0.946  54.161  1.00  0.00    -0.048 SA
BRANCH   9  11
HETATM   11  N1  UNL     1      29.043   2.964  53.049  1.00  0.00    -0.279 NA
HETATM   12  H1  UNL     1      30.024   3.073  53.388  1.00  0.00     0.126 HD
HETATM   13  H2  UNL     1      30.026   3.089  53.366  1.00  0.00     0.126 HD
ENDBRANCH   9  11
ENDBRANCH   7   9
ENDBRANCH   1   7
BRANCH   1  14
HETATM   14  C3  UNL     1      26.474   2.098  51.210  1.00  0.00     0.011 C 
HETATM   15  C4  UNL     1      26.497   2.797  50.120  1.00  0.00     0.013 C 
BRANCH  15  16
HETATM   16  C5  UNL     1      25.676   3.891  49.621  1.00  0.00     0.002 A 
HETATM   17  C6  UNL     1      26.054   5.203  49.458  1.00  0.00     0.014 A 
HETATM   18  C7  UNL     1      25.287   6.234  48.993  1.00  0.00     0.001 A 
HETATM   19  C8  UNL     1      23.990   5.953  48.641  1.00  0.00     0.003 A 
HETATM   20  C9  UNL     1      23.526   4.668  48.769  1.00  0.00     0.043 A 
HETATM   21  C10 UNL     1      24.366   3.690  49.248  1.00  0.00     0.126 A 
HETATM   22  F1  UNL     1      23.850   2.443  49.352  1.00  0.00    -0.205 F 
ENDBRANCH  15  16
ENDBRANCH   1  14
BRANCH   6  23
HETATM   23  N3  UNL     1      24.576   3.838  53.348  1.00  0.00     0.089 N 
HETATM   24  H15 UNL     1      23.926   4.566  53.035  1.00  0.00     0.313 HD
HETATM   25  H16 UNL     1      25.543   4.120  53.548  1.00  0.00     0.313 HD
ENDBRANCH   6  23
TORSDOF 6
ENDMDL
MODEL 2
REMARK VINA RESULT:      -7.6      2.674      5.219
REMARK  6 active torsions:
REMARK  status: ('A' for Active; 'I' for Inactive)
REMARK    1  A    between atoms: N1_1  and  C1_2 
REMARK    2  A    between atoms: C1_2  and  N2_4 
REMARK    3  A    between atoms: N2_4  and  C2_5 
REMARK    4  A    between atoms: C2_5  and  C3_6 
REMARK    5  A    between atoms: C4_7  and  C5_8 
REMARK    6  A    between atoms: C15_19  and  N3_20 
ROOT
HETATM    1  C2  UNL     1      25.954   1.884  52.389  1.00  0.00     0.102 A 
HETATM    2  C11 UNL     1      26.164   0.636  51.611  1.00  0.00     0.010 A 
HETATM    3  C12 UNL     1      26.717  -0.512  51.969  1.00  0.00    -0.001 A 
HETATM    4  C13 UNL     1      27.215  -0.641  53.333  1.00  0.00    -0.002 A 
HETATM    5  C14 UNL     1      27.057   0.425  54.102  1.00  0.00     0.011 A 
HETATM    6  C15 UNL     1      26.451   1.752  53.826  1.00  0.00     0.276 A 
ENDROOT
BRANCH   1   7
HETATM    7  N2  UNL     1      26.893   2.845  51.755  1.00  0.00    -0.353 N 
HETATM    8  H3  UNL     1      27.798   3.249  52.078  1.00  0.00     0.163 HD
BRANCH   7   9
HETATM    9  C1  UNL     1      26.517   3.315  50.487  1.00  0.00     0.144 C 
HETATM   10  S1  UNL     1      25.475   4.500  50.151  1.00  0.00    -0.048 SA
BRANCH   9  11
HETATM   11  N1  UNL     1      26.888   2.946  49.170  1.00  0.00    -0.279 NA
HETATM   12  H1  UNL     1      26.757   2.046  48.658  1.00  0.00     0.126 HD
HETATM   13  H2  UNL     1      26.770   2.060  48.639  1.00  0.00     0.126 HD
ENDBRANCH   9  11
ENDBRANCH   7   9
ENDBRANCH   1   7
BRANCH   1  14
HETATM   14  C3  UNL     1      24.583   2.383  52.408  1.00  0.00     0.011 C 
HETATM   15  C4  UNL     1      23.350   2.123  52.712  1.00  0.00     0.013 C 
BRANCH  15  16
HETATM   16  C5  UNL     1      22.693   0.958  53.288  1.00  0.00     0.002 A 
HETATM   17  C6  UNL     1      23.290  -0.200  53.724  1.00  0.00     0.014 A 
HETATM   18  C7  UNL     1      22.678  -1.297  54.264  1.00  0.00     0.001 A 
HETATM   19  C8  UNL     1      21.313  -1.260  54.396  1.00  0.00     0.003 A 
HETATM   20  C9  UNL     1      20.630  -0.142  53.988  1.00  0.00     0.043 A 
HETATM   21  C10 UNL     1      21.327   0.918  53.455  1.00  0.00     0.126 A 
HETATM   22  F1  UNL     1      20.597   1.992  53.070  1.00  0.00    -0.205 F 
ENDBRANCH  15  16
ENDBRANCH   1  14
BRANCH   6  23
HETATM   23  N3  UNL     1      27.395   2.800  54.173  1.00  0.00     0.089 N 
HETATM   24  H15 UNL     1      26.972   3.729  54.083  1.00  0.00     0.313 HD
HETATM   25  H16 UNL     1      28.321   2.657  53.752  1.00  0.00     0.313 HD
ENDBRANCH   6  23
TORSDOF 6
ENDMDL
MODEL 3
REMARK VINA RESULT:      -7.5      3.262      5.160
REMARK  6 active torsions:
REMARK  status: ('A' for Active; 'I' for Inactive)
REMARK    1  A    between atoms: N1_1  and  C1_2 
REMARK    2  A    between atoms: C1_2  and  N2_4 
REMARK    3  A    between atoms: N2_4  and  C2_5 
REMARK    4  A    between atoms: C2_5  and  C3_6 
REMARK    5  A    between atoms: C4_7  and  C5_8 
REMARK    6  A    between atoms: C15_19  and  N3_20 
ROOT
HETATM    1  C2  UNL     1      23.563   2.747  51.483  1.00  0.00     0.102 A 
HETATM    2  C11 UNL     1      23.315   2.114  52.804  1.00  0.00     0.010 A 
HETATM    3  C12 UNL     1      22.613   1.037  53.118  1.00  0.00    -0.001 A 
HETATM    4  C13 UNL     1      21.957   0.304  52.042  1.00  0.00    -0.002 A 
HETATM    5  C14 UNL     1      22.136   0.795  50.825  1.00  0.00     0.011 A 
HETATM    6  C15 UNL     1      22.900   1.975  50.346  1.00  0.00     0.276 A 
ENDROOT
BRANCH   1   7
HETATM    7  N2  UNL     1      22.801   4.020  51.563  1.00  0.00    -0.353 N 
HETATM    8  H3  UNL     1      21.816   4.258  51.320  1.00  0.00     0.163 HD
BRANCH   7   9
HETATM    9  C1  UNL     1      23.516   5.125  52.054  1.00  0.00     0.144 C 
HETATM   10  S1  UNL     1      24.030   6.407  51.220  1.00  0.00    -0.048 SA
BRANCH   9  11
HETATM   11  N1  UNL     1      23.994   5.473  53.342  1.00  0.00    -0.279 NA
HETATM   12  H1  UNL     1      24.306   4.867  54.133  1.00  0.00     0.126 HD
HETATM   13  H2  UNL     1      24.309   4.891  54.145  1.00  0.00     0.126 HD
ENDBRANCH   9  11
ENDBRANCH   7   9
ENDBRANCH   1   7
BRANCH   1  14
HETATM   14  C3  UNL     1      24.967   2.964  51.149  1.00  0.00     0.011 C 
HETATM   15  C4  UNL     1      26.182   2.536  51.290  1.00  0.00     0.013 C 
BRANCH  15  16
HETATM   16  C5  UNL     1      26.762   1.407  52.003  1.00  0.00     0.002 A 
HETATM   17  C6  UNL     1      26.361   0.093  51.942  1.00  0.00     0.014 A 
HETATM   18  C7  UNL     1      26.901  -0.970  52.610  1.00  0.00     0.001 A 
HETATM   19  C8  UNL     1      27.966  -0.724  53.440  1.00  0.00     0.003 A 
HETATM   20  C9  UNL     1      28.436   0.559  53.563  1.00  0.00     0.043 A 
HETATM   21  C10 UNL     1      27.832   1.571  52.854  1.00  0.00     0.126 A 
HETATM   22  F1  UNL     1      28.341   2.815  53.018  1.00  0.00    -0.205 F 
ENDBRANCH  15  16
ENDBRANCH   1  14
BRANCH   6  23
HETATM   23  N3  UNL     1      22.034   2.821  49.545  1.00  0.00     0.089 N 
HETATM   24  H15 UNL     1      21.609   2.297  48.773  1.00  0.00     0.313 HD
HETATM   25  H16 UNL     1      22.459   3.730  49.322  1.00  0.00     0.313 HD
ENDBRANCH   6  23
TORSDOF 6
ENDMDL
MODEL 4
REMARK VINA RESULT:      -7.3      1.857      4.888
REMARK  6 active torsions:
REMARK  status: ('A' for Active; 'I' for Inactive)
REMARK    1  A    between atoms: N1_1  and  C1_2 
REMARK    2  A    between atoms: C1_2  and  N2_4 
REMARK    3  A    between atoms: N2_4  and  C2_5 
REMARK    4  A    between atoms: C2_5  and  C3_6 
REMARK    5  A    between atoms: C4_7  and  C5_8 
REMARK    6  A    between atoms: C15_19  and  N3_20 
ROOT
HETATM    1  C2  UNL     1      25.478   2.073  52.529  1.00  0.00     0.102 A 
HETATM    2  C11 UNL     1      24.527   2.877  53.339  1.00  0.00     0.010 A 
HETATM    3  C12 UNL     1      23.715   3.859  52.980  1.00  0.00    -0.001 A 
HETATM    4  C13 UNL     1      23.697   4.261  51.579  1.00  0.00    -0.002 A 
HETATM    5  C14 UNL     1      24.509   3.586  50.781  1.00  0.00     0.011 A 
HETATM    6  C15 UNL     1      25.451   2.470  51.055  1.00  0.00     0.276 A 
ENDROOT
BRANCH   1   7
HETATM    7  N2  UNL     1      26.808   2.524  53.012  1.00  0.00    -0.353 N 
HETATM    8  H3  UNL     1      27.337   3.411  52.868  1.00  0.00     0.163 HD
BRANCH   7   9
HETATM    9  C1  UNL     1      27.506   1.606  53.814  1.00  0.00     0.144 C 
HETATM   10  S1  UNL     1      28.958   0.965  53.530  1.00  0.00    -0.048 SA
BRANCH   9  11
HETATM   11  N1  UNL     1      27.206   0.976  55.047  1.00  0.00    -0.279 NA
HETATM   12  H1  UNL     1      26.978   1.389  55.979  1.00  0.00     0.126 HD
HETATM   13  H2  UNL     1      26.977   1.363  55.986  1.00  0.00     0.126 HD
ENDBRANCH   9  11
ENDBRANCH   7   9
ENDBRANCH   1   7
BRANCH   1  14
HETATM   14  C3  UNL     1      25.315   0.627  52.630  1.00  0.00     0.011 C 
HETATM   15  C4  UNL     1      24.492  -0.347  52.863  1.00  0.00     0.013 C 
BRANCH  15  16
HETATM   16  C5  UNL     1      23.074  -0.393  53.191  1.00  0.00     0.002 A 
HETATM   17  C6  UNL     1      22.497  -0.975  54.295  1.00  0.00     0.014 A 
HETATM   18  C7  UNL     1      21.167  -1.023  54.607  1.00  0.00     0.001 A 
HETATM   19  C8  UNL     1      20.289  -0.430  53.735  1.00  0.00     0.003 A 
HETATM   20  C9  UNL     1      20.775   0.177  52.605  1.00  0.00     0.043 A 
HETATM   21  C10 UNL     1      22.130   0.178  52.368  1.00  0.00     0.126 A 
HETATM   22  F1  UNL     1      22.547   0.792  51.235  1.00  0.00    -0.205 F 
ENDBRANCH  15  16
ENDBRANCH   1  14
BRANCH   6  23
HETATM   23  N3  UNL     1      26.771   2.815  50.560  1.00  0.00     0.089 N 
HETATM   24  H15 UNL     1      27.155   3.627  51.055  1.00  0.00     0.313 HD
HETATM   25  H16 UNL     1      26.824   2.818  49.534  1.00  0.00     0.313 HD
ENDBRANCH   6  23
TORSDOF 6
ENDMDL
MODEL 5
REMARK VINA RESULT:      -7.0      2.758      5.353
REMARK  6 active torsions:
REMARK  status: ('A' for Active; 'I' for Inactive)
REMARK    1  A    between atoms: N1_1  and  C1_2 
REMARK    2  A    between atoms: C1_2  and  N2_4 
REMARK    3  A    between atoms: N2_4  and  C2_5 
REMARK    4  A    between atoms: C2_5  and  C3_6 
REMARK    5  A    between atoms: C4_7  and  C5_8 
REMARK    6  A    between atoms: C15_19  and  N3_20 
ROOT
HETATM    1  C2  UNL     1      24.989   2.736  51.714  1.00  0.00     0.102 A 
HETATM    2  C11 UNL     1      26.318   2.167  51.373  1.00  0.00     0.010 A 
HETATM    3  C12 UNL     1      27.288   1.728  52.160  1.00  0.00    -0.001 A 
HETATM    4  C13 UNL     1      27.082   1.779  53.602  1.00  0.00    -0.002 A 
HETATM    5  C14 UNL     1      25.914   2.264  53.995  1.00  0.00     0.011 A 
HETATM    6  C15 UNL     1      24.753   2.772  53.222  1.00  0.00     0.276 A 
ENDROOT
BRANCH   1   7
HETATM    7  N2  UNL     1      25.117   4.164  51.322  1.00  0.00    -0.353 N 
HETATM    8  H3  UNL     1      25.138   5.041  51.885  1.00  0.00     0.163 HD
BRANCH   7   9
HETATM    9  C1  UNL     1      25.230   4.407  49.944  1.00  0.00     0.144 C 
HETATM   10  S1  UNL     1      24.054   4.835  48.925  1.00  0.00    -0.048 SA
BRANCH   9  11
HETATM   11  N1  UNL     1      26.322   4.366  49.041  1.00  0.00    -0.279 NA
HETATM   12  H1  UNL     1      26.872   3.555  48.683  1.00  0.00     0.126 HD
HETATM   13  H2  UNL     1      26.886   3.575  48.670  1.00  0.00     0.126 HD
ENDBRANCH   9  11
ENDBRANCH   7   9
ENDBRANCH   1   7
BRANCH   1  14
HETATM   14  C3  UNL     1      23.850   2.088  51.074  1.00  0.00     0.011 C 
HETATM   15  C4  UNL     1      22.828   1.308  51.238  1.00  0.00     0.013 C 
BRANCH  15  16
HETATM   16  C5  UNL     1      22.287   0.607  52.394  1.00  0.00     0.002 A 
HETATM   17  C6  UNL     1      21.019   0.718  52.912  1.00  0.00     0.014 A 
HETATM   18  C7  UNL     1      20.506   0.064  53.997  1.00  0.00     0.001 A 
HETATM   19  C8  UNL     1      21.332  -0.809  54.660  1.00  0.00     0.003 A 
HETATM   20  C9  UNL     1      22.617  -0.986  54.213  1.00  0.00     0.043 A 
HETATM   21  C10 UNL     1      23.051  -0.285  53.112  1.00  0.00     0.126 A 
HETATM   22  F1  UNL     1      24.329  -0.502  52.720  1.00  0.00    -0.205 F 
ENDBRANCH  15  16
ENDBRANCH   1  14
BRANCH   6  23
HETATM   23  N3  UNL     1      24.405   4.104  53.687  1.00  0.00     0.089 N 
HETATM   24  H15 UNL     1      24.086   4.697  52.914  1.00  0.00     0.313 HD
HETATM   25  H16 UNL     1      25.105   4.497  54.328  1.00  0.00     0.313 HD
ENDBRANCH   6  23
TORSDOF 6
ENDMDL
MODEL 6
REMARK VINA RESULT:      -7.0      2.507      3.521
REMARK  6 active torsions:
REMARK  status: ('A' for Active; 'I' for Inactive)
REMARK    1  A    between atoms: N1_1  and  C1_2 
REMARK    2  A    between atoms: C1_2  and  N2_4 
REMARK    3  A    between atoms: N2_4  and  C2_5 
REMARK    4  A    between atoms: C2_5  and  C3_6 
REMARK    5  A    between atoms: C4_7  and  C5_8 
REMARK    6  A    between atoms: C15_19  and  N3_20 
ROOT
HETATM    1  C2  UNL     1      24.907   2.547  51.857  1.00  0.00     0.102 A 
HETATM    2  C11 UNL     1      26.372   2.710  52.047  1.00  0.00     0.010 A 
HETATM    3  C12 UNL     1      27.291   1.828  52.408  1.00  0.00    -0.001 A 
HETATM    4  C13 UNL     1      26.866   0.459  52.673  1.00  0.00    -0.002 A 
HETATM    5  C14 UNL     1      25.572   0.223  52.517  1.00  0.00     0.011 A 
HETATM    6  C15 UNL     1      24.454   1.112  52.110  1.00  0.00     0.276 A 
ENDROOT
BRANCH   1   7
HETATM    7  N2  UNL     1      24.327   3.325  52.983  1.00  0.00    -0.353 N 
HETATM    8  H3  UNL     1      24.324   3.161  54.012  1.00  0.00     0.163 HD
BRANCH   7   9
HETATM    9  C1  UNL     1      23.653   4.502  52.623  1.00  0.00     0.144 C 
HETATM   10  S1  UNL     1      22.087   4.664  52.268  1.00  0.00    -0.048 SA
BRANCH   9  11
HETATM   11  N1  UNL     1      24.073   5.846  52.460  1.00  0.00    -0.279 NA
HETATM   12  H1  UNL     1      24.856   6.368  52.910  1.00  0.00     0.126 HD
HETATM   13  H2  UNL     1      24.847   6.388  52.894  1.00  0.00     0.126 HD
ENDBRANCH   9  11
ENDBRANCH   7   9
ENDBRANCH   1   7
BRANCH   1  14
HETATM   14  C3  UNL     1      24.393   2.983  50.563  1.00  0.00     0.011 C 
HETATM   15  C4  UNL     1      24.594   3.735  49.527  1.00  0.00     0.013 C 
BRANCH  15  16
HETATM   16  C5  UNL     1      25.658   4.658  49.159  1.00  0.00     0.002 A 
HETATM   17  C6  UNL     1      25.561   6.022  49.018  1.00  0.00     0.014 A 
HETATM   18  C7  UNL     1      26.555   6.893  48.671  1.00  0.00     0.001 A 
HETATM   19  C8  UNL     1      27.802   6.369  48.433  1.00  0.00     0.003 A 
HETATM   20  C9  UNL     1      27.994   5.016  48.551  1.00  0.00     0.043 A 
HETATM   21  C10 UNL     1      26.935   4.212  48.904  1.00  0.00     0.126 A 
HETATM   22  F1  UNL     1      27.188   2.885  49.004  1.00  0.00    -0.205 F 
ENDBRANCH  15  16
ENDBRANCH   1  14
BRANCH   6  23
HETATM   23  N3  UNL     1      23.393   1.041  53.099  1.00  0.00     0.089 N 
HETATM   24  H15 UNL     1      23.706   1.396  54.008  1.00  0.00     0.313 HD
HETATM   25  H16 UNL     1      22.896   0.142  53.086  1.00  0.00     0.313 HD
ENDBRANCH   6  23
TORSDOF 6
ENDMDL
MODEL 7
REMARK VINA RESULT:      -6.9      3.597      6.108
REMARK  6 active torsions:
REMARK  status: ('A' for Active; 'I' for Inactive)
REMARK    1  A    between atoms: N1_1  and  C1_2 
REMARK    2  A    between atoms: C1_2  and  N2_4 
REMARK    3  A    between atoms: N2_4  and  C2_5 
REMARK    4  A    between atoms: C2_5  and  C3_6 
REMARK    5  A    between atoms: C4_7  and  C5_8 
REMARK    6  A    between atoms: C15_19  and  N3_20 
ROOT
HETATM    1  C2  UNL     1      22.599   3.469  51.188  1.00  0.00     0.102 A 
HETATM    2  C11 UNL     1      22.925   2.939  49.839  1.00  0.00     0.010 A 
HETATM    3  C12 UNL     1      23.894   3.271  49.000  1.00  0.00    -0.001 A 
HETATM    4  C13 UNL     1      24.830   4.312  49.407  1.00  0.00    -0.002 A 
HETATM    5  C14 UNL     1      24.619   4.833  50.606  1.00  0.00     0.011 A 
HETATM    6  C15 UNL     1      23.587   4.544  51.634  1.00  0.00     0.276 A 
ENDROOT
BRANCH   1   7
HETATM    7  N2  UNL     1      21.324   4.200  50.971  1.00  0.00    -0.353 N 
HETATM    8  H3  UNL     1      21.126   5.183  50.685  1.00  0.00     0.163 HD
BRANCH   7   9
HETATM    9  C1  UNL     1      20.153   3.455  51.185  1.00  0.00     0.144 C 
HETATM   10  S1  UNL     1      19.378   2.522  50.121  1.00  0.00    -0.048 SA
BRANCH   9  11
HETATM   11  N1  UNL     1      19.314   3.275  52.313  1.00  0.00    -0.279 NA
HETATM   12  H1  UNL     1      19.148   2.430  52.902  1.00  0.00     0.126 HD
HETATM   13  H2  UNL     1      19.131   2.447  52.915  1.00  0.00     0.126 HD
ENDBRANCH   9  11
ENDBRANCH   7   9
ENDBRANCH   1   7
BRANCH   1  14
HETATM   14  C3  UNL     1      22.487   2.466  52.241  1.00  0.00     0.011 C 
HETATM   15  C4  UNL     1      23.073   1.489  52.859  1.00  0.00     0.013 C 
BRANCH  15  16
HETATM   16  C5  UNL     1      24.378   0.860  52.714  1.00  0.00     0.002 A 
HETATM   17  C6  UNL     1      25.438   1.313  51.963  1.00  0.00     0.014 A 
HETATM   18  C7  UNL     1      26.664   0.726  51.821  1.00  0.00     0.001 A 
HETATM   19  C8  UNL     1      26.887  -0.448  52.496  1.00  0.00     0.003 A 
HETATM   20  C9  UNL     1      25.886  -0.975  53.272  1.00  0.00     0.043 A 
HETATM   21  C10 UNL     1      24.681  -0.319  53.358  1.00  0.00     0.126 A 
HETATM   22  F1  UNL     1      23.733  -0.889  54.139  1.00  0.00    -0.205 F 
ENDBRANCH  15  16
ENDBRANCH   1  14
BRANCH   6  23
HETATM   23  N3  UNL     1      22.917   5.776  52.010  1.00  0.00     0.089 N 
HETATM   24  H15 UNL     1      22.314   5.638  52.827  1.00  0.00     0.313 HD
HETATM   25  H16 UNL     1      22.518   6.275  51.206  1.00  0.00     0.313 HD
ENDBRANCH   6  23
TORSDOF 6
ENDMDL
MODEL 8
REMARK VINA RESULT:      -6.9      2.990      5.461
REMARK  6 active torsions:
REMARK  status: ('A' for Active; 'I' for Inactive)
REMARK    1  A    between atoms: N1_1  and  C1_2 
REMARK    2  A    between atoms: C1_2  and  N2_4 
REMARK    3  A    between atoms: N2_4  and  C2_5 
REMARK    4  A    between atoms: C2_5  and  C3_6 
REMARK    5  A    between atoms: C4_7  and  C5_8 
REMARK    6  A    between atoms: C15_19  and  N3_20 
ROOT
HETATM    1  C2  UNL     1      24.142   2.808  52.432  1.00  0.00     0.102 A 
HETATM    2  C11 UNL     1      23.774   4.220  52.151  1.00  0.00     0.010 A 
HETATM    3  C12 UNL     1      22.585   4.783  52.009  1.00  0.00    -0.001 A 
HETATM    4  C13 UNL     1      21.403   3.939  52.143  1.00  0.00    -0.002 A 
HETATM    5  C14 UNL     1      21.640   2.663  52.407  1.00  0.00     0.011 A 
HETATM    6  C15 UNL     1      22.911   1.920  52.597  1.00  0.00     0.276 A 
ENDROOT
BRANCH   1   7
HETATM    7  N2  UNL     1      24.760   2.355  51.159  1.00  0.00    -0.353 N 
HETATM    8  H3  UNL     1      24.536   1.562  50.520  1.00  0.00     0.163 HD
BRANCH   7   9
HETATM    9  C1  UNL     1      25.853   3.114  50.711  1.00  0.00     0.144 C 
HETATM   10  S1  UNL     1      25.872   4.187  49.507  1.00  0.00    -0.048 SA
BRANCH   9  11
HETATM   11  N1  UNL     1      27.206   3.200  51.126  1.00  0.00    -0.279 NA
HETATM   12  H1  UNL     1      27.972   2.493  51.080  1.00  0.00     0.126 HD
HETATM   13  H2  UNL     1      27.986   2.513  51.092  1.00  0.00     0.126 HD
ENDBRANCH   9  11
ENDBRANCH   7   9
ENDBRANCH   1   7
BRANCH   1  14
HETATM   14  C3  UNL     1      25.024   2.609  53.576  1.00  0.00     0.011 C 
HETATM   15  C4  UNL     1      25.944   1.865  54.105  1.00  0.00     0.013 C 
BRANCH  15  16
HETATM   16  C5  UNL     1      26.619   0.653  53.663  1.00  0.00     0.002 A 
HETATM   17  C6  UNL     1      26.047  -0.442  53.061  1.00  0.00     0.014 A 
HETATM   18  C7  UNL     1      26.675  -1.583  52.645  1.00  0.00     0.001 A 
HETATM   19  C8  UNL     1      28.031  -1.667  52.840  1.00  0.00     0.003 A 
HETATM   20  C9  UNL     1      28.689  -0.620  53.433  1.00  0.00     0.043 A 
HETATM   21  C10 UNL     1      27.977   0.492  53.822  1.00  0.00     0.126 A 
HETATM   22  F1  UNL     1      28.682   1.491  54.402  1.00  0.00    -0.205 F 
ENDBRANCH  15  16
ENDBRANCH   1  14
BRANCH   6  23
HETATM   23  N3  UNL     1      22.943   0.774  51.705  1.00  0.00     0.089 N 
HETATM   24  H15 UNL     1      23.525   0.958  50.882  1.00  0.00     0.313 HD
HETATM   25  H16 UNL     1      22.013   0.367  51.546  1.00  0.00     0.313 HD
ENDBRANCH   6  23
TORSDOF 6
ENDMDL
MODEL 9
REMARK VINA RESULT:      -6.8      3.051      6.107
REMARK  6 active torsions:
REMARK  status: ('A' for Active; 'I' for Inactive)
REMARK    1  A    between atoms: N1_1  and  C1_2 
REMARK    2  A    between atoms: C1_2  and  N2_4 
REMARK    3  A    between atoms: N2_4  and  C2_5 
REMARK    4  A    between atoms: C2_5  and  C3_6 
REMARK    5  A    between atoms: C4_7  and  C5_8 
REMARK    6  A    between atoms: C15_19  and  N3_20 
ROOT
HETATM    1  C2  UNL     1      23.878   3.127  50.837  1.00  0.00     0.102 A 
HETATM    2  C11 UNL     1      24.268   3.985  49.689  1.00  0.00     0.010 A 
HETATM    3  C12 UNL     1      25.465   4.267  49.199  1.00  0.00    -0.001 A 
HETATM    4  C13 UNL     1      26.630   3.666  49.838  1.00  0.00    -0.002 A 
HETATM    5  C14 UNL     1      26.371   2.873  50.867  1.00  0.00     0.011 A 
HETATM    6  C15 UNL     1      25.088   2.473  51.499  1.00  0.00     0.276 A 
ENDROOT
BRANCH   1   7
HETATM    7  N2  UNL     1      23.383   4.102  51.843  1.00  0.00    -0.353 N 
HETATM    8  H3  UNL     1      23.739   4.371  52.784  1.00  0.00     0.163 HD
BRANCH   7   9
HETATM    9  C1  UNL     1      22.221   4.804  51.486  1.00  0.00     0.144 C 
HETATM   10  S1  UNL     1      22.121   6.320  50.942  1.00  0.00    -0.048 SA
BRANCH   9  11
HETATM   11  N1  UNL     1      20.846   4.459  51.477  1.00  0.00    -0.279 NA
HETATM   12  H1  UNL     1      20.341   3.711  50.952  1.00  0.00     0.126 HD
HETATM   13  H2  UNL     1      20.320   3.721  50.966  1.00  0.00     0.126 HD
ENDBRANCH   9  11
ENDBRANCH   7   9
ENDBRANCH   1   7
BRANCH   1  14
HETATM   14  C3  UNL     1      22.891   2.095  50.536  1.00  0.00     0.011 C 
HETATM   15  C4  UNL     1      22.180   1.120  51.009  1.00  0.00     0.013 C 
BRANCH  15  16
HETATM   16  C5  UNL     1      22.054   0.533  52.336  1.00  0.00     0.002 A 
HETATM   17  C6  UNL     1      22.954  -0.294  52.965  1.00  0.00     0.014 A 
HETATM   18  C7  UNL     1      22.841  -0.849  54.209  1.00  0.00     0.001 A 
HETATM   19  C8  UNL     1      21.710  -0.562  54.931  1.00  0.00     0.003 A 
HETATM   20  C9  UNL     1      20.755   0.257  54.383  1.00  0.00     0.043 A 
HETATM   21  C10 UNL     1      20.950   0.773  53.123  1.00  0.00     0.126 A 
HETATM   22  F1  UNL     1      19.973   1.574  52.637  1.00  0.00    -0.205 F 
ENDBRANCH  15  16
ENDBRANCH   1  14
BRANCH   6  23
HETATM   23  N3  UNL     1      25.143   2.747  52.924  1.00  0.00     0.089 N 
HETATM   24  H15 UNL     1      25.293   3.745  53.107  1.00  0.00     0.313 HD
HETATM   25  H16 UNL     1      25.730   2.078  53.437  1.00  0.00     0.313 HD
ENDBRANCH   6  23
TORSDOF 6
ENDMDL
