MODEL 1
REMARK VINA RESULT:      -8.1      0.000      0.000
REMARK  7 active torsions:
REMARK  status: ('A' for Active; 'I' for Inactive)
REMARK    1  A    between atoms: N1_2  and  C3_4 
REMARK    2  A    between atoms: C3_4  and  C4_5 
REMARK    3  A    between atoms: C5_6  and  C6_7 
REMARK    4  A    between atoms: C6_7  and  C7_9 
REMARK    5  A    between atoms: C7_9  and  C8_10 
REMARK    6  A    between atoms: C8_10  and  C9_11 
REMARK    7  A    between atoms: C9_11  and  C10_12 
ROOT
HETATM    1  C10 UNL     1      24.961   2.724  50.428  1.00  0.00    -0.020 C 
HETATM    2  C11 UNL     1      25.812   2.452  51.412  1.00  0.00    -0.043 C 
HETATM    3  C12 UNL     1      27.019   2.735  52.097  1.00  0.00     0.264 C 
HETATM    4  N2  UNL     1      27.401   2.116  53.192  1.00  0.00    -0.310 NA
HETATM    5  C13 UNL     1      28.672   2.522  53.790  1.00  0.00     0.050 C 
HETATM    6  C14 UNL     1      29.463   1.505  53.984  1.00  0.00     0.022 C 
HETATM    7  C15 UNL     1      29.359   0.073  53.736  1.00  0.00    -0.034 C 
HETATM    8  C16 UNL     1      28.090  -0.190  54.083  1.00  0.00     0.016 C 
HETATM    9  C17 UNL     1      27.839  -1.281  53.063  1.00  0.00     0.168 C 
HETATM   10  N3  UNL     1      26.557  -1.868  53.243  1.00  0.00    -0.371 N 
HETATM   11  C18 UNL     1      25.799  -0.644  53.127  1.00  0.00     0.197 C 
HETATM   12  N4  UNL     1      25.742   0.111  52.037  1.00  0.00    -0.281 NA
HETATM   13  C19 UNL     1      24.954   1.306  52.038  1.00  0.00     0.185 C 
HETATM   14  C20 UNL     1      29.008  -2.166  53.390  1.00  0.00     0.121 C 
HETATM   15  F1  UNL     1      29.505  -3.386  53.701  1.00  0.00    -0.208 F 
HETATM   16  C21 UNL     1      29.942  -1.187  53.297  1.00  0.00     0.051 C 
HETATM   17  H23 UNL     1      26.222  -2.851  53.411  1.00  0.00     0.161 HD
ENDROOT
BRANCH   1  18
HETATM   18  C9  UNL     1      24.873   3.691  49.316  1.00  0.00     0.028 C 
BRANCH  18  19
HETATM   19  C8  UNL     1      25.793   4.857  49.418  1.00  0.00     0.011 C 
BRANCH  19  20
HETATM   20  C7  UNL     1      27.153   4.686  48.825  1.00  0.00     0.083 C 
BRANCH  20  21
HETATM   21  C6  UNL     1      27.754   6.014  48.498  1.00  0.00     0.149 C 
HETATM   22  O1  UNL     1      27.479   7.185  48.907  1.00  0.00    -0.293 OA
BRANCH  21  23
HETATM   23  C5  UNL     1      28.791   6.579  47.678  1.00  0.00     0.048 C 
HETATM   24  C4  UNL     1      30.064   6.699  47.804  1.00  0.00     0.007 C 
BRANCH  24  25
HETATM   25  C3  UNL     1      31.187   6.393  48.708  1.00  0.00     0.299 C 
BRANCH  25  26
HETATM   26  N1  UNL     1      32.294   5.770  48.053  1.00  0.00     0.083 N 
HETATM   27  C1  UNL     1      33.570   5.943  48.697  1.00  0.00     0.309 C 
HETATM   28  C2  UNL     1      32.061   4.370  47.708  1.00  0.00     0.309 C 
ENDBRANCH  25  26
ENDBRANCH  24  25
ENDBRANCH  21  23
ENDBRANCH  20  21
ENDBRANCH  19  20
ENDBRANCH  18  19
ENDBRANCH   1  18
TORSDOF 7
ENDMDL
MODEL 2
REMARK VINA RESULT:      -7.7      7.705     12.033
REMARK  7 active torsions:
REMARK  status: ('A' for Active; 'I' for Inactive)
REMARK    1  A    between atoms: N1_2  and  C3_4 
REMARK    2  A    between atoms: C3_4  and  C4_5 
REMARK    3  A    between atoms: C5_6  and  C6_7 
REMARK    4  A    between atoms: C6_7  and  C7_9 
REMARK    5  A    between atoms: C7_9  and  C8_10 
REMARK    6  A    between atoms: C8_10  and  C9_11 
REMARK    7  A    between atoms: C9_11  and  C10_12 
ROOT
HETATM    1  C10 UNL     1      19.905  -0.452  53.323  1.00  0.00    -0.020 C 
HETATM    2  C11 UNL     1      21.044   0.229  53.257  1.00  0.00    -0.043 C 
HETATM    3  C12 UNL     1      21.858   1.189  52.607  1.00  0.00     0.264 C 
HETATM    4  N2  UNL     1      23.027   1.585  53.060  1.00  0.00    -0.310 NA
HETATM    5  C13 UNL     1      23.750   2.588  52.281  1.00  0.00     0.050 C 
HETATM    6  C14 UNL     1      24.965   2.205  52.007  1.00  0.00     0.022 C 
HETATM    7  C15 UNL     1      25.747   1.011  52.302  1.00  0.00    -0.034 C 
HETATM    8  C16 UNL     1      25.397   0.740  53.568  1.00  0.00     0.016 C 
HETATM    9  C17 UNL     1      25.486  -0.768  53.468  1.00  0.00     0.168 C 
HETATM   10  N3  UNL     1      25.264  -1.381  54.731  1.00  0.00    -0.371 N 
HETATM   11  C18 UNL     1      23.967  -0.793  54.972  1.00  0.00     0.197 C 
HETATM   12  N4  UNL     1      22.888  -1.008  54.230  1.00  0.00    -0.281 NA
HETATM   13  C19 UNL     1      21.652  -0.369  54.566  1.00  0.00     0.185 C 
HETATM   14  C20 UNL     1      26.887  -0.874  52.935  1.00  0.00     0.121 C 
HETATM   15  F1  UNL     1      28.134  -1.395  53.009  1.00  0.00    -0.208 F 
HETATM   16  C21 UNL     1      26.697  -0.017  51.901  1.00  0.00     0.051 C 
HETATM   17  H23 UNL     1      25.823  -2.040  55.331  1.00  0.00     0.161 HD
ENDROOT
BRANCH   1  18
HETATM   18  C9  UNL     1      18.657  -0.542  52.541  1.00  0.00     0.028 C 
BRANCH  18  19
HETATM   19  C8  UNL     1      17.553  -1.296  53.195  1.00  0.00     0.011 C 
BRANCH  19  20
HETATM   20  C7  UNL     1      17.910  -2.620  53.786  1.00  0.00     0.083 C 
BRANCH  20  21
HETATM   21  C6  UNL     1      16.908  -3.657  53.395  1.00  0.00     0.149 C 
HETATM   22  O1  UNL     1      15.866  -3.589  52.672  1.00  0.00    -0.293 OA
BRANCH  21  23
HETATM   23  C5  UNL     1      16.635  -5.054  53.601  1.00  0.00     0.048 C 
HETATM   24  C4  UNL     1      15.787  -5.702  54.316  1.00  0.00     0.007 C 
BRANCH  24  25
HETATM   25  C3  UNL     1      14.674  -5.523  55.265  1.00  0.00     0.299 C 
BRANCH  25  26
HETATM   26  N1  UNL     1      13.569  -4.798  54.721  1.00  0.00     0.083 N 
HETATM   27  C1  UNL     1      12.913  -5.418  53.601  1.00  0.00     0.309 C 
HETATM   28  C2  UNL     1      12.603  -4.358  55.724  1.00  0.00     0.309 C 
ENDBRANCH  25  26
ENDBRANCH  24  25
ENDBRANCH  21  23
ENDBRANCH  20  21
ENDBRANCH  19  20
ENDBRANCH  18  19
ENDBRANCH   1  18
TORSDOF 7
ENDMDL
MODEL 3
REMARK VINA RESULT:      -7.7      4.922      8.547
REMARK  7 active torsions:
REMARK  status: ('A' for Active; 'I' for Inactive)
REMARK    1  A    between atoms: N1_2  and  C3_4 
REMARK    2  A    between atoms: C3_4  and  C4_5 
REMARK    3  A    between atoms: C5_6  and  C6_7 
REMARK    4  A    between atoms: C6_7  and  C7_9 
REMARK    5  A    between atoms: C7_9  and  C8_10 
REMARK    6  A    between atoms: C8_10  and  C9_11 
REMARK    7  A    between atoms: C9_11  and  C10_12 
ROOT
HETATM    1  C10 UNL     1      20.272   0.421  53.141  1.00  0.00    -0.020 C 
HETATM    2  C11 UNL     1      20.597   0.958  51.969  1.00  0.00    -0.043 C 
HETATM    3  C12 UNL     1      21.161   0.823  50.677  1.00  0.00     0.264 C 
HETATM    4  N2  UNL     1      21.171   1.782  49.778  1.00  0.00    -0.310 NA
HETATM    5  C13 UNL     1      21.785   1.491  48.484  1.00  0.00     0.050 C 
HETATM    6  C14 UNL     1      22.687   2.376  48.166  1.00  0.00     0.022 C 
HETATM    7  C15 UNL     1      23.210   3.574  48.811  1.00  0.00    -0.034 C 
HETATM    8  C16 UNL     1      22.105   4.130  49.329  1.00  0.00     0.016 C 
HETATM    9  C17 UNL     1      22.753   4.719  50.564  1.00  0.00     0.168 C 
HETATM   10  N3  UNL     1      21.827   5.499  51.309  1.00  0.00    -0.371 N 
HETATM   11  C18 UNL     1      20.845   4.456  51.491  1.00  0.00     0.197 C 
HETATM   12  N4  UNL     1      21.050   3.331  52.165  1.00  0.00    -0.281 NA
HETATM   13  C19 UNL     1      19.998   2.368  52.280  1.00  0.00     0.185 C 
HETATM   14  C20 UNL     1      23.855   5.489  49.892  1.00  0.00     0.121 C 
HETATM   15  F1  UNL     1      24.533   6.646  49.705  1.00  0.00    -0.208 F 
HETATM   16  C21 UNL     1      24.323   4.442  49.169  1.00  0.00     0.051 C 
HETATM   17  H23 UNL     1      21.813   6.499  51.637  1.00  0.00     0.161 HD
ENDROOT
BRANCH   1  18
HETATM   18  C9  UNL     1      20.391  -0.899  53.790  1.00  0.00     0.028 C 
BRANCH  18  19
HETATM   19  C8  UNL     1      21.766  -1.467  53.820  1.00  0.00     0.011 C 
BRANCH  19  20
HETATM   20  C7  UNL     1      22.597  -1.138  55.016  1.00  0.00     0.083 C 
BRANCH  20  21
HETATM   21  C6  UNL     1      24.039  -1.037  54.641  1.00  0.00     0.149 C 
HETATM   22  O1  UNL     1      25.098  -1.313  55.288  1.00  0.00    -0.293 OA
BRANCH  21  23
HETATM   23  C5  UNL     1      24.861  -0.637  53.531  1.00  0.00     0.048 C 
HETATM   24  C4  UNL     1      25.797   0.231  53.379  1.00  0.00     0.007 C 
BRANCH  24  25
HETATM   25  C3  UNL     1      26.576   1.253  54.100  1.00  0.00     0.299 C 
BRANCH  25  26
HETATM   26  N1  UNL     1      27.980   1.193  53.836  1.00  0.00     0.083 N 
HETATM   27  C1  UNL     1      28.607   2.454  53.538  1.00  0.00     0.309 C 
HETATM   28  C2  UNL     1      28.736   0.450  54.841  1.00  0.00     0.309 C 
ENDBRANCH  25  26
ENDBRANCH  24  25
ENDBRANCH  21  23
ENDBRANCH  20  21
ENDBRANCH  19  20
ENDBRANCH  18  19
ENDBRANCH   1  18
TORSDOF 7
ENDMDL
MODEL 4
REMARK VINA RESULT:      -7.7      3.998      8.707
REMARK  7 active torsions:
REMARK  status: ('A' for Active; 'I' for Inactive)
REMARK    1  A    between atoms: N1_2  and  C3_4 
REMARK    2  A    between atoms: C3_4  and  C4_5 
REMARK    3  A    between atoms: C5_6  and  C6_7 
REMARK    4  A    between atoms: C6_7  and  C7_9 
REMARK    5  A    between atoms: C7_9  and  C8_10 
REMARK    6  A    between atoms: C8_10  and  C9_11 
REMARK    7  A    between atoms: C9_11  and  C10_12 
ROOT
HETATM    1  C10 UNL     1      25.602   4.909  49.279  1.00  0.00    -0.020 C 
HETATM    2  C11 UNL     1      26.764   5.341  48.799  1.00  0.00    -0.043 C 
HETATM    3  C12 UNL     1      28.144   5.129  48.564  1.00  0.00     0.264 C 
HETATM    4  N2  UNL     1      28.912   5.967  47.904  1.00  0.00    -0.310 NA
HETATM    5  C13 UNL     1      30.319   5.608  47.737  1.00  0.00     0.050 C 
HETATM    6  C14 UNL     1      31.113   6.562  48.137  1.00  0.00     0.022 C 
HETATM    7  C15 UNL     1      30.905   7.886  48.708  1.00  0.00    -0.034 C 
HETATM    8  C16 UNL     1      29.865   8.348  47.998  1.00  0.00     0.016 C 
HETATM    9  C17 UNL     1      29.230   9.162  49.105  1.00  0.00     0.168 C 
HETATM   10  N3  UNL     1      28.109   9.894  48.627  1.00  0.00    -0.371 N 
HETATM   11  C18 UNL     1      27.378   8.759  48.114  1.00  0.00     0.197 C 
HETATM   12  N4  UNL     1      26.914   7.760  48.855  1.00  0.00    -0.281 NA
HETATM   13  C19 UNL     1      26.200   6.685  48.234  1.00  0.00     0.185 C 
HETATM   14  C20 UNL     1      30.424   9.986  49.492  1.00  0.00     0.121 C 
HETATM   15  F1  UNL     1      30.989  11.192  49.734  1.00  0.00    -0.208 F 
HETATM   16  C21 UNL     1      31.261   8.932  49.657  1.00  0.00     0.051 C 
HETATM   17  H23 UNL     1      27.853  10.915  48.620  1.00  0.00     0.161 HD
ENDROOT
BRANCH   1  18
HETATM   18  C9  UNL     1      25.105   3.703  49.970  1.00  0.00     0.028 C 
BRANCH  18  19
HETATM   19  C8  UNL     1      25.873   3.306  51.181  1.00  0.00     0.011 C 
BRANCH  19  20
HETATM   20  C7  UNL     1      26.607   2.007  51.107  1.00  0.00     0.083 C 
BRANCH  20  21
HETATM   21  C6  UNL     1      25.893   0.955  51.891  1.00  0.00     0.149 C 
HETATM   22  O1  UNL     1      24.669   0.824  52.202  1.00  0.00    -0.293 OA
BRANCH  21  23
HETATM   23  C5  UNL     1      26.170  -0.266  52.598  1.00  0.00     0.048 C 
HETATM   24  C4  UNL     1      26.760  -0.544  53.705  1.00  0.00     0.007 C 
BRANCH  24  25
HETATM   25  C3  UNL     1      27.448   0.072  54.854  1.00  0.00     0.299 C 
BRANCH  25  26
HETATM   26  N1  UNL     1      28.831   0.341  54.615  1.00  0.00     0.083 N 
HETATM   27  C1  UNL     1      29.549  -0.689  53.913  1.00  0.00     0.309 C 
HETATM   28  C2  UNL     1      29.082   1.655  54.028  1.00  0.00     0.309 C 
ENDBRANCH  25  26
ENDBRANCH  24  25
ENDBRANCH  21  23
ENDBRANCH  20  21
ENDBRANCH  19  20
ENDBRANCH  18  19
ENDBRANCH   1  18
TORSDOF 7
ENDMDL
MODEL 5
REMARK VINA RESULT:      -7.5      6.064      9.451
REMARK  7 active torsions:
REMARK  status: ('A' for Active; 'I' for Inactive)
REMARK    1  A    between atoms: N1_2  and  C3_4 
REMARK    2  A    between atoms: C3_4  and  C4_5 
REMARK    3  A    between atoms: C5_6  and  C6_7 
REMARK    4  A    between atoms: C6_7  and  C7_9 
REMARK    5  A    between atoms: C7_9  and  C8_10 
REMARK    6  A    between atoms: C8_10  and  C9_11 
REMARK    7  A    between atoms: C9_11  and  C10_12 
ROOT
HETATM    1  C10 UNL     1      19.895  -0.692  53.421  1.00  0.00    -0.020 C 
HETATM    2  C11 UNL     1      21.012   0.017  53.297  1.00  0.00    -0.043 C 
HETATM    3  C12 UNL     1      21.801   0.936  52.563  1.00  0.00     0.264 C 
HETATM    4  N2  UNL     1      22.953   1.411  52.983  1.00  0.00    -0.310 NA
HETATM    5  C13 UNL     1      23.650   2.359  52.115  1.00  0.00     0.050 C 
HETATM    6  C14 UNL     1      24.879   1.991  51.886  1.00  0.00     0.022 C 
HETATM    7  C15 UNL     1      25.696   0.857  52.298  1.00  0.00    -0.034 C 
HETATM    8  C16 UNL     1      25.344   0.697  53.582  1.00  0.00     0.016 C 
HETATM    9  C17 UNL     1      25.482  -0.810  53.628  1.00  0.00     0.168 C 
HETATM   10  N3  UNL     1      25.268  -1.307  54.943  1.00  0.00    -0.371 N 
HETATM   11  C18 UNL     1      23.950  -0.741  55.119  1.00  0.00     0.197 C 
HETATM   12  N4  UNL     1      22.885  -1.061  54.394  1.00  0.00    -0.281 NA
HETATM   13  C19 UNL     1      21.627  -0.434  54.661  1.00  0.00     0.185 C 
HETATM   14  C20 UNL     1      26.889  -0.922  53.116  1.00  0.00     0.121 C 
HETATM   15  F1  UNL     1      28.152  -1.392  53.246  1.00  0.00    -0.208 F 
HETATM   16  C21 UNL     1      26.682  -0.173  52.003  1.00  0.00     0.051 C 
HETATM   17  H23 UNL     1      25.842  -1.888  55.606  1.00  0.00     0.161 HD
ENDROOT
BRANCH   1  18
HETATM   18  C9  UNL     1      18.657  -0.896  52.644  1.00  0.00     0.028 C 
BRANCH  18  19
HETATM   19  C8  UNL     1      17.887   0.342  52.345  1.00  0.00     0.011 C 
BRANCH  19  20
HETATM   20  C7  UNL     1      18.329   1.131  51.158  1.00  0.00     0.083 C 
BRANCH  20  21
HETATM   21  C6  UNL     1      18.466   2.577  51.509  1.00  0.00     0.149 C 
HETATM   22  O1  UNL     1      19.254   3.177  52.304  1.00  0.00    -0.293 OA
BRANCH  21  23
HETATM   23  C5  UNL     1      17.872   3.847  51.190  1.00  0.00     0.048 C 
HETATM   24  C4  UNL     1      16.669   4.296  51.192  1.00  0.00     0.007 C 
BRANCH  24  25
HETATM   25  C3  UNL     1      15.275   3.913  51.479  1.00  0.00     0.299 C 
BRANCH  25  26
HETATM   26  N1  UNL     1      15.074   3.444  52.814  1.00  0.00     0.083 N 
HETATM   27  C1  UNL     1      14.380   4.350  53.690  1.00  0.00     0.309 C 
HETATM   28  C2  UNL     1      14.508   2.099  52.886  1.00  0.00     0.309 C 
ENDBRANCH  25  26
ENDBRANCH  24  25
ENDBRANCH  21  23
ENDBRANCH  20  21
ENDBRANCH  19  20
ENDBRANCH  18  19
ENDBRANCH   1  18
TORSDOF 7
ENDMDL
MODEL 6
REMARK VINA RESULT:      -7.5      4.408      8.367
REMARK  7 active torsions:
REMARK  status: ('A' for Active; 'I' for Inactive)
REMARK    1  A    between atoms: N1_2  and  C3_4 
REMARK    2  A    between atoms: C3_4  and  C4_5 
REMARK    3  A    between atoms: C5_6  and  C6_7 
REMARK    4  A    between atoms: C6_7  and  C7_9 
REMARK    5  A    between atoms: C7_9  and  C8_10 
REMARK    6  A    between atoms: C8_10  and  C9_11 
REMARK    7  A    between atoms: C9_11  and  C10_12 
ROOT
HETATM    1  C10 UNL     1      24.055   2.769  51.516  1.00  0.00    -0.020 C 
HETATM    2  C11 UNL     1      24.803   3.440  50.646  1.00  0.00    -0.043 C 
HETATM    3  C12 UNL     1      26.077   3.734  50.101  1.00  0.00     0.264 C 
HETATM    4  N2  UNL     1      26.267   4.531  49.073  1.00  0.00    -0.310 NA
HETATM    5  C13 UNL     1      27.641   4.734  48.619  1.00  0.00     0.050 C 
HETATM    6  C14 UNL     1      27.945   5.999  48.544  1.00  0.00     0.022 C 
HETATM    7  C15 UNL     1      27.223   7.236  48.812  1.00  0.00    -0.034 C 
HETATM    8  C16 UNL     1      26.002   6.972  48.325  1.00  0.00     0.016 C 
HETATM    9  C17 UNL     1      25.218   7.784  49.333  1.00  0.00     0.168 C 
HETATM   10  N3  UNL     1      23.832   7.796  49.019  1.00  0.00    -0.371 N 
HETATM   11  C18 UNL     1      23.653   6.363  49.016  1.00  0.00     0.197 C 
HETATM   12  N4  UNL     1      23.814   5.577  50.073  1.00  0.00    -0.281 NA
HETATM   13  C19 UNL     1      23.607   4.166  49.950  1.00  0.00     0.185 C 
HETATM   14  C20 UNL     1      25.931   9.096  49.167  1.00  0.00     0.121 C 
HETATM   15  F1  UNL     1      25.895  10.431  48.946  1.00  0.00    -0.208 F 
HETATM   16  C21 UNL     1      27.177   8.591  49.346  1.00  0.00     0.051 C 
HETATM   17  H23 UNL     1      23.132   8.560  48.836  1.00  0.00     0.161 HD
ENDROOT
BRANCH   1  18
HETATM   18  C9  UNL     1      24.276   1.777  52.587  1.00  0.00     0.028 C 
BRANCH  18  19
HETATM   19  C8  UNL     1      23.291   0.662  52.629  1.00  0.00     0.011 C 
BRANCH  19  20
HETATM   20  C7  UNL     1      23.408  -0.286  53.777  1.00  0.00     0.083 C 
BRANCH  20  21
HETATM   21  C6  UNL     1      24.823  -0.735  53.945  1.00  0.00     0.149 C 
HETATM   22  O1  UNL     1      25.553  -0.844  54.980  1.00  0.00    -0.293 OA
BRANCH  21  23
HETATM   23  C5  UNL     1      25.930  -1.200  53.155  1.00  0.00     0.048 C 
HETATM   24  C4  UNL     1      27.044  -0.679  52.782  1.00  0.00     0.007 C 
BRANCH  24  25
HETATM   25  C3  UNL     1      27.857   0.546  52.883  1.00  0.00     0.299 C 
BRANCH  25  26
HETATM   26  N1  UNL     1      28.890   0.468  53.867  1.00  0.00     0.083 N 
HETATM   27  C1  UNL     1      30.028  -0.336  53.507  1.00  0.00     0.309 C 
HETATM   28  C2  UNL     1      29.304   1.768  54.390  1.00  0.00     0.309 C 
ENDBRANCH  25  26
ENDBRANCH  24  25
ENDBRANCH  21  23
ENDBRANCH  20  21
ENDBRANCH  19  20
ENDBRANCH  18  19
ENDBRANCH   1  18
TORSDOF 7
ENDMDL
MODEL 7
REMARK VINA RESULT:      -7.4      3.682      5.393
REMARK  7 active torsions:
REMARK  status: ('A' for Active; 'I' for Inactive)
REMARK    1  A    between atoms: N1_2  and  C3_4 
REMARK    2  A    between atoms: C3_4  and  C4_5 
REMARK    3  A    between atoms: C5_6  and  C6_7 
REMARK    4  A    between atoms: C6_7  and  C7_9 
REMARK    5  A    between atoms: C7_9  and  C8_10 
REMARK    6  A    between atoms: C8_10  and  C9_11 
REMARK    7  A    between atoms: C9_11  and  C10_12 
ROOT
HETATM    1  C10 UNL     1      25.386   4.522  49.655  1.00  0.00    -0.020 C 
HETATM    2  C11 UNL     1      24.479   3.553  49.721  1.00  0.00    -0.043 C 
HETATM    3  C12 UNL     1      23.206   3.044  49.364  1.00  0.00     0.264 C 
HETATM    4  N2  UNL     1      22.779   1.845  49.693  1.00  0.00    -0.310 NA
HETATM    5  C13 UNL     1      21.441   1.457  49.247  1.00  0.00     0.050 C 
HETATM    6  C14 UNL     1      20.704   1.037  50.236  1.00  0.00     0.022 C 
HETATM    7  C15 UNL     1      20.919   0.874  51.668  1.00  0.00    -0.034 C 
HETATM    8  C16 UNL     1      22.170   0.395  51.722  1.00  0.00     0.016 C 
HETATM    9  C17 UNL     1      22.569   1.058  53.023  1.00  0.00     0.168 C 
HETATM   10  N3  UNL     1      23.868   0.650  53.432  1.00  0.00    -0.371 N 
HETATM   11  C18 UNL     1      24.553   1.054  52.226  1.00  0.00     0.197 C 
HETATM   12  N4  UNL     1      24.648   2.305  51.792  1.00  0.00    -0.281 NA
HETATM   13  C19 UNL     1      25.356   2.586  50.580  1.00  0.00     0.185 C 
HETATM   14  C20 UNL     1      21.437   0.569  53.880  1.00  0.00     0.121 C 
HETATM   15  F1  UNL     1      20.995  -0.036  55.008  1.00  0.00    -0.208 F 
HETATM   16  C21 UNL     1      20.452   0.982  53.044  1.00  0.00     0.051 C 
HETATM   17  H23 UNL     1      24.251   0.198  54.301  1.00  0.00     0.161 HD
ENDROOT
BRANCH   1  18
HETATM   18  C9  UNL     1      25.498   5.850  49.021  1.00  0.00     0.028 C 
BRANCH  18  19
HETATM   19  C8  UNL     1      26.863   6.212  48.549  1.00  0.00     0.011 C 
BRANCH  19  20
HETATM   20  C7  UNL     1      27.875   5.114  48.533  1.00  0.00     0.083 C 
BRANCH  20  21
HETATM   21  C6  UNL     1      29.240   5.663  48.278  1.00  0.00     0.149 C 
HETATM   22  O1  UNL     1      30.334   5.523  48.910  1.00  0.00    -0.293 OA
BRANCH  21  23
HETATM   23  C5  UNL     1      29.928   6.507  47.338  1.00  0.00     0.048 C 
HETATM   24  C4  UNL     1      29.956   7.774  47.129  1.00  0.00     0.007 C 
BRANCH  24  25
HETATM   25  C3  UNL     1      29.413   9.055  47.615  1.00  0.00     0.299 C 
BRANCH  25  26
HETATM   26  N1  UNL     1      29.437   9.183  49.038  1.00  0.00     0.083 N 
HETATM   27  C1  UNL     1      30.590   9.853  49.579  1.00  0.00     0.309 C 
HETATM   28  C2  UNL     1      28.200   9.718  49.601  1.00  0.00     0.309 C 
ENDBRANCH  25  26
ENDBRANCH  24  25
ENDBRANCH  21  23
ENDBRANCH  20  21
ENDBRANCH  19  20
ENDBRANCH  18  19
ENDBRANCH   1  18
TORSDOF 7
ENDMDL
MODEL 8
REMARK VINA RESULT:      -7.4      5.027      7.123
REMARK  7 active torsions:
REMARK  status: ('A' for Active; 'I' for Inactive)
REMARK    1  A    between atoms: N1_2  and  C3_4 
REMARK    2  A    between atoms: C3_4  and  C4_5 
REMARK    3  A    between atoms: C5_6  and  C6_7 
REMARK    4  A    between atoms: C6_7  and  C7_9 
REMARK    5  A    between atoms: C7_9  and  C8_10 
REMARK    6  A    between atoms: C8_10  and  C9_11 
REMARK    7  A    between atoms: C9_11  and  C10_12 
ROOT
HETATM    1  C10 UNL     1      19.955  -0.371  53.336  1.00  0.00    -0.020 C 
HETATM    2  C11 UNL     1      21.106   0.291  53.268  1.00  0.00    -0.043 C 
HETATM    3  C12 UNL     1      21.938   1.230  52.611  1.00  0.00     0.264 C 
HETATM    4  N2  UNL     1      23.112   1.612  53.065  1.00  0.00    -0.310 NA
HETATM    5  C13 UNL     1      23.854   2.594  52.278  1.00  0.00     0.050 C 
HETATM    6  C14 UNL     1      25.064   2.188  52.013  1.00  0.00     0.022 C 
HETATM    7  C15 UNL     1      25.824   0.985  52.323  1.00  0.00    -0.034 C 
HETATM    8  C16 UNL     1      25.465   0.733  53.591  1.00  0.00     0.016 C 
HETATM    9  C17 UNL     1      25.530  -0.777  53.507  1.00  0.00     0.168 C 
HETATM   10  N3  UNL     1      25.292  -1.373  54.776  1.00  0.00    -0.371 N 
HETATM   11  C18 UNL     1      24.004  -0.761  55.005  1.00  0.00     0.197 C 
HETATM   12  N4  UNL     1      22.924  -0.966  54.261  1.00  0.00    -0.281 NA
HETATM   13  C19 UNL     1      21.698  -0.304  54.586  1.00  0.00     0.185 C 
HETATM   14  C20 UNL     1      26.930  -0.913  52.981  1.00  0.00     0.121 C 
HETATM   15  F1  UNL     1      28.168  -1.454  53.065  1.00  0.00    -0.208 F 
HETATM   16  C21 UNL     1      26.759  -0.063  51.937  1.00  0.00     0.051 C 
HETATM   17  H23 UNL     1      25.838  -2.036  55.384  1.00  0.00     0.161 HD
ENDROOT
BRANCH   1  18
HETATM   18  C9  UNL     1      18.708  -0.447  52.550  1.00  0.00     0.028 C 
BRANCH  18  19
HETATM   19  C8  UNL     1      18.726   0.298  51.262  1.00  0.00     0.011 C 
BRANCH  19  20
HETATM   20  C7  UNL     1      17.772   1.441  51.141  1.00  0.00     0.083 C 
BRANCH  20  21
HETATM   21  C6  UNL     1      18.486   2.742  51.311  1.00  0.00     0.149 C 
HETATM   22  O1  UNL     1      19.045   3.268  52.323  1.00  0.00    -0.293 OA
BRANCH  21  23
HETATM   23  C5  UNL     1      18.855   3.901  50.544  1.00  0.00     0.048 C 
HETATM   24  C4  UNL     1      19.974   4.390  50.147  1.00  0.00     0.007 C 
BRANCH  24  25
HETATM   25  C3  UNL     1      21.430   4.159  50.171  1.00  0.00     0.299 C 
BRANCH  25  26
HETATM   26  N1  UNL     1      21.960   3.724  48.917  1.00  0.00     0.083 N 
HETATM   27  C1  UNL     1      23.044   4.514  48.397  1.00  0.00     0.309 C 
HETATM   28  C2  UNL     1      22.277   2.298  48.875  1.00  0.00     0.309 C 
ENDBRANCH  25  26
ENDBRANCH  24  25
ENDBRANCH  21  23
ENDBRANCH  20  21
ENDBRANCH  19  20
ENDBRANCH  18  19
ENDBRANCH   1  18
TORSDOF 7
ENDMDL
MODEL 9
REMARK VINA RESULT:      -7.3      5.106      8.932
REMARK  7 active torsions:
REMARK  status: ('A' for Active; 'I' for Inactive)
REMARK    1  A    between atoms: N1_2  and  C3_4 
REMARK    2  A    between atoms: C3_4  and  C4_5 
REMARK    3  A    between atoms: C5_6  and  C6_7 
REMARK    4  A    between atoms: C6_7  and  C7_9 
REMARK    5  A    between atoms: C7_9  and  C8_10 
REMARK    6  A    between atoms: C8_10  and  C9_11 
REMARK    7  A    between atoms: C9_11  and  C10_12 
ROOT
HETATM    1  C10 UNL     1      21.576   0.946  51.012  1.00  0.00    -0.020 C 
HETATM    2  C11 UNL     1      22.541   1.715  50.516  1.00  0.00    -0.043 C 
HETATM    3  C12 UNL     1      23.901   2.108  50.496  1.00  0.00     0.264 C 
HETATM    4  N2  UNL     1      24.397   2.989  49.655  1.00  0.00    -0.310 NA
HETATM    5  C13 UNL     1      25.824   3.289  49.752  1.00  0.00     0.050 C 
HETATM    6  C14 UNL     1      26.043   4.569  49.861  1.00  0.00     0.022 C 
HETATM    7  C15 UNL     1      25.188   5.747  49.910  1.00  0.00    -0.034 C 
HETATM    8  C16 UNL     1      24.251   5.464  48.993  1.00  0.00     0.016 C 
HETATM    9  C17 UNL     1      23.098   6.160  49.683  1.00  0.00     0.168 C 
HETATM   10  N3  UNL     1      21.925   6.132  48.880  1.00  0.00    -0.371 N 
HETATM   11  C18 UNL     1      21.861   4.696  48.734  1.00  0.00     0.197 C 
HETATM   12  N4  UNL     1      21.680   3.841  49.733  1.00  0.00    -0.281 NA
HETATM   13  C19 UNL     1      21.633   2.435  49.468  1.00  0.00     0.185 C 
HETATM   14  C20 UNL     1      23.727   7.513  49.861  1.00  0.00     0.121 C 
HETATM   15  F1  UNL     1      23.679   8.858  49.714  1.00  0.00    -0.208 F 
HETATM   16  C21 UNL     1      24.854   7.054  50.460  1.00  0.00     0.051 C 
HETATM   17  H23 UNL     1      21.287   6.874  48.492  1.00  0.00     0.161 HD
ENDROOT
BRANCH   1  18
HETATM   18  C9  UNL     1      21.461  -0.112  52.034  1.00  0.00     0.028 C 
BRANCH  18  19
HETATM   19  C8  UNL     1      20.390   0.099  53.045  1.00  0.00     0.011 C 
BRANCH  19  20
HETATM   20  C7  UNL     1      20.832   0.236  54.465  1.00  0.00     0.083 C 
BRANCH  20  21
HETATM   21  C6  UNL     1      21.752  -0.880  54.839  1.00  0.00     0.149 C 
HETATM   22  O1  UNL     1      21.555  -2.129  54.957  1.00  0.00    -0.293 OA
BRANCH  21  23
HETATM   23  C5  UNL     1      23.126  -1.095  55.206  1.00  0.00     0.048 C 
HETATM   24  C4  UNL     1      24.250  -0.893  54.618  1.00  0.00     0.007 C 
BRANCH  24  25
HETATM   25  C3  UNL     1      24.846  -0.378  53.372  1.00  0.00     0.299 C 
BRANCH  25  26
HETATM   26  N1  UNL     1      25.973   0.475  53.587  1.00  0.00     0.083 N 
HETATM   27  C1  UNL     1      26.709   0.234  54.800  1.00  0.00     0.309 C 
HETATM   28  C2  UNL     1      26.867   0.570  52.436  1.00  0.00     0.309 C 
ENDBRANCH  25  26
ENDBRANCH  24  25
ENDBRANCH  21  23
ENDBRANCH  20  21
ENDBRANCH  19  20
ENDBRANCH  18  19
ENDBRANCH   1  18
TORSDOF 7
ENDMDL
