MODEL 1
REMARK VINA RESULT:     -10.7      0.000      0.000
REMARK  4 active torsions:
REMARK  status: ('A' for Active; 'I' for Inactive)
REMARK    1  A    between atoms: C5_6  and  C6_7 
REMARK    2  A    between atoms: N3_10  and  C8_11 
REMARK    3  A    between atoms: C15_19  and  N5_20 
REMARK    4  A    between atoms: N5_20  and  C16_21 
ROOT
HETATM    1  C1  UNL     1      19.118   0.436  51.386  1.00  0.00     0.235 C 
HETATM    2  N1  UNL     1      19.023  -0.227  52.525  1.00  0.00    -0.245 NA
HETATM    3  C2  UNL     1      20.252  -0.525  53.186  1.00  0.00     0.051 C 
HETATM    4  C3  UNL     1      20.496  -1.299  54.220  1.00  0.00     0.029 C 
HETATM    5  C4  UNL     1      21.925  -1.261  54.439  1.00  0.00     0.011 C 
HETATM    6  C5  UNL     1      22.622  -0.484  53.574  1.00  0.00    -0.028 C 
HETATM    7  C14 UNL     1      21.547   0.083  52.859  1.00  0.00     0.141 C 
HETATM    8  C15 UNL     1      21.527   0.690  51.552  1.00  0.00     0.120 C 
HETATM    9  N7  UNL     1      20.388   0.842  50.935  1.00  0.00    -0.228 NA
ENDROOT
BRANCH   6  10
HETATM   10  C6  UNL     1      24.051  -0.467  53.785  1.00  0.00     0.008 A 
HETATM   11  C7  UNL     1      24.716  -0.915  54.896  1.00  0.00     0.152 A 
HETATM   12  N2  UNL     1      26.053  -0.763  54.761  1.00  0.00    -0.184 NA
HETATM   13  N3  UNL     1      26.267  -0.213  53.554  1.00  0.00    -0.276 N 
HETATM   14  C13 UNL     1      25.078  -0.035  52.971  1.00  0.00     0.126 A 
BRANCH  13  15
HETATM   15  C8  UNL     1      27.534   0.144  52.945  1.00  0.00     0.113 C 
HETATM   16  C9  UNL     1      28.668  -0.410  53.773  1.00  0.00     0.057 C 
HETATM   17  C10 UNL     1      29.850   0.513  53.818  1.00  0.00     0.271 C 
HETATM   18  N4  UNL     1      29.388   1.758  54.386  1.00  0.00     0.083 N 
HETATM   19  C11 UNL     1      28.378   2.427  53.631  1.00  0.00     0.271 C 
HETATM   20  H10 UNL     1      29.200   1.689  55.411  1.00  0.00     0.315 HD
HETATM   21  C12 UNL     1      27.631   1.599  52.647  1.00  0.00     0.057 C 
ENDBRANCH  13  15
ENDBRANCH   6  10
BRANCH   8  22
HETATM   22  N5  UNL     1      22.587   1.218  50.762  1.00  0.00    -0.344 N 
HETATM   23  H17 UNL     1      22.982   0.487  50.090  1.00  0.00     0.167 HD
BRANCH  22  24
HETATM   24  C16 UNL     1      23.042   2.560  50.883  1.00  0.00     0.034 A 
HETATM   25  C17 UNL     1      22.474   3.343  51.849  1.00  0.00     0.032 A 
HETATM   26  C18 UNL     1      22.953   4.635  51.920  1.00  0.00     0.035 A 
HETATM   27  C19 UNL     1      23.932   5.170  51.111  1.00  0.00     0.066 A 
HETATM   28  N6  UNL     1      24.372   6.433  51.211  1.00  0.00    -0.260 NA
HETATM   29  C23 UNL     1      24.448   4.290  50.156  1.00  0.00    -0.005 A 
HETATM   30  C20 UNL     1      25.328   6.852  50.373  1.00  0.00     0.117 A 
HETATM   31  C21 UNL     1      25.871   6.030  49.417  1.00  0.00     0.020 A 
HETATM   32  C22 UNL     1      25.436   4.720  49.290  1.00  0.00     0.015 A 
HETATM   33  C24 UNL     1      24.027   2.972  50.012  1.00  0.00     0.043 A 
ENDBRANCH  22  24
ENDBRANCH   8  22
TORSDOF 4
ENDMDL
MODEL 2
REMARK VINA RESULT:     -10.3      2.311      6.905
REMARK  4 active torsions:
REMARK  status: ('A' for Active; 'I' for Inactive)
REMARK    1  A    between atoms: C5_6  and  C6_7 
REMARK    2  A    between atoms: N3_10  and  C8_11 
REMARK    3  A    between atoms: C15_19  and  N5_20 
REMARK    4  A    between atoms: N5_20  and  C16_21 
ROOT
HETATM    1  C1  UNL     1      22.196   1.054  52.679  1.00  0.00     0.235 C 
HETATM    2  N1  UNL     1      21.703   1.249  51.469  1.00  0.00    -0.245 NA
HETATM    3  C2  UNL     1      22.491   2.043  50.585  1.00  0.00     0.051 C 
HETATM    4  C3  UNL     1      22.201   2.547  49.406  1.00  0.00     0.029 C 
HETATM    5  C4  UNL     1      23.360   3.300  48.980  1.00  0.00     0.011 C 
HETATM    6  C5  UNL     1      24.399   3.305  49.851  1.00  0.00    -0.028 C 
HETATM    7  C14 UNL     1      23.896   2.403  50.812  1.00  0.00     0.141 C 
HETATM    8  C15 UNL     1      24.268   2.223  52.192  1.00  0.00     0.120 C 
HETATM    9  N7  UNL     1      23.462   1.584  52.994  1.00  0.00    -0.228 NA
ENDROOT
BRANCH   6  10
HETATM   10  C6  UNL     1      25.545   4.076  49.430  1.00  0.00     0.008 A 
HETATM   11  C7  UNL     1      26.853   3.666  49.444  1.00  0.00     0.152 A 
HETATM   12  N2  UNL     1      27.674   4.631  48.972  1.00  0.00    -0.184 NA
HETATM   13  N3  UNL     1      26.902   5.680  48.645  1.00  0.00    -0.276 N 
HETATM   14  C13 UNL     1      25.635   5.353  48.916  1.00  0.00     0.126 A 
BRANCH  13  15
HETATM   15  C8  UNL     1      27.314   6.957  48.093  1.00  0.00     0.113 C 
HETATM   16  C9  UNL     1      28.820   7.047  48.094  1.00  0.00     0.057 C 
HETATM   17  C10 UNL     1      29.311   8.431  48.402  1.00  0.00     0.271 C 
HETATM   18  N4  UNL     1      28.798   8.777  49.706  1.00  0.00     0.083 N 
HETATM   19  C11 UNL     1      27.374   8.822  49.800  1.00  0.00     0.271 C 
HETATM   20  H10 UNL     1      29.275   8.262  50.479  1.00  0.00     0.315 HD
HETATM   21  C12 UNL     1      26.619   8.103  48.739  1.00  0.00     0.057 C 
ENDBRANCH  13  15
ENDBRANCH   6  10
BRANCH   8  22
HETATM   22  N5  UNL     1      25.445   2.616  52.891  1.00  0.00    -0.344 N 
HETATM   23  H17 UNL     1      25.383   3.626  53.236  1.00  0.00     0.167 HD
BRANCH  22  24
HETATM   24  C16 UNL     1      26.552   1.745  53.082  1.00  0.00     0.034 A 
HETATM   25  C17 UNL     1      27.725   2.288  53.528  1.00  0.00     0.032 A 
HETATM   26  C18 UNL     1      28.764   1.395  53.694  1.00  0.00     0.035 A 
HETATM   27  C19 UNL     1      28.700   0.040  53.450  1.00  0.00     0.066 A 
HETATM   28  N6  UNL     1      29.734  -0.797  53.624  1.00  0.00    -0.260 NA
HETATM   29  C23 UNL     1      27.459  -0.416  52.998  1.00  0.00    -0.005 A 
HETATM   30  C20 UNL     1      29.564  -2.097  53.356  1.00  0.00     0.117 A 
HETATM   31  C21 UNL     1      28.367  -2.600  52.911  1.00  0.00     0.020 A 
HETATM   32  C22 UNL     1      27.282  -1.759  52.722  1.00  0.00     0.015 A 
HETATM   33  C24 UNL     1      26.357   0.410  52.802  1.00  0.00     0.043 A 
ENDBRANCH  22  24
ENDBRANCH   8  22
TORSDOF 4
ENDMDL
MODEL 3
REMARK VINA RESULT:     -10.1      1.642      2.374
REMARK  4 active torsions:
REMARK  status: ('A' for Active; 'I' for Inactive)
REMARK    1  A    between atoms: C5_6  and  C6_7 
REMARK    2  A    between atoms: N3_10  and  C8_11 
REMARK    3  A    between atoms: C15_19  and  N5_20 
REMARK    4  A    between atoms: N5_20  and  C16_21 
ROOT
HETATM    1  C1  UNL     1      19.554   4.117  50.964  1.00  0.00     0.235 C 
HETATM    2  N1  UNL     1      19.184   2.857  50.816  1.00  0.00    -0.245 NA
HETATM    3  C2  UNL     1      20.129   1.869  51.225  1.00  0.00     0.051 C 
HETATM    4  C3  UNL     1      20.127   0.566  51.051  1.00  0.00     0.029 C 
HETATM    5  C4  UNL     1      21.350   0.067  51.639  1.00  0.00     0.011 C 
HETATM    6  C5  UNL     1      22.153   1.010  52.191  1.00  0.00    -0.028 C 
HETATM    7  C14 UNL     1      21.319   2.137  52.041  1.00  0.00     0.141 C 
HETATM    8  C15 UNL     1      21.654   3.538  52.038  1.00  0.00     0.120 C 
HETATM    9  N7  UNL     1      20.802   4.398  51.550  1.00  0.00    -0.228 NA
ENDROOT
BRANCH   6  10
HETATM   10  C6  UNL     1      23.383   0.508  52.757  1.00  0.00     0.008 A 
HETATM   11  C7  UNL     1      23.500  -0.358  53.812  1.00  0.00     0.152 A 
HETATM   12  N2  UNL     1      24.797  -0.633  54.079  1.00  0.00    -0.184 NA
HETATM   13  N3  UNL     1      25.536   0.056  53.194  1.00  0.00    -0.276 N 
HETATM   14  C13 UNL     1      24.698   0.736  52.406  1.00  0.00     0.126 A 
BRANCH  13  15
HETATM   15  C8  UNL     1      26.981   0.092  53.070  1.00  0.00     0.113 C 
HETATM   16  C9  UNL     1      27.611  -0.073  54.431  1.00  0.00     0.057 C 
HETATM   17  C10 UNL     1      28.850   0.758  54.594  1.00  0.00     0.271 C 
HETATM   18  N4  UNL     1      28.461   2.134  54.396  1.00  0.00     0.083 N 
HETATM   19  C11 UNL     1      27.940   2.432  53.101  1.00  0.00     0.271 C 
HETATM   20  H10 UNL     1      27.906   2.516  55.193  1.00  0.00     0.315 HD
HETATM   21  C12 UNL     1      27.454   1.275  52.301  1.00  0.00     0.057 C 
ENDBRANCH  13  15
ENDBRANCH   6  10
BRANCH   8  22
HETATM   22  N5  UNL     1      22.809   4.214  52.524  1.00  0.00    -0.344 N 
HETATM   23  H17 UNL     1      22.869   4.178  53.591  1.00  0.00     0.167 HD
BRANCH  22  24
HETATM   24  C16 UNL     1      23.745   4.852  51.665  1.00  0.00     0.034 A 
HETATM   25  C17 UNL     1      23.665   6.210  51.527  1.00  0.00     0.032 A 
HETATM   26  C18 UNL     1      24.597   6.774  50.680  1.00  0.00     0.035 A 
HETATM   27  C19 UNL     1      25.569   6.085  49.989  1.00  0.00     0.066 A 
HETATM   28  N6  UNL     1      26.459   6.670  49.173  1.00  0.00    -0.260 NA
HETATM   29  C23 UNL     1      25.568   4.703  50.197  1.00  0.00    -0.005 A 
HETATM   30  C20 UNL     1      27.363   5.905  48.549  1.00  0.00     0.117 A 
HETATM   31  C21 UNL     1      27.407   4.543  48.718  1.00  0.00     0.020 A 
HETATM   32  C22 UNL     1      26.501   3.911  49.554  1.00  0.00     0.015 A 
HETATM   33  C24 UNL     1      24.668   4.048  51.032  1.00  0.00     0.043 A 
ENDBRANCH  22  24
ENDBRANCH   8  22
TORSDOF 4
ENDMDL
MODEL 4
REMARK VINA RESULT:     -10.1      2.603      4.607
REMARK  4 active torsions:
REMARK  status: ('A' for Active; 'I' for Inactive)
REMARK    1  A    between atoms: C5_6  and  C6_7 
REMARK    2  A    between atoms: N3_10  and  C8_11 
REMARK    3  A    between atoms: C15_19  and  N5_20 
REMARK    4  A    between atoms: N5_20  and  C16_21 
ROOT
HETATM    1  C1  UNL     1      20.662  -1.566  54.271  1.00  0.00     0.235 C 
HETATM    2  N1  UNL     1      21.927  -1.663  54.640  1.00  0.00    -0.245 NA
HETATM    3  C2  UNL     1      22.820  -0.693  54.096  1.00  0.00     0.051 C 
HETATM    4  C3  UNL     1      24.132  -0.628  54.133  1.00  0.00     0.029 C 
HETATM    5  C4  UNL     1      24.511   0.549  53.385  1.00  0.00     0.011 C 
HETATM    6  C5  UNL     1      23.482   1.255  52.856  1.00  0.00    -0.028 C 
HETATM    7  C14 UNL     1      22.403   0.538  53.414  1.00  0.00     0.141 C 
HETATM    8  C15 UNL     1      21.027   0.465  52.991  1.00  0.00     0.120 C 
HETATM    9  N7  UNL     1      20.275  -0.507  53.428  1.00  0.00    -0.228 NA
ENDROOT
BRANCH   6  10
HETATM   10  C6  UNL     1      23.868   2.418  52.091  1.00  0.00     0.008 A 
HETATM   11  C7  UNL     1      23.715   3.727  52.467  1.00  0.00     0.152 A 
HETATM   12  N2  UNL     1      24.194   4.567  51.521  1.00  0.00    -0.184 NA
HETATM   13  N3  UNL     1      24.664   3.805  50.520  1.00  0.00    -0.276 N 
HETATM   14  C13 UNL     1      24.472   2.527  50.855  1.00  0.00     0.126 A 
BRANCH  13  15
HETATM   15  C8  UNL     1      25.279   4.238  49.279  1.00  0.00     0.113 C 
HETATM   16  C9  UNL     1      26.757   3.935  49.313  1.00  0.00     0.057 C 
HETATM   17  C10 UNL     1      27.575   4.997  48.638  1.00  0.00     0.271 C 
HETATM   18  N4  UNL     1      27.311   6.235  49.333  1.00  0.00     0.083 N 
HETATM   19  C11 UNL     1      25.954   6.675  49.283  1.00  0.00     0.271 C 
HETATM   20  H10 UNL     1      27.752   6.270  50.279  1.00  0.00     0.315 HD
HETATM   21  C12 UNL     1      24.937   5.646  48.939  1.00  0.00     0.057 C 
ENDBRANCH  13  15
ENDBRANCH   6  10
BRANCH   8  22
HETATM   22  N5  UNL     1      20.272   1.328  52.147  1.00  0.00    -0.344 N 
HETATM   23  H17 UNL     1      19.353   1.624  52.604  1.00  0.00     0.167 HD
BRANCH  22  24
HETATM   24  C16 UNL     1      20.718   1.723  50.856  1.00  0.00     0.034 A 
HETATM   25  C17 UNL     1      21.117   0.743  49.989  1.00  0.00     0.032 A 
HETATM   26  C18 UNL     1      21.540   1.185  48.752  1.00  0.00     0.035 A 
HETATM   27  C19 UNL     1      21.585   2.501  48.346  1.00  0.00     0.066 A 
HETATM   28  N6  UNL     1      22.004   2.891  47.132  1.00  0.00    -0.260 NA
HETATM   29  C23 UNL     1      21.157   3.425  49.303  1.00  0.00    -0.005 A 
HETATM   30  C20 UNL     1      22.008   4.198  46.841  1.00  0.00     0.117 A 
HETATM   31  C21 UNL     1      21.598   5.148  47.743  1.00  0.00     0.020 A 
HETATM   32  C22 UNL     1      21.160   4.774  49.003  1.00  0.00     0.015 A 
HETATM   33  C24 UNL     1      20.714   3.071  50.574  1.00  0.00     0.043 A 
ENDBRANCH  22  24
ENDBRANCH   8  22
TORSDOF 4
ENDMDL
MODEL 5
REMARK VINA RESULT:      -9.8      2.713      4.632
REMARK  4 active torsions:
REMARK  status: ('A' for Active; 'I' for Inactive)
REMARK    1  A    between atoms: C5_6  and  C6_7 
REMARK    2  A    between atoms: N3_10  and  C8_11 
REMARK    3  A    between atoms: C15_19  and  N5_20 
REMARK    4  A    between atoms: N5_20  and  C16_21 
ROOT
HETATM    1  C1  UNL     1      21.652   4.651  46.653  1.00  0.00     0.235 C 
HETATM    2  N1  UNL     1      21.107   3.468  46.879  1.00  0.00    -0.245 NA
HETATM    3  C2  UNL     1      21.548   2.782  48.049  1.00  0.00     0.051 C 
HETATM    4  C3  UNL     1      21.330   1.548  48.446  1.00  0.00     0.029 C 
HETATM    5  C4  UNL     1      22.050   1.378  49.688  1.00  0.00     0.011 C 
HETATM    6  C5  UNL     1      22.736   2.467  50.113  1.00  0.00    -0.028 C 
HETATM    7  C14 UNL     1      22.315   3.397  49.140  1.00  0.00     0.141 C 
HETATM    8  C15 UNL     1      22.923   4.634  48.722  1.00  0.00     0.120 C 
HETATM    9  N7  UNL     1      22.569   5.170  47.587  1.00  0.00    -0.228 NA
ENDROOT
BRANCH   6  10
HETATM   10  C6  UNL     1      23.471   2.284  51.343  1.00  0.00     0.008 A 
HETATM   11  C7  UNL     1      23.736   3.244  52.284  1.00  0.00     0.152 A 
HETATM   12  N2  UNL     1      24.437   2.734  53.321  1.00  0.00    -0.184 NA
HETATM   13  N3  UNL     1      24.634   1.431  53.060  1.00  0.00    -0.276 N 
HETATM   14  C13 UNL     1      24.061   1.160  51.884  1.00  0.00     0.126 A 
BRANCH  13  15
HETATM   15  C8  UNL     1      25.333   0.451  53.871  1.00  0.00     0.113 C 
HETATM   16  C9  UNL     1      26.570   1.077  54.468  1.00  0.00     0.057 C 
HETATM   17  C10 UNL     1      27.721   0.116  54.536  1.00  0.00     0.271 C 
HETATM   18  N4  UNL     1      27.990  -0.313  53.184  1.00  0.00     0.083 N 
HETATM   19  C11 UNL     1      26.918  -1.009  52.549  1.00  0.00     0.271 C 
HETATM   20  H10 UNL     1      28.437   0.432  52.604  1.00  0.00     0.315 HD
HETATM   21  C12 UNL     1      25.566  -0.825  53.142  1.00  0.00     0.057 C 
ENDBRANCH  13  15
ENDBRANCH   6  10
BRANCH   8  22
HETATM   22  N5  UNL     1      23.887   5.456  49.372  1.00  0.00    -0.344 N 
HETATM   23  H17 UNL     1      23.432   6.122  50.073  1.00  0.00     0.167 HD
BRANCH  22  24
HETATM   24  C16 UNL     1      25.279   5.375  49.093  1.00  0.00     0.034 A 
HETATM   25  C17 UNL     1      25.928   4.213  49.406  1.00  0.00     0.032 A 
HETATM   26  C18 UNL     1      27.277   4.192  49.114  1.00  0.00     0.035 A 
HETATM   27  C19 UNL     1      27.987   5.227  48.547  1.00  0.00     0.066 A 
HETATM   28  N6  UNL     1      29.301   5.168  48.277  1.00  0.00    -0.260 NA
HETATM   29  C23 UNL     1      27.235   6.370  48.264  1.00  0.00    -0.005 A 
HETATM   30  C20 UNL     1      29.894   6.234  47.725  1.00  0.00     0.117 A 
HETATM   31  C21 UNL     1      29.202   7.381  47.426  1.00  0.00     0.020 A 
HETATM   32  C22 UNL     1      27.846   7.470  47.693  1.00  0.00     0.015 A 
HETATM   33  C24 UNL     1      25.872   6.481  48.524  1.00  0.00     0.043 A 
ENDBRANCH  22  24
ENDBRANCH   8  22
TORSDOF 4
ENDMDL
MODEL 6
REMARK VINA RESULT:      -9.7      1.873      6.383
REMARK  4 active torsions:
REMARK  status: ('A' for Active; 'I' for Inactive)
REMARK    1  A    between atoms: C5_6  and  C6_7 
REMARK    2  A    between atoms: N3_10  and  C8_11 
REMARK    3  A    between atoms: C15_19  and  N5_20 
REMARK    4  A    between atoms: N5_20  and  C16_21 
ROOT
HETATM    1  C1  UNL     1      20.472   0.509  51.355  1.00  0.00     0.235 C 
HETATM    2  N1  UNL     1      20.452   0.657  50.042  1.00  0.00    -0.245 NA
HETATM    3  C2  UNL     1      21.479   1.473  49.483  1.00  0.00     0.051 C 
HETATM    4  C3  UNL     1      21.625   1.940  48.262  1.00  0.00     0.029 C 
HETATM    5  C4  UNL     1      22.828   2.742  48.266  1.00  0.00     0.011 C 
HETATM    6  C5  UNL     1      23.472   2.814  49.457  1.00  0.00    -0.028 C 
HETATM    7  C14 UNL     1      22.686   1.906  50.197  1.00  0.00     0.141 C 
HETATM    8  C15 UNL     1      22.529   1.770  51.623  1.00  0.00     0.120 C 
HETATM    9  N7  UNL     1      21.510   1.107  52.094  1.00  0.00    -0.228 NA
ENDROOT
BRANCH   6  10
HETATM   10  C6  UNL     1      24.661   3.633  49.460  1.00  0.00     0.008 A 
HETATM   11  C7  UNL     1      25.953   3.193  49.583  1.00  0.00     0.152 A 
HETATM   12  N2  UNL     1      26.828   4.223  49.534  1.00  0.00    -0.184 NA
HETATM   13  N3  UNL     1      26.107   5.345  49.378  1.00  0.00    -0.276 N 
HETATM   14  C13 UNL     1      24.818   4.998  49.334  1.00  0.00     0.126 A 
BRANCH  13  15
HETATM   15  C8  UNL     1      26.588   6.710  49.271  1.00  0.00     0.113 C 
HETATM   16  C9  UNL     1      25.791   7.602  50.191  1.00  0.00     0.057 C 
HETATM   17  C10 UNL     1      25.547   8.961  49.601  1.00  0.00     0.271 C 
HETATM   18  N4  UNL     1      24.827   8.759  48.366  1.00  0.00     0.083 N 
HETATM   19  C11 UNL     1      25.529   8.007  47.376  1.00  0.00     0.271 C 
HETATM   20  H10 UNL     1      23.835   8.470  48.519  1.00  0.00     0.315 HD
HETATM   21  C12 UNL     1      26.663   7.174  47.859  1.00  0.00     0.057 C 
ENDBRANCH  13  15
ENDBRANCH   6  10
BRANCH   8  22
HETATM   22  N5  UNL     1      23.349   2.234  52.691  1.00  0.00    -0.344 N 
HETATM   23  H17 UNL     1      22.987   3.153  53.099  1.00  0.00     0.167 HD
BRANCH  22  24
HETATM   24  C16 UNL     1      24.506   1.534  53.131  1.00  0.00     0.034 A 
HETATM   25  C17 UNL     1      24.362   0.222  53.491  1.00  0.00     0.032 A 
HETATM   26  C18 UNL     1      25.517  -0.406  53.910  1.00  0.00     0.035 A 
HETATM   27  C19 UNL     1      26.761   0.180  53.987  1.00  0.00     0.066 A 
HETATM   28  N6  UNL     1      27.863  -0.465  54.401  1.00  0.00    -0.260 NA
HETATM   29  C23 UNL     1      26.804   1.521  53.599  1.00  0.00    -0.005 A 
HETATM   30  C20 UNL     1      29.024   0.200  54.439  1.00  0.00     0.117 A 
HETATM   31  C21 UNL     1      29.123   1.518  54.068  1.00  0.00     0.020 A 
HETATM   32  C22 UNL     1      28.002   2.209  53.636  1.00  0.00     0.015 A 
HETATM   33  C24 UNL     1      25.692   2.234  53.162  1.00  0.00     0.043 A 
ENDBRANCH  22  24
ENDBRANCH   8  22
TORSDOF 4
ENDMDL
MODEL 7
REMARK VINA RESULT:      -9.7      2.162      4.198
REMARK  4 active torsions:
REMARK  status: ('A' for Active; 'I' for Inactive)
REMARK    1  A    between atoms: C5_6  and  C6_7 
REMARK    2  A    between atoms: N3_10  and  C8_11 
REMARK    3  A    between atoms: C15_19  and  N5_20 
REMARK    4  A    between atoms: N5_20  and  C16_21 
ROOT
HETATM    1  C1  UNL     1      21.363  -1.630  54.346  1.00  0.00     0.235 C 
HETATM    2  N1  UNL     1      22.449  -1.622  55.099  1.00  0.00    -0.245 NA
HETATM    3  C2  UNL     1      23.556  -0.872  54.603  1.00  0.00     0.051 C 
HETATM    4  C3  UNL     1      24.800  -0.812  55.023  1.00  0.00     0.029 C 
HETATM    5  C4  UNL     1      25.499   0.079  54.123  1.00  0.00     0.011 C 
HETATM    6  C5  UNL     1      24.746   0.600  53.124  1.00  0.00    -0.028 C 
HETATM    7  C14 UNL     1      23.484   0.097  53.503  1.00  0.00     0.141 C 
HETATM    8  C15 UNL     1      22.291  -0.088  52.716  1.00  0.00     0.120 C 
HETATM    9  N7  UNL     1      21.349  -0.874  53.159  1.00  0.00    -0.228 NA
ENDROOT
BRANCH   6  10
HETATM   10  C6  UNL     1      25.454   1.472  52.216  1.00  0.00     0.008 A 
HETATM   11  C7  UNL     1      26.807   1.691  52.186  1.00  0.00     0.152 A 
HETATM   12  N2  UNL     1      27.141   2.557  51.203  1.00  0.00    -0.184 NA
HETATM   13  N3  UNL     1      26.002   2.908  50.583  1.00  0.00    -0.276 N 
HETATM   14  C13 UNL     1      24.997   2.265  51.184  1.00  0.00     0.126 A 
BRANCH  13  15
HETATM   15  C8  UNL     1      25.836   3.814  49.463  1.00  0.00     0.113 C 
HETATM   16  C9  UNL     1      27.182   4.349  49.039  1.00  0.00     0.057 C 
HETATM   17  C10 UNL     1      27.117   5.784  48.603  1.00  0.00     0.271 C 
HETATM   18  N4  UNL     1      26.618   6.541  49.726  1.00  0.00     0.083 N 
HETATM   19  C11 UNL     1      25.303   6.188  50.154  1.00  0.00     0.271 C 
HETATM   20  H10 UNL     1      27.320   6.639  50.492  1.00  0.00     0.315 HD
HETATM   21  C12 UNL     1      24.804   4.854  49.724  1.00  0.00     0.057 C 
ENDBRANCH  13  15
ENDBRANCH   6  10
BRANCH   8  22
HETATM   22  N5  UNL     1      21.907   0.485  51.471  1.00  0.00    -0.344 N 
HETATM   23  H17 UNL     1      21.820  -0.254  50.704  1.00  0.00     0.167 HD
BRANCH  22  24
HETATM   24  C16 UNL     1      21.679   1.879  51.304  1.00  0.00     0.034 A 
HETATM   25  C17 UNL     1      21.575   2.649  52.429  1.00  0.00     0.032 A 
HETATM   26  C18 UNL     1      21.354   3.993  52.206  1.00  0.00     0.035 A 
HETATM   27  C19 UNL     1      21.235   4.589  50.970  1.00  0.00     0.066 A 
HETATM   28  N6  UNL     1      21.019   5.902  50.794  1.00  0.00    -0.260 NA
HETATM   29  C23 UNL     1      21.355   3.717  49.884  1.00  0.00    -0.005 A 
HETATM   30  C20 UNL     1      20.919   6.378  49.547  1.00  0.00     0.117 A 
HETATM   31  C21 UNL     1      21.030   5.566  48.445  1.00  0.00     0.020 A 
HETATM   32  C22 UNL     1      21.253   4.207  48.596  1.00  0.00     0.015 A 
HETATM   33  C24 UNL     1      21.579   2.350  50.013  1.00  0.00     0.043 A 
ENDBRANCH  22  24
ENDBRANCH   8  22
TORSDOF 4
ENDMDL
MODEL 8
REMARK VINA RESULT:      -9.5      1.884      2.113
REMARK  4 active torsions:
REMARK  status: ('A' for Active; 'I' for Inactive)
REMARK    1  A    between atoms: C5_6  and  C6_7 
REMARK    2  A    between atoms: N3_10  and  C8_11 
REMARK    3  A    between atoms: C15_19  and  N5_20 
REMARK    4  A    between atoms: N5_20  and  C16_21 
ROOT
HETATM    1  C1  UNL     1      19.255   0.758  51.215  1.00  0.00     0.235 C 
HETATM    2  N1  UNL     1      19.099   0.114  52.359  1.00  0.00    -0.245 NA
HETATM    3  C2  UNL     1      20.295  -0.245  53.049  1.00  0.00     0.051 C 
HETATM    4  C3  UNL     1      20.473  -1.021  54.096  1.00  0.00     0.029 C 
HETATM    5  C4  UNL     1      21.897  -1.059  54.346  1.00  0.00     0.011 C 
HETATM    6  C5  UNL     1      22.655  -0.332  53.489  1.00  0.00    -0.028 C 
HETATM    7  C14 UNL     1      21.628   0.286  52.744  1.00  0.00     0.141 C 
HETATM    8  C15 UNL     1      21.671   0.880  51.432  1.00  0.00     0.120 C 
HETATM    9  N7  UNL     1      20.555   1.088  50.789  1.00  0.00    -0.228 NA
ENDROOT
BRANCH   6  10
HETATM   10  C6  UNL     1      24.077  -0.392  53.730  1.00  0.00     0.008 A 
HETATM   11  C7  UNL     1      24.695  -0.924  54.832  1.00  0.00     0.152 A 
HETATM   12  N2  UNL     1      26.040  -0.828  54.733  1.00  0.00    -0.184 NA
HETATM   13  N3  UNL     1      26.308  -0.231  53.560  1.00  0.00    -0.276 N 
HETATM   14  C13 UNL     1      25.143   0.030  52.961  1.00  0.00     0.126 A 
BRANCH  13  15
HETATM   15  C8  UNL     1      27.604   0.095  52.997  1.00  0.00     0.113 C 
HETATM   16  C9  UNL     1      28.695  -0.411  53.910  1.00  0.00     0.057 C 
HETATM   17  C10 UNL     1      29.873   0.517  53.963  1.00  0.00     0.271 C 
HETATM   18  N4  UNL     1      29.384   1.789  54.439  1.00  0.00     0.083 N 
HETATM   19  C11 UNL     1      28.414   2.414  53.599  1.00  0.00     0.271 C 
HETATM   20  H10 UNL     1      29.145   1.776  55.455  1.00  0.00     0.315 HD
HETATM   21  C12 UNL     1      27.716   1.531  52.625  1.00  0.00     0.057 C 
ENDBRANCH  13  15
ENDBRANCH   6  10
BRANCH   8  22
HETATM   22  N5  UNL     1      22.775   1.339  50.660  1.00  0.00    -0.344 N 
HETATM   23  H17 UNL     1      23.632   0.713  50.783  1.00  0.00     0.167 HD
BRANCH  22  24
HETATM   24  C16 UNL     1      22.710   2.499  49.840  1.00  0.00     0.034 A 
HETATM   25  C17 UNL     1      22.975   3.708  50.419  1.00  0.00     0.032 A 
HETATM   26  C18 UNL     1      22.896   4.798  49.576  1.00  0.00     0.035 A 
HETATM   27  C19 UNL     1      22.580   4.749  48.236  1.00  0.00     0.066 A 
HETATM   28  N6  UNL     1      22.512   5.833  47.447  1.00  0.00    -0.260 NA
HETATM   29  C23 UNL     1      22.326   3.468  47.739  1.00  0.00    -0.005 A 
HETATM   30  C20 UNL     1      22.195   5.673  46.157  1.00  0.00     0.117 A 
HETATM   31  C21 UNL     1      21.937   4.438  45.616  1.00  0.00     0.020 A 
HETATM   32  C22 UNL     1      21.999   3.302  46.406  1.00  0.00     0.015 A 
HETATM   33  C24 UNL     1      22.383   2.314  48.514  1.00  0.00     0.043 A 
ENDBRANCH  22  24
ENDBRANCH   8  22
TORSDOF 4
ENDMDL
MODEL 9
REMARK VINA RESULT:      -9.4      2.606      5.980
REMARK  4 active torsions:
REMARK  status: ('A' for Active; 'I' for Inactive)
REMARK    1  A    between atoms: C5_6  and  C6_7 
REMARK    2  A    between atoms: N3_10  and  C8_11 
REMARK    3  A    between atoms: C15_19  and  N5_20 
REMARK    4  A    between atoms: N5_20  and  C16_21 
ROOT
HETATM    1  C1  UNL     1      23.326  -1.314  55.187  1.00  0.00     0.235 C 
HETATM    2  N1  UNL     1      22.033  -1.556  55.069  1.00  0.00    -0.245 NA
HETATM    3  C2  UNL     1      21.375  -0.946  53.960  1.00  0.00     0.051 C 
HETATM    4  C3  UNL     1      20.095  -0.856  53.674  1.00  0.00     0.029 C 
HETATM    5  C4  UNL     1      19.996  -0.097  52.446  1.00  0.00     0.011 C 
HETATM    6  C5  UNL     1      21.178   0.314  51.924  1.00  0.00    -0.028 C 
HETATM    7  C14 UNL     1      22.059  -0.333  52.815  1.00  0.00     0.141 C 
HETATM    8  C15 UNL     1      23.438  -0.045  53.119  1.00  0.00     0.120 C 
HETATM    9  N7  UNL     1      23.968  -0.535  54.206  1.00  0.00    -0.228 NA
ENDROOT
BRANCH   6  10
HETATM   10  C6  UNL     1      21.072   1.090  50.710  1.00  0.00     0.008 A 
HETATM   11  C7  UNL     1      21.336   0.652  49.439  1.00  0.00     0.152 A 
HETATM   12  N2  UNL     1      21.124   1.631  48.530  1.00  0.00    -0.184 NA
HETATM   13  N3  UNL     1      20.718   2.717  49.209  1.00  0.00    -0.276 N 
HETATM   14  C13 UNL     1      20.686   2.398  50.505  1.00  0.00     0.126 A 
BRANCH  13  15
HETATM   15  C8  UNL     1      20.364   4.022  48.681  1.00  0.00     0.113 C 
HETATM   16  C9  UNL     1      20.445   5.052  49.780  1.00  0.00     0.057 C 
HETATM   17  C10 UNL     1      19.373   6.096  49.667  1.00  0.00     0.271 C 
HETATM   18  N4  UNL     1      18.107   5.405  49.733  1.00  0.00     0.083 N 
HETATM   19  C11 UNL     1      17.876   4.470  48.679  1.00  0.00     0.271 C 
HETATM   20  H10 UNL     1      17.887   5.053  50.691  1.00  0.00     0.315 HD
HETATM   21  C12 UNL     1      19.076   4.001  47.936  1.00  0.00     0.057 C 
ENDBRANCH  13  15
ENDBRANCH   6  10
BRANCH   8  22
HETATM   22  N5  UNL     1      24.408   0.703  52.394  1.00  0.00    -0.344 N 
HETATM   23  H17 UNL     1      25.258   0.108  52.139  1.00  0.00     0.167 HD
BRANCH  22  24
HETATM   24  C16 UNL     1      24.234   2.077  52.071  1.00  0.00     0.034 A 
HETATM   25  C17 UNL     1      23.964   2.945  53.091  1.00  0.00     0.032 A 
HETATM   26  C18 UNL     1      23.804   4.265  52.718  1.00  0.00     0.035 A 
HETATM   27  C19 UNL     1      23.896   4.747  51.431  1.00  0.00     0.066 A 
HETATM   28  N6  UNL     1      23.733   6.040  51.107  1.00  0.00    -0.260 NA
HETATM   29  C23 UNL     1      24.174   3.781  50.461  1.00  0.00    -0.005 A 
HETATM   30  C20 UNL     1      23.843   6.402  49.824  1.00  0.00     0.117 A 
HETATM   31  C21 UNL     1      24.116   5.494  48.830  1.00  0.00     0.020 A 
HETATM   32  C22 UNL     1      24.289   4.154  49.135  1.00  0.00     0.015 A 
HETATM   33  C24 UNL     1      24.351   2.431  50.744  1.00  0.00     0.043 A 
ENDBRANCH  22  24
ENDBRANCH   8  22
TORSDOF 4
ENDMDL
