MODEL 1
REMARK VINA RESULT:      -7.5      0.000      0.000
REMARK  5 active torsions:
REMARK  status: ('A' for Active; 'I' for Inactive)
REMARK    1  A    between atoms: C6_6  and  C7_7 
REMARK    2  A    between atoms: C7_7  and  C8_8 
REMARK    3  A    between atoms: C8_8  and  C9_9 
REMARK    4  A    between atoms: C10_10  and  C11_11 
REMARK       I    between atoms: C11_11  and  N1_13 
REMARK    5  A    between atoms: N1_13  and  C12_14 
ROOT
HETATM    1  C9  UNL     1      22.412  -0.148  53.274  1.00  0.00    -0.096 C 
HETATM    2  C10 UNL     1      23.525  -0.389  53.674  1.00  0.00    -0.005 C 
ENDROOT
BRANCH   2   3
HETATM    3  C11 UNL     1      24.854  -0.687  54.131  1.00  0.00     0.300 C 
HETATM    4  O1  UNL     1      25.086  -1.162  55.272  1.00  0.00    -0.258 OA
HETATM    5  N1  UNL     1      25.924  -0.412  53.208  1.00  0.00    -0.316 N 
HETATM    6  H11 UNL     1      25.767  -0.017  52.249  1.00  0.00     0.170 HD
BRANCH   5   7
HETATM    7  C12 UNL     1      27.334  -0.574  53.305  1.00  0.00     0.035 A 
HETATM    8  C13 UNL     1      27.999   0.609  53.599  1.00  0.00     0.029 A 
HETATM    9  C14 UNL     1      29.389   0.562  53.717  1.00  0.00     0.002 A 
HETATM   10  C15 UNL     1      30.133  -0.578  53.560  1.00  0.00     0.000 A 
HETATM   11  C16 UNL     1      29.429  -1.743  53.265  1.00  0.00     0.002 A 
HETATM   12  C17 UNL     1      28.056  -1.737  53.141  1.00  0.00     0.029 A 
ENDBRANCH   5   7
ENDBRANCH   2   3
BRANCH   1  13
HETATM   13  C8  UNL     1      21.064   0.139  52.762  1.00  0.00     0.099 C 
BRANCH  13  14
HETATM   14  C7  UNL     1      20.978   1.625  52.386  1.00  0.00     0.051 C 
BRANCH  14  15
HETATM   15  C6  UNL     1      21.445   1.700  50.961  1.00  0.00    -0.057 A 
HETATM   16  C5  UNL     1      20.905   1.009  49.889  1.00  0.00     0.007 A 
HETATM   17  C4  UNL     1      21.455   1.191  48.635  1.00  0.00     0.001 A 
HETATM   18  C3  UNL     1      22.527   2.040  48.414  1.00  0.00     0.007 A 
HETATM   19  C2  UNL     1      23.094   2.744  49.451  1.00  0.00    -0.061 A 
HETATM   20  C1  UNL     1      24.242   3.668  49.281  1.00  0.00     0.048 C 
HETATM   21  C18 UNL     1      22.520   2.539  50.684  1.00  0.00     0.013 A 
ENDBRANCH  14  15
ENDBRANCH  13  14
ENDBRANCH   1  13
TORSDOF 5
ENDMDL
MODEL 2
REMARK VINA RESULT:      -7.5      2.613      3.872
REMARK  5 active torsions:
REMARK  status: ('A' for Active; 'I' for Inactive)
REMARK    1  A    between atoms: C6_6  and  C7_7 
REMARK    2  A    between atoms: C7_7  and  C8_8 
REMARK    3  A    between atoms: C8_8  and  C9_9 
REMARK    4  A    between atoms: C10_10  and  C11_11 
REMARK       I    between atoms: C11_11  and  N1_13 
REMARK    5  A    between atoms: N1_13  and  C12_14 
ROOT
HETATM    1  C9  UNL     1      22.451  -0.443  53.214  1.00  0.00    -0.096 C 
HETATM    2  C10 UNL     1      23.568  -0.566  53.652  1.00  0.00    -0.005 C 
ENDROOT
BRANCH   2   3
HETATM    3  C11 UNL     1      24.908  -0.705  54.153  1.00  0.00     0.300 C 
HETATM    4  O1  UNL     1      25.154  -1.069  55.332  1.00  0.00    -0.258 OA
HETATM    5  N1  UNL     1      25.970  -0.403  53.231  1.00  0.00    -0.316 N 
HETATM    6  H11 UNL     1      25.802  -0.098  52.242  1.00  0.00     0.170 HD
BRANCH   5   7
HETATM    7  C12 UNL     1      27.386  -0.426  53.364  1.00  0.00     0.035 A 
HETATM    8  C13 UNL     1      27.938  -1.673  53.100  1.00  0.00     0.029 A 
HETATM    9  C14 UNL     1      29.323  -1.806  53.202  1.00  0.00     0.002 A 
HETATM   10  C15 UNL     1      30.168  -0.783  53.547  1.00  0.00     0.000 A 
HETATM   11  C16 UNL     1      29.576   0.451  53.805  1.00  0.00     0.002 A 
HETATM   12  C17 UNL     1      28.211   0.622  53.714  1.00  0.00     0.029 A 
ENDBRANCH   5   7
ENDBRANCH   2   3
BRANCH   1  13
HETATM   13  C8  UNL     1      21.099  -0.277  52.661  1.00  0.00     0.099 C 
BRANCH  13  14
HETATM   14  C7  UNL     1      20.069  -0.656  53.736  1.00  0.00     0.051 C 
BRANCH  14  15
HETATM   15  C6  UNL     1      18.770  -0.812  53.001  1.00  0.00    -0.057 A 
HETATM   16  C5  UNL     1      17.715  -1.627  53.376  1.00  0.00     0.007 A 
HETATM   17  C4  UNL     1      16.582  -1.657  52.584  1.00  0.00     0.001 A 
HETATM   18  C3  UNL     1      16.468  -0.900  51.430  1.00  0.00     0.007 A 
HETATM   19  C2  UNL     1      17.494  -0.079  51.021  1.00  0.00    -0.061 A 
HETATM   20  C1  UNL     1      17.434   0.756  49.795  1.00  0.00     0.048 C 
HETATM   21  C18 UNL     1      18.603  -0.074  51.833  1.00  0.00     0.013 A 
ENDBRANCH  14  15
ENDBRANCH  13  14
ENDBRANCH   1  13
TORSDOF 5
ENDMDL
MODEL 3
REMARK VINA RESULT:      -7.4      1.951      3.779
REMARK  5 active torsions:
REMARK  status: ('A' for Active; 'I' for Inactive)
REMARK    1  A    between atoms: C6_6  and  C7_7 
REMARK    2  A    between atoms: C7_7  and  C8_8 
REMARK    3  A    between atoms: C8_8  and  C9_9 
REMARK    4  A    between atoms: C10_10  and  C11_11 
REMARK       I    between atoms: C11_11  and  N1_13 
REMARK    5  A    between atoms: N1_13  and  C12_14 
ROOT
HETATM    1  C9  UNL     1      23.535   2.109  50.922  1.00  0.00    -0.096 C 
HETATM    2  C10 UNL     1      24.696   1.963  51.218  1.00  0.00    -0.005 C 
ENDROOT
BRANCH   2   3
HETATM    3  C11 UNL     1      26.084   1.806  51.554  1.00  0.00     0.300 C 
HETATM    4  O1  UNL     1      26.967   2.618  51.174  1.00  0.00    -0.258 OA
HETATM    5  N1  UNL     1      26.422   0.661  52.356  1.00  0.00    -0.316 N 
HETATM    6  H11 UNL     1      25.713  -0.035  52.691  1.00  0.00     0.170 HD
BRANCH   5   7
HETATM    7  C12 UNL     1      27.661   0.188  52.872  1.00  0.00     0.035 A 
HETATM    8  C13 UNL     1      27.791  -1.193  52.800  1.00  0.00     0.029 A 
HETATM    9  C14 UNL     1      28.971  -1.762  53.280  1.00  0.00     0.002 A 
HETATM   10  C15 UNL     1      30.006  -1.042  53.816  1.00  0.00     0.000 A 
HETATM   11  C16 UNL     1      29.838   0.340  53.872  1.00  0.00     0.002 A 
HETATM   12  C17 UNL     1      28.686   0.940  53.408  1.00  0.00     0.029 A 
ENDBRANCH   5   7
ENDBRANCH   2   3
BRANCH   1  13
HETATM   13  C8  UNL     1      22.127   2.308  50.549  1.00  0.00     0.099 C 
BRANCH  13  14
HETATM   14  C7  UNL     1      21.555   0.980  50.031  1.00  0.00     0.051 C 
BRANCH  14  15
HETATM   15  C6  UNL     1      20.725   0.441  51.159  1.00  0.00    -0.057 A 
HETATM   16  C5  UNL     1      19.343   0.356  51.186  1.00  0.00     0.007 A 
HETATM   17  C4  UNL     1      18.730  -0.168  52.308  1.00  0.00     0.001 A 
HETATM   18  C3  UNL     1      19.450  -0.612  53.405  1.00  0.00     0.007 A 
HETATM   19  C2  UNL     1      20.825  -0.544  53.420  1.00  0.00    -0.061 A 
HETATM   20  C1  UNL     1      21.654  -1.001  54.562  1.00  0.00     0.048 C 
HETATM   21  C18 UNL     1      21.400  -0.017  52.287  1.00  0.00     0.013 A 
ENDBRANCH  14  15
ENDBRANCH  13  14
ENDBRANCH   1  13
TORSDOF 5
ENDMDL
MODEL 4
REMARK VINA RESULT:      -7.3      3.978      6.981
REMARK  5 active torsions:
REMARK  status: ('A' for Active; 'I' for Inactive)
REMARK    1  A    between atoms: C6_6  and  C7_7 
REMARK    2  A    between atoms: C7_7  and  C8_8 
REMARK    3  A    between atoms: C8_8  and  C9_9 
REMARK    4  A    between atoms: C10_10  and  C11_11 
REMARK       I    between atoms: C11_11  and  N1_13 
REMARK    5  A    between atoms: N1_13  and  C12_14 
ROOT
HETATM    1  C9  UNL     1      26.128   3.356  50.412  1.00  0.00    -0.096 C 
HETATM    2  C10 UNL     1      25.530   2.908  51.360  1.00  0.00    -0.005 C 
ENDROOT
BRANCH   2   3
HETATM    3  C11 UNL     1      24.815   2.396  52.497  1.00  0.00     0.300 C 
HETATM    4  O1  UNL     1      24.886   2.928  53.635  1.00  0.00    -0.258 OA
HETATM    5  N1  UNL     1      24.002   1.231  52.270  1.00  0.00    -0.316 N 
HETATM    6  H11 UNL     1      23.918   0.763  51.335  1.00  0.00     0.170 HD
BRANCH   5   7
HETATM    7  C12 UNL     1      23.172   0.463  53.132  1.00  0.00     0.035 A 
HETATM    8  C13 UNL     1      21.848   0.884  53.133  1.00  0.00     0.029 A 
HETATM    9  C14 UNL     1      20.947   0.197  53.946  1.00  0.00     0.002 A 
HETATM   10  C15 UNL     1      21.289  -0.865  54.742  1.00  0.00     0.000 A 
HETATM   11  C16 UNL     1      22.625  -1.256  54.715  1.00  0.00     0.002 A 
HETATM   12  C17 UNL     1      23.546  -0.603  53.924  1.00  0.00     0.029 A 
ENDBRANCH   5   7
ENDBRANCH   2   3
BRANCH   1  13
HETATM   13  C8  UNL     1      26.846   3.925  49.263  1.00  0.00     0.099 C 
BRANCH  13  14
HETATM   14  C7  UNL     1      26.341   5.354  49.016  1.00  0.00     0.051 C 
BRANCH  14  15
HETATM   15  C6  UNL     1      27.482   6.067  48.350  1.00  0.00    -0.057 A 
HETATM   16  C5  UNL     1      27.425   7.315  47.753  1.00  0.00     0.007 A 
HETATM   17  C4  UNL     1      28.572   7.831  47.180  1.00  0.00     0.001 A 
HETATM   18  C3  UNL     1      29.775   7.144  47.186  1.00  0.00     0.007 A 
HETATM   19  C2  UNL     1      29.874   5.901  47.768  1.00  0.00    -0.061 A 
HETATM   20  C1  UNL     1      31.130   5.113  47.806  1.00  0.00     0.048 C 
HETATM   21  C18 UNL     1      28.713   5.419  48.327  1.00  0.00     0.013 A 
ENDBRANCH  14  15
ENDBRANCH  13  14
ENDBRANCH   1  13
TORSDOF 5
ENDMDL
MODEL 5
REMARK VINA RESULT:      -7.3      6.045      8.658
REMARK  5 active torsions:
REMARK  status: ('A' for Active; 'I' for Inactive)
REMARK    1  A    between atoms: C6_6  and  C7_7 
REMARK    2  A    between atoms: C7_7  and  C8_8 
REMARK    3  A    between atoms: C8_8  and  C9_9 
REMARK    4  A    between atoms: C10_10  and  C11_11 
REMARK       I    between atoms: C11_11  and  N1_13 
REMARK    5  A    between atoms: N1_13  and  C12_14 
ROOT
HETATM    1  C9  UNL     1      28.096   5.571  48.401  1.00  0.00    -0.096 C 
HETATM    2  C10 UNL     1      27.280   4.859  48.933  1.00  0.00    -0.005 C 
ENDROOT
BRANCH   2   3
HETATM    3  C11 UNL     1      26.292   4.027  49.563  1.00  0.00     0.300 C 
HETATM    4  O1  UNL     1      25.121   3.913  49.118  1.00  0.00    -0.258 OA
HETATM    5  N1  UNL     1      26.711   3.321  50.745  1.00  0.00    -0.316 N 
HETATM    6  H11 UNL     1      27.678   3.392  51.144  1.00  0.00     0.170 HD
BRANCH   5   7
HETATM    7  C12 UNL     1      26.027   2.428  51.616  1.00  0.00     0.035 A 
HETATM    8  C13 UNL     1      26.614   1.170  51.677  1.00  0.00     0.029 A 
HETATM    9  C14 UNL     1      26.022   0.215  52.504  1.00  0.00     0.002 A 
HETATM   10  C15 UNL     1      24.900   0.444  53.257  1.00  0.00     0.000 A 
HETATM   11  C16 UNL     1      24.341   1.716  53.168  1.00  0.00     0.002 A 
HETATM   12  C17 UNL     1      24.897   2.687  52.362  1.00  0.00     0.029 A 
ENDBRANCH   5   7
ENDBRANCH   2   3
BRANCH   1  13
HETATM   13  C8  UNL     1      29.070   6.454  47.743  1.00  0.00     0.099 C 
BRANCH  13  14
HETATM   14  C7  UNL     1      30.435   6.289  48.427  1.00  0.00     0.051 C 
BRANCH  14  15
HETATM   15  C6  UNL     1      31.327   5.677  47.387  1.00  0.00    -0.057 A 
HETATM   16  C5  UNL     1      31.997   6.357  46.385  1.00  0.00     0.007 A 
HETATM   17  C4  UNL     1      32.782   5.640  45.502  1.00  0.00     0.001 A 
HETATM   18  C3  UNL     1      32.921   4.264  45.588  1.00  0.00     0.007 A 
HETATM   19  C2  UNL     1      32.271   3.549  46.568  1.00  0.00    -0.061 A 
HETATM   20  C1  UNL     1      32.378   2.077  46.712  1.00  0.00     0.048 C 
HETATM   21  C18 UNL     1      31.500   4.296  47.427  1.00  0.00     0.013 A 
ENDBRANCH  14  15
ENDBRANCH  13  14
ENDBRANCH   1  13
TORSDOF 5
ENDMDL
MODEL 6
REMARK VINA RESULT:      -7.2      2.145      3.546
REMARK  5 active torsions:
REMARK  status: ('A' for Active; 'I' for Inactive)
REMARK    1  A    between atoms: C6_6  and  C7_7 
REMARK    2  A    between atoms: C7_7  and  C8_8 
REMARK    3  A    between atoms: C8_8  and  C9_9 
REMARK    4  A    between atoms: C10_10  and  C11_11 
REMARK       I    between atoms: C11_11  and  N1_13 
REMARK    5  A    between atoms: N1_13  and  C12_14 
ROOT
HETATM    1  C9  UNL     1      22.200  -0.481  53.777  1.00  0.00    -0.096 C 
HETATM    2  C10 UNL     1      23.347  -0.634  54.116  1.00  0.00    -0.005 C 
ENDROOT
BRANCH   2   3
HETATM    3  C11 UNL     1      24.718  -0.829  54.501  1.00  0.00     0.300 C 
HETATM    4  O1  UNL     1      25.045  -1.286  55.627  1.00  0.00    -0.258 OA
HETATM    5  N1  UNL     1      25.713  -0.473  53.525  1.00  0.00    -0.316 N 
HETATM    6  H11 UNL     1      25.477  -0.091  52.577  1.00  0.00     0.170 HD
BRANCH   5   7
HETATM    7  C12 UNL     1      27.135  -0.526  53.547  1.00  0.00     0.035 A 
HETATM    8  C13 UNL     1      27.713   0.592  54.133  1.00  0.00     0.029 A 
HETATM    9  C14 UNL     1      29.105   0.642  54.207  1.00  0.00     0.002 A 
HETATM   10  C15 UNL     1      29.933  -0.344  53.738  1.00  0.00     0.000 A 
HETATM   11  C16 UNL     1      29.316  -1.449  53.157  1.00  0.00     0.002 A 
HETATM   12  C17 UNL     1      27.943  -1.535  53.065  1.00  0.00     0.029 A 
ENDBRANCH   5   7
ENDBRANCH   2   3
BRANCH   1  13
HETATM   13  C8  UNL     1      20.807  -0.305  53.340  1.00  0.00     0.099 C 
BRANCH  13  14
HETATM   14  C7  UNL     1      20.785   0.577  52.083  1.00  0.00     0.051 C 
BRANCH  14  15
HETATM   15  C6  UNL     1      19.430   0.364  51.474  1.00  0.00    -0.057 A 
HETATM   16  C5  UNL     1      18.993   0.870  50.261  1.00  0.00     0.007 A 
HETATM   17  C4  UNL     1      17.709   0.579  49.842  1.00  0.00     0.001 A 
HETATM   18  C3  UNL     1      16.845  -0.200  50.594  1.00  0.00     0.007 A 
HETATM   19  C2  UNL     1      17.239  -0.721  51.806  1.00  0.00    -0.061 A 
HETATM   20  C1  UNL     1      16.363  -1.561  52.659  1.00  0.00     0.048 C 
HETATM   21  C18 UNL     1      18.523  -0.411  52.189  1.00  0.00     0.013 A 
ENDBRANCH  14  15
ENDBRANCH  13  14
ENDBRANCH   1  13
TORSDOF 5
ENDMDL
MODEL 7
REMARK VINA RESULT:      -7.1      5.900      8.884
REMARK  5 active torsions:
REMARK  status: ('A' for Active; 'I' for Inactive)
REMARK    1  A    between atoms: C6_6  and  C7_7 
REMARK    2  A    between atoms: C7_7  and  C8_8 
REMARK    3  A    between atoms: C8_8  and  C9_9 
REMARK    4  A    between atoms: C10_10  and  C11_11 
REMARK       I    between atoms: C11_11  and  N1_13 
REMARK    5  A    between atoms: N1_13  and  C12_14 
ROOT
HETATM    1  C9  UNL     1      26.818   3.973  49.315  1.00  0.00    -0.096 C 
HETATM    2  C10 UNL     1      27.171   5.053  48.911  1.00  0.00    -0.005 C 
ENDROOT
BRANCH   2   3
HETATM    3  C11 UNL     1      27.596   6.348  48.453  1.00  0.00     0.300 C 
HETATM    4  O1  UNL     1      26.862   7.090  47.749  1.00  0.00    -0.258 OA
HETATM    5  N1  UNL     1      28.918   6.761  48.840  1.00  0.00    -0.316 N 
HETATM    6  H11 UNL     1      29.556   6.169  49.426  1.00  0.00     0.170 HD
BRANCH   5   7
HETATM    7  C12 UNL     1      29.663   7.945  48.581  1.00  0.00     0.035 A 
HETATM    8  C13 UNL     1      30.512   7.827  47.489  1.00  0.00     0.029 A 
HETATM    9  C14 UNL     1      31.290   8.933  47.146  1.00  0.00     0.002 A 
HETATM   10  C15 UNL     1      31.266  10.125  47.822  1.00  0.00     0.000 A 
HETATM   11  C16 UNL     1      30.403  10.204  48.912  1.00  0.00     0.002 A 
HETATM   12  C17 UNL     1      29.618   9.132  49.281  1.00  0.00     0.029 A 
ENDBRANCH   5   7
ENDBRANCH   2   3
BRANCH   1  13
HETATM   13  C8  UNL     1      26.397   2.662  49.830  1.00  0.00     0.099 C 
BRANCH  13  14
HETATM   14  C7  UNL     1      25.965   2.817  51.296  1.00  0.00     0.051 C 
BRANCH  14  15
HETATM   15  C6  UNL     1      26.830   1.862  52.066  1.00  0.00    -0.057 A 
HETATM   16  C5  UNL     1      27.907   2.203  52.866  1.00  0.00     0.007 A 
HETATM   17  C4  UNL     1      28.604   1.198  53.510  1.00  0.00     0.001 A 
HETATM   18  C3  UNL     1      28.260  -0.138  53.381  1.00  0.00     0.007 A 
HETATM   19  C2  UNL     1      27.198  -0.520  52.594  1.00  0.00    -0.061 A 
HETATM   20  C1  UNL     1      26.780  -1.932  52.414  1.00  0.00     0.048 C 
HETATM   21  C18 UNL     1      26.529   0.507  51.971  1.00  0.00     0.013 A 
ENDBRANCH  14  15
ENDBRANCH  13  14
ENDBRANCH   1  13
TORSDOF 5
ENDMDL
MODEL 8
REMARK VINA RESULT:      -7.0      6.213      8.939
REMARK  5 active torsions:
REMARK  status: ('A' for Active; 'I' for Inactive)
REMARK    1  A    between atoms: C6_6  and  C7_7 
REMARK    2  A    between atoms: C7_7  and  C8_8 
REMARK    3  A    between atoms: C8_8  and  C9_9 
REMARK    4  A    between atoms: C10_10  and  C11_11 
REMARK       I    between atoms: C11_11  and  N1_13 
REMARK    5  A    between atoms: N1_13  and  C12_14 
ROOT
HETATM    1  C9  UNL     1      27.147   4.515  48.992  1.00  0.00    -0.096 C 
HETATM    2  C10 UNL     1      27.660   5.550  48.644  1.00  0.00    -0.005 C 
ENDROOT
BRANCH   2   3
HETATM    3  C11 UNL     1      28.257   6.783  48.210  1.00  0.00     0.300 C 
HETATM    4  O1  UNL     1      28.718   6.939  47.049  1.00  0.00    -0.258 OA
HETATM    5  N1  UNL     1      28.305   7.846  49.178  1.00  0.00    -0.316 N 
HETATM    6  H11 UNL     1      27.931   7.751  50.153  1.00  0.00     0.170 HD
BRANCH   5   7
HETATM    7  C12 UNL     1      28.808   9.175  49.114  1.00  0.00     0.035 A 
HETATM    8  C13 UNL     1      30.180   9.248  49.317  1.00  0.00     0.029 A 
HETATM    9  C14 UNL     1      30.778  10.509  49.273  1.00  0.00     0.002 A 
HETATM   10  C15 UNL     1      30.093  11.673  49.044  1.00  0.00     0.000 A 
HETATM   11  C16 UNL     1      28.720  11.558  48.845  1.00  0.00     0.002 A 
HETATM   12  C17 UNL     1      28.093  10.330  48.880  1.00  0.00     0.029 A 
ENDBRANCH   5   7
ENDBRANCH   2   3
BRANCH   1  13
HETATM   13  C8  UNL     1      26.501   3.259  49.400  1.00  0.00     0.099 C 
BRANCH  13  14
HETATM   14  C7  UNL     1      25.593   3.533  50.608  1.00  0.00     0.051 C 
BRANCH  14  15
HETATM   15  C6  UNL     1      25.584   2.255  51.394  1.00  0.00    -0.057 A 
HETATM   16  C5  UNL     1      26.675   1.434  51.628  1.00  0.00     0.007 A 
HETATM   17  C4  UNL     1      26.496   0.286  52.375  1.00  0.00     0.001 A 
HETATM   18  C3  UNL     1      25.264  -0.071  52.899  1.00  0.00     0.007 A 
HETATM   19  C2  UNL     1      24.154   0.716  52.689  1.00  0.00    -0.061 A 
HETATM   20  C1  UNL     1      22.809   0.391  53.222  1.00  0.00     0.048 C 
HETATM   21  C18 UNL     1      24.371   1.850  51.942  1.00  0.00     0.013 A 
ENDBRANCH  14  15
ENDBRANCH  13  14
ENDBRANCH   1  13
TORSDOF 5
ENDMDL
MODEL 9
REMARK VINA RESULT:      -7.0      3.913      7.027
REMARK  5 active torsions:
REMARK  status: ('A' for Active; 'I' for Inactive)
REMARK    1  A    between atoms: C6_6  and  C7_7 
REMARK    2  A    between atoms: C7_7  and  C8_8 
REMARK    3  A    between atoms: C8_8  and  C9_9 
REMARK    4  A    between atoms: C10_10  and  C11_11 
REMARK       I    between atoms: C11_11  and  N1_13 
REMARK    5  A    between atoms: N1_13  and  C12_14 
ROOT
HETATM    1  C9  UNL     1      23.656   2.566  50.688  1.00  0.00    -0.096 C 
HETATM    2  C10 UNL     1      24.135   3.504  50.099  1.00  0.00    -0.005 C 
ENDROOT
BRANCH   2   3
HETATM    3  C11 UNL     1      24.685   4.625  49.387  1.00  0.00     0.300 C 
HETATM    4  O1  UNL     1      23.966   5.539  48.908  1.00  0.00    -0.258 OA
HETATM    5  N1  UNL     1      26.116   4.653  49.246  1.00  0.00    -0.316 N 
HETATM    6  H11 UNL     1      26.746   3.910  49.633  1.00  0.00     0.170 HD
BRANCH   5   7
HETATM    7  C12 UNL     1      26.996   5.580  48.621  1.00  0.00     0.035 A 
HETATM    8  C13 UNL     1      28.303   5.118  48.535  1.00  0.00     0.029 A 
HETATM    9  C14 UNL     1      29.250   5.951  47.937  1.00  0.00     0.002 A 
HETATM   10  C15 UNL     1      28.967   7.193  47.431  1.00  0.00     0.000 A 
HETATM   11  C16 UNL     1      27.646   7.620  47.537  1.00  0.00     0.002 A 
HETATM   12  C17 UNL     1      26.682   6.826  48.121  1.00  0.00     0.029 A 
ENDBRANCH   5   7
ENDBRANCH   2   3
BRANCH   1  13
HETATM   13  C8  UNL     1      23.049   1.433  51.400  1.00  0.00     0.099 C 
BRANCH  13  14
HETATM   14  C7  UNL     1      23.301   1.595  52.906  1.00  0.00     0.051 C 
BRANCH  14  15
HETATM   15  C6  UNL     1      24.765   1.320  53.093  1.00  0.00    -0.057 A 
HETATM   16  C5  UNL     1      25.714   2.227  53.533  1.00  0.00     0.007 A 
HETATM   17  C4  UNL     1      27.027   1.813  53.651  1.00  0.00     0.001 A 
HETATM   18  C3  UNL     1      27.424   0.522  53.345  1.00  0.00     0.007 A 
HETATM   19  C2  UNL     1      26.513  -0.411  52.904  1.00  0.00    -0.061 A 
HETATM   20  C1  UNL     1      26.874  -1.808  52.559  1.00  0.00     0.048 C 
HETATM   21  C18 UNL     1      25.217   0.038  52.799  1.00  0.00     0.013 A 
ENDBRANCH  14  15
ENDBRANCH  13  14
ENDBRANCH   1  13
TORSDOF 5
ENDMDL
