MODEL 1
REMARK VINA RESULT:      -8.4      0.000      0.000
REMARK  5 active torsions:
REMARK  status: ('A' for Active; 'I' for Inactive)
REMARK       I    between atoms: N1_2  and  C2_3 
REMARK    1  A    between atoms: N1_2  and  C3_6 
REMARK       I    between atoms: C2_3  and  N2_4 
REMARK    2  A    between atoms: C6_9  and  N3_10 
REMARK    3  A    between atoms: N3_10  and  C7_11 
REMARK    4  A    between atoms: C7_11  and  N4_12 
REMARK    5  A    between atoms: N4_12  and  C8_13 
ROOT
HETATM    1  C3  UNL     1      26.692   7.318  49.012  1.00  0.00     0.038 A 
HETATM    2  C4  UNL     1      25.617   6.921  49.758  1.00  0.00     0.032 A 
HETATM    3  C5  UNL     1      25.404   5.573  49.966  1.00  0.00     0.031 A 
HETATM    4  C6  UNL     1      26.205   4.567  49.471  1.00  0.00     0.029 A 
HETATM    5  C14 UNL     1      27.262   5.021  48.733  1.00  0.00     0.031 A 
HETATM    6  C15 UNL     1      27.524   6.351  48.493  1.00  0.00     0.032 A 
ENDROOT
BRANCH   4   7
HETATM    7  N3  UNL     1      25.974   3.186  49.693  1.00  0.00    -0.374 N 
HETATM    8  H8  UNL     1      26.169   2.540  48.882  1.00  0.00     0.161 HD
BRANCH   7   9
HETATM    9  C7  UNL     1      25.497   2.625  50.936  1.00  0.00     0.243 C 
BRANCH   9  10
HETATM   10  N4  UNL     1      26.441   2.817  52.016  1.00  0.00    -0.374 N 
HETATM   11  H11 UNL     1      26.539   3.774  52.425  1.00  0.00     0.161 HD
BRANCH  10  12
HETATM   12  C8  UNL     1      27.238   1.776  52.554  1.00  0.00     0.030 A 
HETATM   13  C9  UNL     1      28.369   1.953  53.296  1.00  0.00     0.032 A 
HETATM   14  C10 UNL     1      29.141   0.938  53.820  1.00  0.00     0.046 A 
HETATM   15  C11 UNL     1      28.758  -0.367  53.586  1.00  0.00     0.138 A 
HETATM   16  F1  UNL     1      29.457  -1.428  54.063  1.00  0.00    -0.204 F 
HETATM   17  C12 UNL     1      27.626  -0.611  52.846  1.00  0.00     0.074 A 
HETATM   18 CL1  UNL     1      27.114  -2.255  52.533  1.00  0.00    -0.081 Cl
HETATM   19  C13 UNL     1      26.903   0.453  52.353  1.00  0.00     0.056 A 
ENDBRANCH  10  12
ENDBRANCH   9  10
ENDBRANCH   7   9
ENDBRANCH   4   7
BRANCH   1  20
HETATM   20  N1  UNL     1      26.974   8.687  48.757  1.00  0.00    -0.309 N 
HETATM   21  C1  UNL     1      26.775   9.027  47.378  1.00  0.00     0.161 C 
HETATM   22  C2  UNL     1      27.406   9.667  49.685  1.00  0.00     0.298 C 
HETATM   23  N2  UNL     1      27.622   9.407  51.052  1.00  0.00    -0.253 NA
HETATM   24  O1  UNL     1      27.615  10.839  49.313  1.00  0.00    -0.254 OA
HETATM   25  H4  UNL     1      26.648   9.514  51.400  1.00  0.00     0.128 HD
HETATM   26  H5  UNL     1      26.921   9.396  51.841  1.00  0.00     0.128 HD
ENDBRANCH   1  20
TORSDOF 5
ENDMDL
MODEL 2
REMARK VINA RESULT:      -7.9      5.895      8.108
REMARK  5 active torsions:
REMARK  status: ('A' for Active; 'I' for Inactive)
REMARK       I    between atoms: N1_2  and  C2_3 
REMARK    1  A    between atoms: N1_2  and  C3_6 
REMARK       I    between atoms: C2_3  and  N2_4 
REMARK    2  A    between atoms: C6_9  and  N3_10 
REMARK    3  A    between atoms: N3_10  and  C7_11 
REMARK    4  A    between atoms: C7_11  and  N4_12 
REMARK    5  A    between atoms: N4_12  and  C8_13 
ROOT
HETATM    1  C3  UNL     1      27.405   0.264  53.145  1.00  0.00     0.038 A 
HETATM    2  C4  UNL     1      26.890   1.048  54.139  1.00  0.00     0.032 A 
HETATM    3  C5  UNL     1      26.017   2.065  53.810  1.00  0.00     0.031 A 
HETATM    4  C6  UNL     1      25.609   2.364  52.528  1.00  0.00     0.029 A 
HETATM    5  C14 UNL     1      26.154   1.549  51.575  1.00  0.00     0.031 A 
HETATM    6  C15 UNL     1      27.029   0.521  51.845  1.00  0.00     0.032 A 
ENDROOT
BRANCH   4   7
HETATM    7  N3  UNL     1      24.710   3.412  52.204  1.00  0.00    -0.374 N 
HETATM    8  H8  UNL     1      25.129   4.271  51.760  1.00  0.00     0.161 HD
BRANCH   7   9
HETATM    9  C7  UNL     1      23.285   3.370  52.443  1.00  0.00     0.243 C 
BRANCH   9  10
HETATM   10  N4  UNL     1      22.662   2.225  51.817  1.00  0.00    -0.374 N 
HETATM   11  H11 UNL     1      22.597   2.204  50.774  1.00  0.00     0.161 HD
BRANCH  10  12
HETATM   12  C8  UNL     1      22.138   1.124  52.540  1.00  0.00     0.030 A 
HETATM   13  C9  UNL     1      22.848   0.332  53.394  1.00  0.00     0.032 A 
HETATM   14  C10 UNL     1      22.334  -0.736  54.098  1.00  0.00     0.046 A 
HETATM   15  C11 UNL     1      20.999  -1.046  53.941  1.00  0.00     0.138 A 
HETATM   16  F1  UNL     1      20.409  -2.079  54.595  1.00  0.00    -0.204 F 
HETATM   17  C12 UNL     1      20.229  -0.283  53.096  1.00  0.00     0.074 A 
HETATM   18 CL1  UNL     1      18.531  -0.650  52.876  1.00  0.00    -0.081 Cl
HETATM   19  C13 UNL     1      20.810   0.769  52.424  1.00  0.00     0.056 A 
ENDBRANCH  10  12
ENDBRANCH   9  10
ENDBRANCH   7   9
ENDBRANCH   4   7
BRANCH   1  20
HETATM   20  N1  UNL     1      28.309  -0.801  53.409  1.00  0.00    -0.309 N 
HETATM   21  C1  UNL     1      29.474  -0.351  54.112  1.00  0.00     0.161 C 
HETATM   22  C2  UNL     1      28.161  -2.165  53.057  1.00  0.00     0.298 C 
HETATM   23  N2  UNL     1      27.046  -2.679  52.368  1.00  0.00    -0.253 NA
HETATM   24  O1  UNL     1      29.044  -2.993  53.358  1.00  0.00    -0.254 OA
HETATM   25  H4  UNL     1      26.402  -2.822  53.171  1.00  0.00     0.128 HD
HETATM   26  H5  UNL     1      26.114  -2.986  52.755  1.00  0.00     0.128 HD
ENDBRANCH   1  20
TORSDOF 5
ENDMDL
MODEL 3
REMARK VINA RESULT:      -7.8      5.699      8.114
REMARK  5 active torsions:
REMARK  status: ('A' for Active; 'I' for Inactive)
REMARK       I    between atoms: N1_2  and  C2_3 
REMARK    1  A    between atoms: N1_2  and  C3_6 
REMARK       I    between atoms: C2_3  and  N2_4 
REMARK    2  A    between atoms: C6_9  and  N3_10 
REMARK    3  A    between atoms: N3_10  and  C7_11 
REMARK    4  A    between atoms: C7_11  and  N4_12 
REMARK    5  A    between atoms: N4_12  and  C8_13 
ROOT
HETATM    1  C3  UNL     1      27.352   0.259  53.136  1.00  0.00     0.038 A 
HETATM    2  C4  UNL     1      26.639   0.912  54.103  1.00  0.00     0.032 A 
HETATM    3  C5  UNL     1      25.777   1.924  53.735  1.00  0.00     0.031 A 
HETATM    4  C6  UNL     1      25.568   2.344  52.439  1.00  0.00     0.029 A 
HETATM    5  C14 UNL     1      26.306   1.658  51.515  1.00  0.00     0.031 A 
HETATM    6  C15 UNL     1      27.180   0.641  51.824  1.00  0.00     0.032 A 
ENDROOT
BRANCH   4   7
HETATM    7  N3  UNL     1      24.678   3.386  52.075  1.00  0.00    -0.374 N 
HETATM    8  H8  UNL     1      25.049   4.109  51.403  1.00  0.00     0.161 HD
BRANCH   7   9
HETATM    9  C7  UNL     1      23.323   3.512  52.562  1.00  0.00     0.243 C 
BRANCH   9  10
HETATM   10  N4  UNL     1      22.401   2.673  51.828  1.00  0.00    -0.374 N 
HETATM   11  H11 UNL     1      22.203   2.909  50.829  1.00  0.00     0.161 HD
BRANCH  10  12
HETATM   12  C8  UNL     1      21.754   1.543  52.388  1.00  0.00     0.030 A 
HETATM   13  C9  UNL     1      20.514   1.093  52.042  1.00  0.00     0.032 A 
HETATM   14  C10 UNL     1      19.889  -0.008  52.587  1.00  0.00     0.046 A 
HETATM   15  C11 UNL     1      20.552  -0.725  53.561  1.00  0.00     0.138 A 
HETATM   16  F1  UNL     1      20.013  -1.822  54.153  1.00  0.00    -0.204 F 
HETATM   17  C12 UNL     1      21.807  -0.323  53.953  1.00  0.00     0.074 A 
HETATM   18 CL1  UNL     1      22.674  -1.212  55.187  1.00  0.00    -0.081 Cl
HETATM   19  C13 UNL     1      22.370   0.788  53.365  1.00  0.00     0.056 A 
ENDBRANCH  10  12
ENDBRANCH   9  10
ENDBRANCH   7   9
ENDBRANCH   4   7
BRANCH   1  20
HETATM   20  N1  UNL     1      28.257  -0.793  53.440  1.00  0.00    -0.309 N 
HETATM   21  C1  UNL     1      29.375  -0.331  54.211  1.00  0.00     0.161 C 
HETATM   22  C2  UNL     1      28.152  -2.157  53.070  1.00  0.00     0.298 C 
HETATM   23  N2  UNL     1      27.085  -2.682  52.316  1.00  0.00    -0.253 NA
HETATM   24  O1  UNL     1      29.031  -2.973  53.412  1.00  0.00    -0.254 OA
HETATM   25  H4  UNL     1      26.400  -2.843  53.082  1.00  0.00     0.128 HD
HETATM   26  H5  UNL     1      26.138  -3.007  52.649  1.00  0.00     0.128 HD
ENDBRANCH   1  20
TORSDOF 5
ENDMDL
MODEL 4
REMARK VINA RESULT:      -7.6      5.486      7.768
REMARK  5 active torsions:
REMARK  status: ('A' for Active; 'I' for Inactive)
REMARK       I    between atoms: N1_2  and  C2_3 
REMARK    1  A    between atoms: N1_2  and  C3_6 
REMARK       I    between atoms: C2_3  and  N2_4 
REMARK    2  A    between atoms: C6_9  and  N3_10 
REMARK    3  A    between atoms: N3_10  and  C7_11 
REMARK    4  A    between atoms: C7_11  and  N4_12 
REMARK    5  A    between atoms: N4_12  and  C8_13 
ROOT
HETATM    1  C3  UNL     1      26.864   0.698  52.891  1.00  0.00     0.038 A 
HETATM    2  C4  UNL     1      26.155   1.257  53.918  1.00  0.00     0.032 A 
HETATM    3  C5  UNL     1      25.302   2.308  53.652  1.00  0.00     0.031 A 
HETATM    4  C6  UNL     1      25.099   2.857  52.404  1.00  0.00     0.029 A 
HETATM    5  C14 UNL     1      25.833   2.260  51.417  1.00  0.00     0.031 A 
HETATM    6  C15 UNL     1      26.698   1.210  51.624  1.00  0.00     0.032 A 
ENDROOT
BRANCH   4   7
HETATM    7  N3  UNL     1      24.217   3.937  52.145  1.00  0.00    -0.374 N 
HETATM    8  H8  UNL     1      24.658   4.891  52.049  1.00  0.00     0.161 HD
BRANCH   7   9
HETATM    9  C7  UNL     1      22.784   3.809  52.009  1.00  0.00     0.243 C 
BRANCH   9  10
HETATM   10  N4  UNL     1      22.409   2.580  51.345  1.00  0.00    -0.374 N 
HETATM   11  H11 UNL     1      22.759   2.414  50.374  1.00  0.00     0.161 HD
BRANCH  10  12
HETATM   12  C8  UNL     1      21.595   1.584  51.941  1.00  0.00     0.030 A 
HETATM   13  C9  UNL     1      20.327   1.267  51.552  1.00  0.00     0.032 A 
HETATM   14  C10 UNL     1      19.539   0.296  52.133  1.00  0.00     0.046 A 
HETATM   15  C11 UNL     1      20.054  -0.423  53.192  1.00  0.00     0.138 A 
HETATM   16  F1  UNL     1      19.351  -1.397  53.823  1.00  0.00    -0.204 F 
HETATM   17  C12 UNL     1      21.329  -0.150  53.630  1.00  0.00     0.074 A 
HETATM   18 CL1  UNL     1      22.011  -1.045  54.971  1.00  0.00    -0.081 Cl
HETATM   19  C13 UNL     1      22.058   0.835  53.002  1.00  0.00     0.056 A 
ENDBRANCH  10  12
ENDBRANCH   9  10
ENDBRANCH   7   9
ENDBRANCH   4   7
BRANCH   1  20
HETATM   20  N1  UNL     1      27.761  -0.386  53.090  1.00  0.00    -0.309 N 
HETATM   21  C1  UNL     1      27.139  -1.651  52.827  1.00  0.00     0.161 C 
HETATM   22  C2  UNL     1      29.117  -0.321  53.498  1.00  0.00     0.298 C 
HETATM   23  N2  UNL     1      29.794   0.883  53.773  1.00  0.00    -0.253 NA
HETATM   24  O1  UNL     1      29.786  -1.365  53.631  1.00  0.00    -0.254 OA
HETATM   25  H4  UNL     1      30.078   1.141  52.807  1.00  0.00     0.128 HD
HETATM   26  H5  UNL     1      30.274   1.539  53.100  1.00  0.00     0.128 HD
ENDBRANCH   1  20
TORSDOF 5
ENDMDL
MODEL 5
REMARK VINA RESULT:      -7.6      5.096      8.427
REMARK  5 active torsions:
REMARK  status: ('A' for Active; 'I' for Inactive)
REMARK       I    between atoms: N1_2  and  C2_3 
REMARK    1  A    between atoms: N1_2  and  C3_6 
REMARK       I    between atoms: C2_3  and  N2_4 
REMARK    2  A    between atoms: C6_9  and  N3_10 
REMARK    3  A    between atoms: N3_10  and  C7_11 
REMARK    4  A    between atoms: C7_11  and  N4_12 
REMARK    5  A    between atoms: N4_12  and  C8_13 
ROOT
HETATM    1  C3  UNL     1      27.088  -0.218  53.155  1.00  0.00     0.038 A 
HETATM    2  C4  UNL     1      25.861  -0.441  53.717  1.00  0.00     0.032 A 
HETATM    3  C5  UNL     1      24.760   0.221  53.213  1.00  0.00     0.031 A 
HETATM    4  C6  UNL     1      24.794   1.113  52.163  1.00  0.00     0.029 A 
HETATM    5  C14 UNL     1      26.045   1.298  51.641  1.00  0.00     0.031 A 
HETATM    6  C15 UNL     1      27.177   0.665  52.103  1.00  0.00     0.032 A 
ENDROOT
BRANCH   4   7
HETATM    7  N3  UNL     1      23.655   1.786  51.654  1.00  0.00    -0.374 N 
HETATM    8  H8  UNL     1      22.805   1.811  52.278  1.00  0.00     0.161 HD
BRANCH   7   9
HETATM    9  C7  UNL     1      23.592   2.424  50.359  1.00  0.00     0.243 C 
BRANCH   9  10
HETATM   10  N4  UNL     1      23.878   3.840  50.436  1.00  0.00    -0.374 N 
HETATM   11  H11 UNL     1      23.239   4.445  50.999  1.00  0.00     0.161 HD
BRANCH  10  12
HETATM   12  C8  UNL     1      24.981   4.453  49.791  1.00  0.00     0.030 A 
HETATM   13  C9  UNL     1      26.188   3.859  49.561  1.00  0.00     0.032 A 
HETATM   14  C10 UNL     1      27.259   4.458  48.931  1.00  0.00     0.046 A 
HETATM   15  C11 UNL     1      27.120   5.758  48.493  1.00  0.00     0.138 A 
HETATM   16  F1  UNL     1      28.121   6.425  47.863  1.00  0.00    -0.204 F 
HETATM   17  C12 UNL     1      25.927   6.411  48.694  1.00  0.00     0.074 A 
HETATM   18 CL1  UNL     1      25.720   8.061  48.148  1.00  0.00    -0.081 Cl
HETATM   19  C13 UNL     1      24.900   5.750  49.331  1.00  0.00     0.056 A 
ENDBRANCH  10  12
ENDBRANCH   9  10
ENDBRANCH   7   9
ENDBRANCH   4   7
BRANCH   1  20
HETATM   20  N1  UNL     1      28.265  -0.864  53.622  1.00  0.00    -0.309 N 
HETATM   21  C1  UNL     1      29.076   0.011  54.418  1.00  0.00     0.161 C 
HETATM   22  C2  UNL     1      28.670  -2.200  53.380  1.00  0.00     0.298 C 
HETATM   23  N2  UNL     1      27.926  -3.115  52.610  1.00  0.00    -0.253 NA
HETATM   24  O1  UNL     1      29.737  -2.632  53.859  1.00  0.00    -0.254 OA
HETATM   25  H4  UNL     1      27.266  -3.452  53.339  1.00  0.00     0.128 HD
HETATM   26  H5  UNL     1      27.120  -3.727  52.908  1.00  0.00     0.128 HD
ENDBRANCH   1  20
TORSDOF 5
ENDMDL
MODEL 6
REMARK VINA RESULT:      -7.5      5.210      7.473
REMARK  5 active torsions:
REMARK  status: ('A' for Active; 'I' for Inactive)
REMARK       I    between atoms: N1_2  and  C2_3 
REMARK    1  A    between atoms: N1_2  and  C3_6 
REMARK       I    between atoms: C2_3  and  N2_4 
REMARK    2  A    between atoms: C6_9  and  N3_10 
REMARK    3  A    between atoms: N3_10  and  C7_11 
REMARK    4  A    between atoms: C7_11  and  N4_12 
REMARK    5  A    between atoms: N4_12  and  C8_13 
ROOT
HETATM    1  C3  UNL     1      20.551   1.000  52.007  1.00  0.00     0.038 A 
HETATM    2  C4  UNL     1      20.611   2.269  52.514  1.00  0.00     0.032 A 
HETATM    3  C5  UNL     1      21.700   3.061  52.213  1.00  0.00     0.031 A 
HETATM    4  C6  UNL     1      22.760   2.672  51.423  1.00  0.00     0.029 A 
HETATM    5  C14 UNL     1      22.646   1.396  50.944  1.00  0.00     0.031 A 
HETATM    6  C15 UNL     1      21.585   0.561  51.211  1.00  0.00     0.032 A 
ENDROOT
BRANCH   4   7
HETATM    7  N3  UNL     1      23.872   3.498  51.121  1.00  0.00    -0.374 N 
HETATM    8  H8  UNL     1      23.667   4.517  50.940  1.00  0.00     0.161 HD
BRANCH   7   9
HETATM    9  C7  UNL     1      25.239   3.034  51.046  1.00  0.00     0.243 C 
BRANCH   9  10
HETATM   10  N4  UNL     1      25.835   2.887  52.356  1.00  0.00    -0.374 N 
HETATM   11  H11 UNL     1      25.567   3.569  53.102  1.00  0.00     0.161 HD
BRANCH  10  12
HETATM   12  C8  UNL     1      26.760   1.866  52.686  1.00  0.00     0.030 A 
HETATM   13  C9  UNL     1      27.977   2.063  53.270  1.00  0.00     0.032 A 
HETATM   14  C10 UNL     1      28.874   1.066  53.592  1.00  0.00     0.046 A 
HETATM   15  C11 UNL     1      28.533  -0.240  53.309  1.00  0.00     0.138 A 
HETATM   16  F1  UNL     1      29.354  -1.285  53.591  1.00  0.00    -0.204 F 
HETATM   17  C12 UNL     1      27.319  -0.505  52.721  1.00  0.00     0.074 A 
HETATM   18 CL1  UNL     1      26.859  -2.153  52.350  1.00  0.00    -0.081 Cl
HETATM   19  C13 UNL     1      26.474   0.542  52.427  1.00  0.00     0.056 A 
ENDBRANCH  10  12
ENDBRANCH   9  10
ENDBRANCH   7   9
ENDBRANCH   4   7
BRANCH   1  20
HETATM   20  N1  UNL     1      19.462   0.127  52.274  1.00  0.00    -0.309 N 
HETATM   21  C1  UNL     1      18.439   0.225  51.274  1.00  0.00     0.161 C 
HETATM   22  C2  UNL     1      19.317  -0.763  53.367  1.00  0.00     0.298 C 
HETATM   23  N2  UNL     1      20.278  -0.914  54.385  1.00  0.00    -0.253 NA
HETATM   24  O1  UNL     1      18.297  -1.474  53.471  1.00  0.00    -0.254 OA
HETATM   25  H4  UNL     1      20.911  -1.595  53.921  1.00  0.00     0.128 HD
HETATM   26  H5  UNL     1      21.144  -1.517  54.392  1.00  0.00     0.128 HD
ENDBRANCH   1  20
TORSDOF 5
ENDMDL
MODEL 7
REMARK VINA RESULT:      -7.5      2.752      3.212
REMARK  5 active torsions:
REMARK  status: ('A' for Active; 'I' for Inactive)
REMARK       I    between atoms: N1_2  and  C2_3 
REMARK    1  A    between atoms: N1_2  and  C3_6 
REMARK       I    between atoms: C2_3  and  N2_4 
REMARK    2  A    between atoms: C6_9  and  N3_10 
REMARK    3  A    between atoms: N3_10  and  C7_11 
REMARK    4  A    between atoms: C7_11  and  N4_12 
REMARK    5  A    between atoms: N4_12  and  C8_13 
ROOT
HETATM    1  C3  UNL     1      26.264   7.157  49.130  1.00  0.00     0.038 A 
HETATM    2  C4  UNL     1      25.261   6.639  49.902  1.00  0.00     0.032 A 
HETATM    3  C5  UNL     1      25.239   5.282  50.152  1.00  0.00     0.031 A 
HETATM    4  C6  UNL     1      26.167   4.381  49.677  1.00  0.00     0.029 A 
HETATM    5  C14 UNL     1      27.145   4.954  48.912  1.00  0.00     0.031 A 
HETATM    6  C15 UNL     1      27.218   6.299  48.630  1.00  0.00     0.032 A 
ENDROOT
BRANCH   4   7
HETATM    7  N3  UNL     1      26.132   2.989  49.943  1.00  0.00    -0.374 N 
HETATM    8  H8  UNL     1      25.703   2.378  49.198  1.00  0.00     0.161 HD
BRANCH   7   9
HETATM    9  C7  UNL     1      26.638   2.373  51.149  1.00  0.00     0.243 C 
BRANCH   9  10
HETATM   10  N4  UNL     1      25.701   2.476  52.246  1.00  0.00    -0.374 N 
HETATM   11  H11 UNL     1      25.693   3.355  52.811  1.00  0.00     0.161 HD
BRANCH  10  12
HETATM   12  C8  UNL     1      24.787   1.450  52.595  1.00  0.00     0.030 A 
HETATM   13  C9  UNL     1      25.015   0.473  53.519  1.00  0.00     0.032 A 
HETATM   14  C10 UNL     1      24.123  -0.522  53.857  1.00  0.00     0.046 A 
HETATM   15  C11 UNL     1      22.898  -0.550  53.224  1.00  0.00     0.138 A 
HETATM   16  F1  UNL     1      21.959  -1.492  53.495  1.00  0.00    -0.204 F 
HETATM   17  C12 UNL     1      22.607   0.409  52.283  1.00  0.00     0.074 A 
HETATM   18 CL1  UNL     1      21.061   0.401  51.463  1.00  0.00    -0.081 Cl
HETATM   19  C13 UNL     1      23.548   1.373  51.995  1.00  0.00     0.056 A 
ENDBRANCH  10  12
ENDBRANCH   9  10
ENDBRANCH   7   9
ENDBRANCH   4   7
BRANCH   1  20
HETATM   20  N1  UNL     1      26.351   8.544  48.830  1.00  0.00    -0.309 N 
HETATM   21  C1  UNL     1      25.775   8.853  47.555  1.00  0.00     0.161 C 
HETATM   22  C2  UNL     1      26.920   9.565  49.630  1.00  0.00     0.298 C 
HETATM   23  N2  UNL     1      27.503   9.337  50.892  1.00  0.00    -0.253 NA
HETATM   24  O1  UNL     1      26.925  10.748  49.234  1.00  0.00    -0.254 OA
HETATM   25  H4  UNL     1      26.646   9.361  51.481  1.00  0.00     0.128 HD
HETATM   26  H5  UNL     1      27.033   9.272  51.835  1.00  0.00     0.128 HD
ENDBRANCH   1  20
TORSDOF 5
ENDMDL
MODEL 8
REMARK VINA RESULT:      -7.4      5.188      8.321
REMARK  5 active torsions:
REMARK  status: ('A' for Active; 'I' for Inactive)
REMARK       I    between atoms: N1_2  and  C2_3 
REMARK    1  A    between atoms: N1_2  and  C3_6 
REMARK       I    between atoms: C2_3  and  N2_4 
REMARK    2  A    between atoms: C6_9  and  N3_10 
REMARK    3  A    between atoms: N3_10  and  C7_11 
REMARK    4  A    between atoms: C7_11  and  N4_12 
REMARK    5  A    between atoms: N4_12  and  C8_13 
ROOT
HETATM    1  C3  UNL     1      27.031  -0.202  53.191  1.00  0.00     0.038 A 
HETATM    2  C4  UNL     1      27.026   0.736  52.196  1.00  0.00     0.032 A 
HETATM    3  C5  UNL     1      25.831   1.322  51.831  1.00  0.00     0.031 A 
HETATM    4  C6  UNL     1      24.610   1.034  52.401  1.00  0.00     0.029 A 
HETATM    5  C14 UNL     1      24.675   0.091  53.389  1.00  0.00     0.031 A 
HETATM    6  C15 UNL     1      25.837  -0.526  53.794  1.00  0.00     0.032 A 
ENDROOT
BRANCH   4   7
HETATM    7  N3  UNL     1      23.389   1.645  52.016  1.00  0.00    -0.374 N 
HETATM    8  H8  UNL     1      23.010   2.386  52.663  1.00  0.00     0.161 HD
BRANCH   7   9
HETATM    9  C7  UNL     1      22.652   1.316  50.818  1.00  0.00     0.243 C 
BRANCH   9  10
HETATM   10  N4  UNL     1      22.799   2.328  49.794  1.00  0.00    -0.374 N 
HETATM   11  H11 UNL     1      22.318   2.181  48.879  1.00  0.00     0.161 HD
BRANCH  10  12
HETATM   12  C8  UNL     1      23.558   3.513  49.967  1.00  0.00     0.030 A 
HETATM   13  C9  UNL     1      23.157   4.610  50.673  1.00  0.00     0.032 A 
HETATM   14  C10 UNL     1      23.899   5.759  50.841  1.00  0.00     0.046 A 
HETATM   15  C11 UNL     1      25.147   5.827  50.258  1.00  0.00     0.138 A 
HETATM   16  F1  UNL     1      25.946   6.919  50.372  1.00  0.00    -0.204 F 
HETATM   17  C12 UNL     1      25.609   4.753  49.535  1.00  0.00     0.074 A 
HETATM   18 CL1  UNL     1      27.189   4.809  48.783  1.00  0.00    -0.081 Cl
HETATM   19  C13 UNL     1      24.812   3.637  49.408  1.00  0.00     0.056 A 
ENDBRANCH  10  12
ENDBRANCH   9  10
ENDBRANCH   7   9
ENDBRANCH   4   7
BRANCH   1  20
HETATM   20  N1  UNL     1      28.223  -0.847  53.620  1.00  0.00    -0.309 N 
HETATM   21  C1  UNL     1      29.050   0.022  54.405  1.00  0.00     0.161 C 
HETATM   22  C2  UNL     1      28.628  -2.178  53.351  1.00  0.00     0.298 C 
HETATM   23  N2  UNL     1      27.869  -3.088  52.590  1.00  0.00    -0.253 NA
HETATM   24  O1  UNL     1      29.710  -2.610  53.797  1.00  0.00    -0.254 OA
HETATM   25  H4  UNL     1      27.231  -3.437  53.332  1.00  0.00     0.128 HD
HETATM   26  H5  UNL     1      27.074  -3.707  52.901  1.00  0.00     0.128 HD
ENDBRANCH   1  20
TORSDOF 5
ENDMDL
MODEL 9
REMARK VINA RESULT:      -7.4      4.271      5.512
REMARK  5 active torsions:
REMARK  status: ('A' for Active; 'I' for Inactive)
REMARK       I    between atoms: N1_2  and  C2_3 
REMARK    1  A    between atoms: N1_2  and  C3_6 
REMARK       I    between atoms: C2_3  and  N2_4 
REMARK    2  A    between atoms: C6_9  and  N3_10 
REMARK    3  A    between atoms: N3_10  and  C7_11 
REMARK    4  A    between atoms: C7_11  and  N4_12 
REMARK    5  A    between atoms: N4_12  and  C8_13 
ROOT
HETATM    1  C3  UNL     1      24.660   3.975  51.203  1.00  0.00     0.038 A 
HETATM    2  C4  UNL     1      24.155   3.622  52.424  1.00  0.00     0.032 A 
HETATM    3  C5  UNL     1      24.784   2.632  53.151  1.00  0.00     0.031 A 
HETATM    4  C6  UNL     1      25.909   1.951  52.739  1.00  0.00     0.029 A 
HETATM    5  C14 UNL     1      26.370   2.345  51.513  1.00  0.00     0.031 A 
HETATM    6  C15 UNL     1      25.784   3.325  50.745  1.00  0.00     0.032 A 
ENDROOT
BRANCH   4   7
HETATM    7  N3  UNL     1      26.547   0.936  53.497  1.00  0.00    -0.374 N 
HETATM    8  H8  UNL     1      27.323   1.246  54.140  1.00  0.00     0.161 HD
BRANCH   7   9
HETATM    9  C7  UNL     1      26.202  -0.466  53.438  1.00  0.00     0.243 C 
BRANCH   9  10
HETATM   10  N4  UNL     1      25.231  -0.830  54.447  1.00  0.00    -0.374 N 
HETATM   11  H11 UNL     1      25.578  -1.095  55.396  1.00  0.00     0.161 HD
BRANCH  10  12
HETATM   12  C8  UNL     1      23.832  -0.841  54.220  1.00  0.00     0.030 A 
HETATM   13  C9  UNL     1      22.890  -1.235  55.125  1.00  0.00     0.032 A 
HETATM   14  C10 UNL     1      21.530  -1.242  54.902  1.00  0.00     0.046 A 
HETATM   15  C11 UNL     1      21.063  -0.823  53.673  1.00  0.00     0.138 A 
HETATM   16  F1  UNL     1      19.741  -0.797  53.366  1.00  0.00    -0.204 F 
HETATM   17  C12 UNL     1      21.963  -0.412  52.718  1.00  0.00     0.074 A 
HETATM   18 CL1  UNL     1      21.401   0.126  51.150  1.00  0.00    -0.081 Cl
HETATM   19  C13 UNL     1      23.309  -0.432  53.012  1.00  0.00     0.056 A 
ENDBRANCH  10  12
ENDBRANCH   9  10
ENDBRANCH   7   9
ENDBRANCH   4   7
BRANCH   1  20
HETATM   20  N1  UNL     1      24.065   4.985  50.400  1.00  0.00    -0.309 N 
HETATM   21  C1  UNL     1      23.541   4.456  49.175  1.00  0.00     0.161 C 
HETATM   22  C2  UNL     1      23.959   6.368  50.690  1.00  0.00     0.298 C 
HETATM   23  N2  UNL     1      24.449   6.959  51.871  1.00  0.00    -0.253 NA
HETATM   24  O1  UNL     1      23.406   7.142  49.883  1.00  0.00    -0.254 OA
HETATM   25  H4  UNL     1      23.644   6.771  52.501  1.00  0.00     0.128 HD
HETATM   26  H5  UNL     1      23.986   7.028  52.816  1.00  0.00     0.128 HD
ENDBRANCH   1  20
TORSDOF 5
ENDMDL
