MODEL 1
REMARK VINA RESULT:      -8.3      0.000      0.000
REMARK  4 active torsions:
REMARK  status: ('A' for Active; 'I' for Inactive)
REMARK    1  A    between atoms: C2_2  and  C3_3 
REMARK    2  A    between atoms: C3_3  and  N1_4 
REMARK    3  A    between atoms: C12_15  and  N4_16 
REMARK    4  A    between atoms: N4_16  and  C13_17 
ROOT
HETATM    1  N1  UNL     1      22.676   1.157  51.956  1.00  0.00    -0.365 N 
HETATM    2  C4  UNL     1      21.389   0.791  51.525  1.00  0.00     0.084 C 
HETATM    3  C5  UNL     1      20.206   0.398  51.061  1.00  0.00    -0.010 C 
HETATM    4  C6  UNL     1      18.853   0.844  51.603  1.00  0.00     0.030 C 
HETATM    5  C7  UNL     1      18.336  -0.424  52.457  1.00  0.00     0.023 C 
HETATM    6  C8  UNL     1      19.545  -0.624  53.189  1.00  0.00     0.114 C 
HETATM    7  N2  UNL     1      20.131  -1.374  54.176  1.00  0.00    -0.413 N 
HETATM    8  C9  UNL     1      21.563  -1.102  54.385  1.00  0.00     0.181 C 
HETATM    9  C10 UNL     1      22.668  -0.339  53.960  1.00  0.00     0.083 C 
HETATM   10  C11 UNL     1      23.626  -0.943  54.932  1.00  0.00    -0.009 C 
HETATM   11  N3  UNL     1      24.387  -1.435  55.722  1.00  0.00    -0.101 N 
HETATM   12  C12 UNL     1      23.416   0.684  53.132  1.00  0.00     0.203 C 
HETATM   13  H14 UNL     1      20.200  -2.060  54.920  1.00  0.00     0.153 HD
ENDROOT
BRANCH  12  14
HETATM   14  N4  UNL     1      24.605   0.093  52.575  1.00  0.00    -0.367 N 
HETATM   15  H17 UNL     1      24.483  -0.648  51.817  1.00  0.00     0.161 HD
BRANCH  14  16
HETATM   16  C13 UNL     1      25.953   0.371  52.917  1.00  0.00     0.031 A 
HETATM   17  C14 UNL     1      26.452   1.623  53.203  1.00  0.00     0.032 A 
HETATM   18  C15 UNL     1      27.747   1.943  53.534  1.00  0.00     0.046 A 
HETATM   19  C16 UNL     1      28.601   0.867  53.573  1.00  0.00     0.138 A 
HETATM   20  F1  UNL     1      29.924   1.018  53.887  1.00  0.00    -0.204 F 
HETATM   21  C17 UNL     1      28.225  -0.432  53.308  1.00  0.00     0.074 A 
HETATM   22 CL1  UNL     1      29.306  -1.809  53.351  1.00  0.00    -0.081 Cl
HETATM   23  C18 UNL     1      26.901  -0.630  52.988  1.00  0.00     0.056 A 
ENDBRANCH  14  16
ENDBRANCH  12  14
BRANCH   1  24
HETATM   24  C3  UNL     1      23.435   2.122  51.140  1.00  0.00     0.151 C 
BRANCH  24  25
HETATM   25  C2  UNL     1      23.108   3.496  51.527  1.00  0.00    -0.017 C 
HETATM   26  C1  UNL     1      23.572   4.258  52.546  1.00  0.00     0.008 C 
ENDBRANCH  24  25
ENDBRANCH   1  24
TORSDOF 4
ENDMDL
MODEL 2
REMARK VINA RESULT:      -7.9      4.036      6.946
REMARK  4 active torsions:
REMARK  status: ('A' for Active; 'I' for Inactive)
REMARK    1  A    between atoms: C2_2  and  C3_3 
REMARK    2  A    between atoms: C3_3  and  N1_4 
REMARK    3  A    between atoms: C12_15  and  N4_16 
REMARK    4  A    between atoms: N4_16  and  C13_17 
ROOT
HETATM    1  N1  UNL     1      25.417   1.950  51.823  1.00  0.00    -0.365 N 
HETATM    2  C4  UNL     1      26.559   2.098  52.630  1.00  0.00     0.084 C 
HETATM    3  C5  UNL     1      27.604   2.301  53.428  1.00  0.00    -0.010 C 
HETATM    4  C6  UNL     1      28.867   1.448  53.462  1.00  0.00     0.030 C 
HETATM    5  C7  UNL     1      28.704   0.559  54.799  1.00  0.00     0.023 C 
HETATM    6  C8  UNL     1      27.368   0.127  54.538  1.00  0.00     0.114 C 
HETATM    7  N2  UNL     1      26.351  -0.667  55.001  1.00  0.00    -0.413 N 
HETATM    8  C9  UNL     1      25.095  -0.560  54.239  1.00  0.00     0.181 C 
HETATM    9  C10 UNL     1      24.451   0.067  53.155  1.00  0.00     0.083 C 
HETATM   10  C11 UNL     1      23.149  -0.636  53.351  1.00  0.00    -0.009 C 
HETATM   11  N3  UNL     1      22.107  -1.211  53.519  1.00  0.00    -0.101 N 
HETATM   12  C12 UNL     1      24.313   0.994  51.966  1.00  0.00     0.203 C 
HETATM   13  H14 UNL     1      25.881  -1.344  55.592  1.00  0.00     0.153 HD
ENDROOT
BRANCH  12  14
HETATM   14  N4  UNL     1      23.152   1.831  52.126  1.00  0.00    -0.367 N 
HETATM   15  H17 UNL     1      23.139   2.510  52.948  1.00  0.00     0.161 HD
BRANCH  14  16
HETATM   16  C13 UNL     1      21.990   1.865  51.313  1.00  0.00     0.031 A 
HETATM   17  C14 UNL     1      21.840   1.187  50.123  1.00  0.00     0.032 A 
HETATM   18  C15 UNL     1      20.739   1.192  49.300  1.00  0.00     0.046 A 
HETATM   19  C16 UNL     1      19.701   1.970  49.753  1.00  0.00     0.138 A 
HETATM   20  F1  UNL     1      18.533   2.080  49.048  1.00  0.00    -0.204 F 
HETATM   21  C17 UNL     1      19.727   2.694  50.924  1.00  0.00     0.074 A 
HETATM   22 CL1  UNL     1      18.410   3.690  51.509  1.00  0.00    -0.081 Cl
HETATM   23  C18 UNL     1      20.883   2.611  51.666  1.00  0.00     0.056 A 
ENDBRANCH  14  16
ENDBRANCH  12  14
BRANCH   1  24
HETATM   24  C3  UNL     1      25.247   2.871  50.685  1.00  0.00     0.151 C 
BRANCH  24  25
HETATM   25  C2  UNL     1      26.526   3.100  50.011  1.00  0.00    -0.017 C 
HETATM   26  C1  UNL     1      26.940   4.130  49.235  1.00  0.00     0.008 C 
ENDBRANCH  24  25
ENDBRANCH   1  24
TORSDOF 4
ENDMDL
MODEL 3
REMARK VINA RESULT:      -7.9      1.789      3.855
REMARK  4 active torsions:
REMARK  status: ('A' for Active; 'I' for Inactive)
REMARK    1  A    between atoms: C2_2  and  C3_3 
REMARK    2  A    between atoms: C3_3  and  N1_4 
REMARK    3  A    between atoms: C12_15  and  N4_16 
REMARK    4  A    between atoms: N4_16  and  C13_17 
ROOT
HETATM    1  N1  UNL     1      23.234   0.843  52.730  1.00  0.00    -0.365 N 
HETATM    2  C4  UNL     1      21.955   1.427  52.696  1.00  0.00     0.084 C 
HETATM    3  C5  UNL     1      20.763   2.015  52.733  1.00  0.00    -0.010 C 
HETATM    4  C6  UNL     1      19.681   1.884  51.667  1.00  0.00     0.030 C 
HETATM    5  C7  UNL     1      19.747   3.284  50.868  1.00  0.00     0.023 C 
HETATM    6  C8  UNL     1      21.162   3.289  50.677  1.00  0.00     0.114 C 
HETATM    7  N2  UNL     1      22.198   3.973  50.096  1.00  0.00    -0.413 N 
HETATM    8  C9  UNL     1      23.535   3.437  50.403  1.00  0.00     0.181 C 
HETATM    9  C10 UNL     1      24.250   2.443  51.099  1.00  0.00     0.083 C 
HETATM   10  C11 UNL     1      25.594   2.909  50.650  1.00  0.00    -0.009 C 
HETATM   11  N3  UNL     1      26.672   3.294  50.280  1.00  0.00    -0.101 N 
HETATM   12  C12 UNL     1      24.442   1.238  51.995  1.00  0.00     0.203 C 
HETATM   13  H14 UNL     1      22.662   4.681  49.535  1.00  0.00     0.153 HD
ENDROOT
BRANCH  12  14
HETATM   14  N4  UNL     1      25.391   1.542  53.033  1.00  0.00    -0.367 N 
HETATM   15  H17 UNL     1      25.117   2.275  53.759  1.00  0.00     0.161 HD
BRANCH  14  16
HETATM   16  C13 UNL     1      26.682   0.984  53.218  1.00  0.00     0.031 A 
HETATM   17  C14 UNL     1      27.800   1.692  53.601  1.00  0.00     0.032 A 
HETATM   18  C15 UNL     1      29.069   1.199  53.787  1.00  0.00     0.046 A 
HETATM   19  C16 UNL     1      29.189  -0.150  53.556  1.00  0.00     0.138 A 
HETATM   20  F1  UNL     1      30.389  -0.794  53.698  1.00  0.00    -0.204 F 
HETATM   21  C17 UNL     1      28.150  -0.967  53.170  1.00  0.00     0.074 A 
HETATM   22 CL1  UNL     1      28.293  -2.687  52.869  1.00  0.00    -0.081 Cl
HETATM   23  C18 UNL     1      26.923  -0.360  53.015  1.00  0.00     0.056 A 
ENDBRANCH  14  16
ENDBRANCH  12  14
BRANCH   1  24
HETATM   24  C3  UNL     1      23.449  -0.306  53.628  1.00  0.00     0.151 C 
BRANCH  24  25
HETATM   25  C2  UNL     1      22.298  -1.211  53.593  1.00  0.00    -0.017 C 
HETATM   26  C1  UNL     1      21.513  -1.676  54.594  1.00  0.00     0.008 C 
ENDBRANCH  24  25
ENDBRANCH   1  24
TORSDOF 4
ENDMDL
MODEL 4
REMARK VINA RESULT:      -7.6      3.800      5.039
REMARK  4 active torsions:
REMARK  status: ('A' for Active; 'I' for Inactive)
REMARK    1  A    between atoms: C2_2  and  C3_3 
REMARK    2  A    between atoms: C3_3  and  N1_4 
REMARK    3  A    between atoms: C12_15  and  N4_16 
REMARK    4  A    between atoms: N4_16  and  C13_17 
ROOT
HETATM    1  N1  UNL     1      22.890   2.237  51.710  1.00  0.00    -0.365 N 
HETATM    2  C4  UNL     1      22.210   1.082  52.139  1.00  0.00     0.084 C 
HETATM    3  C5  UNL     1      21.576  -0.039  52.470  1.00  0.00    -0.010 C 
HETATM    4  C6  UNL     1      21.019  -0.363  53.851  1.00  0.00     0.030 C 
HETATM    5  C7  UNL     1      22.076  -1.417  54.464  1.00  0.00     0.023 C 
HETATM    6  C8  UNL     1      23.248  -0.664  54.152  1.00  0.00     0.114 C 
HETATM    7  N2  UNL     1      24.613  -0.634  54.281  1.00  0.00    -0.413 N 
HETATM    8  C9  UNL     1      25.272   0.477  53.574  1.00  0.00     0.181 C 
HETATM    9  C10 UNL     1      25.072   1.606  52.756  1.00  0.00     0.083 C 
HETATM   10  C11 UNL     1      26.519   1.964  52.672  1.00  0.00    -0.009 C 
HETATM   11  N3  UNL     1      27.687   2.243  52.614  1.00  0.00    -0.101 N 
HETATM   12  C12 UNL     1      24.287   2.618  51.948  1.00  0.00     0.203 C 
HETATM   13  H14 UNL     1      25.535  -0.925  54.587  1.00  0.00     0.153 HD
ENDROOT
BRANCH  12  14
HETATM   14  N4  UNL     1      24.842   2.729  50.624  1.00  0.00    -0.367 N 
HETATM   15  H17 UNL     1      24.737   1.894  49.969  1.00  0.00     0.161 HD
BRANCH  14  16
HETATM   16  C13 UNL     1      25.535   3.833  50.065  1.00  0.00     0.031 A 
HETATM   17  C14 UNL     1      26.695   3.744  49.328  1.00  0.00     0.032 A 
HETATM   18  C15 UNL     1      27.405   4.782  48.772  1.00  0.00     0.046 A 
HETATM   19  C16 UNL     1      26.861   6.023  49.000  1.00  0.00     0.138 A 
HETATM   20  F1  UNL     1      27.448   7.159  48.512  1.00  0.00    -0.204 F 
HETATM   21  C17 UNL     1      25.708   6.244  49.719  1.00  0.00     0.074 A 
HETATM   22 CL1  UNL     1      25.008   7.822  50.020  1.00  0.00    -0.081 Cl
HETATM   23  C18 UNL     1      25.083   5.128  50.228  1.00  0.00     0.056 A 
ENDBRANCH  14  16
ENDBRANCH  12  14
BRANCH   1  24
HETATM   24  C3  UNL     1      22.152   3.213  50.889  1.00  0.00     0.151 C 
BRANCH  24  25
HETATM   25  C2  UNL     1      21.747   4.366  51.696  1.00  0.00    -0.017 C 
HETATM   26  C1  UNL     1      21.631   5.674  51.367  1.00  0.00     0.008 C 
ENDBRANCH  24  25
ENDBRANCH   1  24
TORSDOF 4
ENDMDL
MODEL 5
REMARK VINA RESULT:      -7.2      3.785      5.502
REMARK  4 active torsions:
REMARK  status: ('A' for Active; 'I' for Inactive)
REMARK    1  A    between atoms: C2_2  and  C3_3 
REMARK    2  A    between atoms: C3_3  and  N1_4 
REMARK    3  A    between atoms: C12_15  and  N4_16 
REMARK    4  A    between atoms: N4_16  and  C13_17 
ROOT
HETATM    1  N1  UNL     1      22.565   1.581  51.818  1.00  0.00    -0.365 N 
HETATM    2  C4  UNL     1      21.354   1.183  52.414  1.00  0.00     0.084 C 
HETATM    3  C5  UNL     1      20.204   0.882  53.009  1.00  0.00    -0.010 C 
HETATM    4  C6  UNL     1      19.488  -0.461  52.916  1.00  0.00     0.030 C 
HETATM    5  C7  UNL     1      18.268  -0.186  51.898  1.00  0.00     0.023 C 
HETATM    6  C8  UNL     1      19.047   0.458  50.889  1.00  0.00     0.114 C 
HETATM    7  N2  UNL     1      18.997   1.012  49.636  1.00  0.00    -0.413 N 
HETATM    8  C9  UNL     1      20.253   1.642  49.193  1.00  0.00     0.181 C 
HETATM    9  C10 UNL     1      21.583   1.940  49.547  1.00  0.00     0.083 C 
HETATM   10  C11 UNL     1      21.909   2.628  48.263  1.00  0.00    -0.009 C 
HETATM   11  N3  UNL     1      22.159   3.178  47.224  1.00  0.00    -0.101 N 
HETATM   12  C12 UNL     1      22.815   1.972  50.426  1.00  0.00     0.203 C 
HETATM   13  H14 UNL     1      18.601   1.282  48.742  1.00  0.00     0.153 HD
ENDROOT
BRANCH  12  14
HETATM   14  N4  UNL     1      23.311   3.319  50.532  1.00  0.00    -0.367 N 
HETATM   15  H17 UNL     1      22.732   4.019  51.091  1.00  0.00     0.161 HD
BRANCH  14  16
HETATM   16  C13 UNL     1      24.498   3.851  49.967  1.00  0.00     0.031 A 
HETATM   17  C14 UNL     1      25.719   3.213  49.950  1.00  0.00     0.032 A 
HETATM   18  C15 UNL     1      26.896   3.688  49.422  1.00  0.00     0.046 A 
HETATM   19  C16 UNL     1      26.796   4.938  48.859  1.00  0.00     0.138 A 
HETATM   20  F1  UNL     1      27.879   5.551  48.289  1.00  0.00    -0.204 F 
HETATM   21  C17 UNL     1      25.635   5.677  48.812  1.00  0.00     0.074 A 
HETATM   22 CL1  UNL     1      25.499   7.272  48.100  1.00  0.00    -0.081 Cl
HETATM   23  C18 UNL     1      24.520   5.098  49.373  1.00  0.00     0.056 A 
ENDBRANCH  14  16
ENDBRANCH  12  14
BRANCH   1  24
HETATM   24  C3  UNL     1      23.766   1.656  52.669  1.00  0.00     0.151 C 
BRANCH  24  25
HETATM   25  C2  UNL     1      24.055   0.352  53.271  1.00  0.00    -0.017 C 
HETATM   26  C1  UNL     1      25.230  -0.297  53.444  1.00  0.00     0.008 C 
ENDBRANCH  24  25
ENDBRANCH   1  24
TORSDOF 4
ENDMDL
MODEL 6
REMARK VINA RESULT:      -6.9      3.259      5.262
REMARK  4 active torsions:
REMARK  status: ('A' for Active; 'I' for Inactive)
REMARK    1  A    between atoms: C2_2  and  C3_3 
REMARK    2  A    between atoms: C3_3  and  N1_4 
REMARK    3  A    between atoms: C12_15  and  N4_16 
REMARK    4  A    between atoms: N4_16  and  C13_17 
ROOT
HETATM    1  N1  UNL     1      23.791   1.295  52.255  1.00  0.00    -0.365 N 
HETATM    2  C4  UNL     1      23.289   0.332  53.148  1.00  0.00     0.084 C 
HETATM    3  C5  UNL     1      22.845  -0.536  54.054  1.00  0.00    -0.010 C 
HETATM    4  C6  UNL     1      22.053  -1.802  53.748  1.00  0.00     0.030 C 
HETATM    5  C7  UNL     1      20.538  -1.425  54.156  1.00  0.00     0.023 C 
HETATM    6  C8  UNL     1      20.493  -0.180  53.459  1.00  0.00     0.114 C 
HETATM    7  N2  UNL     1      19.682   0.875  53.127  1.00  0.00    -0.413 N 
HETATM    8  C9  UNL     1      20.361   1.969  52.411  1.00  0.00     0.181 C 
HETATM    9  C10 UNL     1      21.588   2.421  51.888  1.00  0.00     0.083 C 
HETATM   10  C11 UNL     1      21.042   3.708  51.367  1.00  0.00    -0.009 C 
HETATM   11  N3  UNL     1      20.589   4.740  50.949  1.00  0.00    -0.101 N 
HETATM   12  C12 UNL     1      23.066   2.369  51.565  1.00  0.00     0.203 C 
HETATM   13  H14 UNL     1      18.830   1.422  53.059  1.00  0.00     0.153 HD
ENDROOT
BRANCH  12  14
HETATM   14  N4  UNL     1      23.714   3.570  52.023  1.00  0.00    -0.367 N 
HETATM   15  H17 UNL     1      23.727   3.758  53.073  1.00  0.00     0.161 HD
BRANCH  14  16
HETATM   16  C13 UNL     1      24.347   4.566  51.237  1.00  0.00     0.031 A 
HETATM   17  C14 UNL     1      23.977   5.893  51.198  1.00  0.00     0.032 A 
HETATM   18  C15 UNL     1      24.554   6.892  50.451  1.00  0.00     0.046 A 
HETATM   19  C16 UNL     1      25.611   6.478  49.677  1.00  0.00     0.138 A 
HETATM   20  F1  UNL     1      26.294   7.353  48.876  1.00  0.00    -0.204 F 
HETATM   21  C17 UNL     1      26.078   5.183  49.629  1.00  0.00     0.074 A 
HETATM   22 CL1  UNL     1      27.422   4.645  48.643  1.00  0.00    -0.081 Cl
HETATM   23  C18 UNL     1      25.420   4.269  50.421  1.00  0.00     0.056 A 
ENDBRANCH  14  16
ENDBRANCH  12  14
BRANCH   1  24
HETATM   24  C3  UNL     1      25.235   1.284  51.960  1.00  0.00     0.151 C 
BRANCH  24  25
HETATM   25  C2  UNL     1      25.912   0.242  52.735  1.00  0.00    -0.017 C 
HETATM   26  C1  UNL     1      26.862  -0.651  52.368  1.00  0.00     0.008 C 
ENDBRANCH  24  25
ENDBRANCH   1  24
TORSDOF 4
ENDMDL
MODEL 7
REMARK VINA RESULT:      -6.8      3.926      6.768
REMARK  4 active torsions:
REMARK  status: ('A' for Active; 'I' for Inactive)
REMARK    1  A    between atoms: C2_2  and  C3_3 
REMARK    2  A    between atoms: C3_3  and  N1_4 
REMARK    3  A    between atoms: C12_15  and  N4_16 
REMARK    4  A    between atoms: N4_16  and  C13_17 
ROOT
HETATM    1  N1  UNL     1      23.345   4.271  49.624  1.00  0.00    -0.365 N 
HETATM    2  C4  UNL     1      23.744   5.553  49.205  1.00  0.00     0.084 C 
HETATM    3  C5  UNL     1      24.098   6.793  48.881  1.00  0.00    -0.010 C 
HETATM    4  C6  UNL     1      24.704   7.218  47.548  1.00  0.00     0.030 C 
HETATM    5  C7  UNL     1      26.268   7.433  47.878  1.00  0.00     0.023 C 
HETATM    6  C8  UNL     1      26.455   6.195  48.564  1.00  0.00     0.114 C 
HETATM    7  N2  UNL     1      27.388   5.399  49.178  1.00  0.00    -0.413 N 
HETATM    8  C9  UNL     1      26.837   4.194  49.822  1.00  0.00     0.181 C 
HETATM    9  C10 UNL     1      25.664   3.464  50.096  1.00  0.00     0.083 C 
HETATM   10  C11 UNL     1      26.359   2.375  50.842  1.00  0.00    -0.009 C 
HETATM   11  N3  UNL     1      26.931   1.503  51.440  1.00  0.00    -0.101 N 
HETATM   12  C12 UNL     1      24.182   3.155  50.079  1.00  0.00     0.203 C 
HETATM   13  H14 UNL     1      28.302   5.092  49.493  1.00  0.00     0.153 HD
ENDROOT
BRANCH  12  14
HETATM   14  N4  UNL     1      23.716   2.900  51.417  1.00  0.00    -0.367 N 
HETATM   15  H17 UNL     1      23.735   3.709  52.113  1.00  0.00     0.161 HD
BRANCH  14  16
HETATM   16  C13 UNL     1      23.229   1.678  51.947  1.00  0.00     0.031 A 
HETATM   17  C14 UNL     1      22.082   1.039  51.528  1.00  0.00     0.032 A 
HETATM   18  C15 UNL     1      21.567  -0.140  52.012  1.00  0.00     0.046 A 
HETATM   19  C16 UNL     1      22.310  -0.708  53.020  1.00  0.00     0.138 A 
HETATM   20  F1  UNL     1      21.931  -1.884  53.608  1.00  0.00    -0.204 F 
HETATM   21  C17 UNL     1      23.472  -0.169  53.525  1.00  0.00     0.074 A 
HETATM   22 CL1  UNL     1      24.424  -0.882  54.812  1.00  0.00    -0.081 Cl
HETATM   23  C18 UNL     1      23.891   1.015  52.961  1.00  0.00     0.056 A 
ENDBRANCH  14  16
ENDBRANCH  12  14
BRANCH   1  24
HETATM   24  C3  UNL     1      21.903   3.967  49.652  1.00  0.00     0.151 C 
BRANCH  24  25
HETATM   25  C2  UNL     1      21.501   3.259  48.434  1.00  0.00    -0.017 C 
HETATM   26  C1  UNL     1      20.947   2.034  48.270  1.00  0.00     0.008 C 
ENDBRANCH  24  25
ENDBRANCH   1  24
TORSDOF 4
ENDMDL
MODEL 8
REMARK VINA RESULT:      -6.8      4.279      7.520
REMARK  4 active torsions:
REMARK  status: ('A' for Active; 'I' for Inactive)
REMARK    1  A    between atoms: C2_2  and  C3_3 
REMARK    2  A    between atoms: C3_3  and  N1_4 
REMARK    3  A    between atoms: C12_15  and  N4_16 
REMARK    4  A    between atoms: N4_16  and  C13_17 
ROOT
HETATM    1  N1  UNL     1      23.499   0.866  52.905  1.00  0.00    -0.365 N 
HETATM    2  C4  UNL     1      24.578   0.209  53.523  1.00  0.00     0.084 C 
HETATM    3  C5  UNL     1      25.587  -0.474  54.057  1.00  0.00    -0.010 C 
HETATM    4  C6  UNL     1      26.479   0.014  55.193  1.00  0.00     0.030 C 
HETATM    5  C7  UNL     1      27.856   0.428  54.460  1.00  0.00     0.023 C 
HETATM    6  C8  UNL     1      27.255   1.210  53.428  1.00  0.00     0.114 C 
HETATM    7  N2  UNL     1      27.522   2.016  52.351  1.00  0.00    -0.413 N 
HETATM    8  C9  UNL     1      26.332   2.450  51.600  1.00  0.00     0.181 C 
HETATM    9  C10 UNL     1      24.929   2.375  51.515  1.00  0.00     0.083 C 
HETATM   10  C11 UNL     1      24.823   3.249  50.310  1.00  0.00    -0.009 C 
HETATM   11  N3  UNL     1      24.752   3.956  49.340  1.00  0.00    -0.101 N 
HETATM   12  C12 UNL     1      23.532   1.945  51.911  1.00  0.00     0.203 C 
HETATM   13  H14 UNL     1      28.077   2.549  51.690  1.00  0.00     0.153 HD
ENDROOT
BRANCH  12  14
HETATM   14  N4  UNL     1      22.848   1.386  50.774  1.00  0.00    -0.367 N 
HETATM   15  H17 UNL     1      23.182   0.441  50.409  1.00  0.00     0.161 HD
BRANCH  14  16
HETATM   16  C13 UNL     1      21.762   1.947  50.054  1.00  0.00     0.031 A 
HETATM   17  C14 UNL     1      21.624   1.914  48.684  1.00  0.00     0.032 A 
HETATM   18  C15 UNL     1      20.597   2.446  47.941  1.00  0.00     0.046 A 
HETATM   19  C16 UNL     1      19.625   3.067  48.688  1.00  0.00     0.138 A 
HETATM   20  F1  UNL     1      18.535   3.647  48.098  1.00  0.00    -0.204 F 
HETATM   21  C17 UNL     1      19.647   3.166  50.062  1.00  0.00     0.074 A 
HETATM   22 CL1  UNL     1      18.415   3.958  51.023  1.00  0.00    -0.081 Cl
HETATM   23  C18 UNL     1      20.726   2.595  50.697  1.00  0.00     0.056 A 
ENDBRANCH  14  16
ENDBRANCH  12  14
BRANCH   1  24
HETATM   24  C3  UNL     1      22.133   0.433  53.249  1.00  0.00     0.151 C 
BRANCH  24  25
HETATM   25  C2  UNL     1      22.092  -1.013  53.475  1.00  0.00    -0.017 C 
HETATM   26  C1  UNL     1      21.623  -1.727  54.526  1.00  0.00     0.008 C 
ENDBRANCH  24  25
ENDBRANCH   1  24
TORSDOF 4
ENDMDL
MODEL 9
REMARK VINA RESULT:      -6.7      4.335      7.387
REMARK  4 active torsions:
REMARK  status: ('A' for Active; 'I' for Inactive)
REMARK    1  A    between atoms: C2_2  and  C3_3 
REMARK    2  A    between atoms: C3_3  and  N1_4 
REMARK    3  A    between atoms: C12_15  and  N4_16 
REMARK    4  A    between atoms: N4_16  and  C13_17 
ROOT
HETATM    1  N1  UNL     1      23.551   1.083  52.436  1.00  0.00    -0.365 N 
HETATM    2  C4  UNL     1      24.486   0.292  53.128  1.00  0.00     0.084 C 
HETATM    3  C5  UNL     1      25.361  -0.512  53.725  1.00  0.00    -0.010 C 
HETATM    4  C6  UNL     1      26.114  -0.196  55.012  1.00  0.00     0.030 C 
HETATM    5  C7  UNL     1      27.605   0.170  54.516  1.00  0.00     0.023 C 
HETATM    6  C8  UNL     1      27.209   1.083  53.492  1.00  0.00     0.114 C 
HETATM    7  N2  UNL     1      27.679   1.955  52.544  1.00  0.00    -0.413 N 
HETATM    8  C9  UNL     1      26.639   2.545  51.684  1.00  0.00     0.181 C 
HETATM    9  C10 UNL     1      25.260   2.588  51.403  1.00  0.00     0.083 C 
HETATM   10  C11 UNL     1      25.384   3.568  50.285  1.00  0.00    -0.009 C 
HETATM   11  N3  UNL     1      25.498   4.359  49.386  1.00  0.00    -0.101 N 
HETATM   12  C12 UNL     1      23.796   2.237  51.564  1.00  0.00     0.203 C 
HETATM   13  H14 UNL     1      28.356   2.497  52.018  1.00  0.00     0.153 HD
ENDROOT
BRANCH  12  14
HETATM   14  N4  UNL     1      23.244   1.834  50.297  1.00  0.00    -0.367 N 
HETATM   15  H17 UNL     1      23.570   0.905  49.886  1.00  0.00     0.161 HD
BRANCH  14  16
HETATM   16  C13 UNL     1      22.302   2.533  49.500  1.00  0.00     0.031 A 
HETATM   17  C14 UNL     1      21.130   3.086  49.967  1.00  0.00     0.032 A 
HETATM   18  C15 UNL     1      20.185   3.766  49.236  1.00  0.00     0.046 A 
HETATM   19  C16 UNL     1      20.485   3.885  47.900  1.00  0.00     0.138 A 
HETATM   20  F1  UNL     1      19.646   4.536  47.036  1.00  0.00    -0.204 F 
HETATM   21  C17 UNL     1      21.622   3.378  47.312  1.00  0.00     0.074 A 
HETATM   22 CL1  UNL     1      22.012   3.520  45.610  1.00  0.00    -0.081 Cl
HETATM   23  C18 UNL     1      22.496   2.716  48.145  1.00  0.00     0.056 A 
ENDBRANCH  14  16
ENDBRANCH  12  14
BRANCH   1  24
HETATM   24  C3  UNL     1      22.124   0.730  52.549  1.00  0.00     0.151 C 
BRANCH  24  25
HETATM   25  C2  UNL     1      21.825   0.212  53.885  1.00  0.00    -0.017 C 
HETATM   26  C1  UNL     1      20.991  -0.781  54.278  1.00  0.00     0.008 C 
ENDBRANCH  24  25
ENDBRANCH   1  24
TORSDOF 4
ENDMDL
