MODEL 1
REMARK VINA RESULT:      -7.9      0.000      0.000
REMARK  8 active torsions:
REMARK  status: ('A' for Active; 'I' for Inactive)
REMARK    1  A    between atoms: O1_2  and  C2_3 
REMARK    2  A    between atoms: C11_14  and  N3_15 
REMARK    3  A    between atoms: N3_15  and  C12_16 
REMARK    4  A    between atoms: C12_16  and  C13_17 
REMARK    5  A    between atoms: C12_16  and  C14_19 
REMARK    6  A    between atoms: C15_20  and  C16_21 
REMARK    7  A    between atoms: N4_23  and  C18_24 
REMARK    8  A    between atoms: C18_24  and  C19_25 
ROOT
HETATM    1  C2  UNL     1      25.333   3.121  50.386  1.00  0.00     0.096 A 
HETATM    2  C3  UNL     1      24.383   2.972  49.398  1.00  0.00     0.071 A 
HETATM    3  C4  UNL     1      23.161   2.416  49.679  1.00  0.00     0.069 A 
HETATM    4  N1  UNL     1      22.264   2.286  48.705  1.00  0.00    -0.259 NA
HETATM    5  C5  UNL     1      21.037   1.750  48.891  1.00  0.00     0.140 A 
HETATM    6  C6  UNL     1      20.787   1.343  50.191  1.00  0.00     0.063 A 
HETATM    7  C7  UNL     1      19.507   0.762  50.482  1.00  0.00     0.101 C 
HETATM    8  N2  UNL     1      18.487   0.303  50.706  1.00  0.00    -0.191 NA
HETATM    9  C8  UNL     1      21.679   1.461  51.213  1.00  0.00     0.038 A 
HETATM   10  C9  UNL     1      22.910   2.012  50.969  1.00  0.00    -0.004 A 
HETATM   11  C10 UNL     1      23.879   2.175  51.925  1.00  0.00     0.046 A 
HETATM   12  C11 UNL     1      25.130   2.726  51.716  1.00  0.00     0.063 A 
ENDROOT
BRANCH  12  13
HETATM   13  N3  UNL     1      26.076   2.861  52.746  1.00  0.00    -0.373 N 
HETATM   14  H8  UNL     1      26.005   3.786  53.269  1.00  0.00     0.161 HD
BRANCH  13  15
HETATM   15  C12 UNL     1      27.060   1.893  53.103  1.00  0.00     0.166 C 
BRANCH  15  16
HETATM   16  C13 UNL     1      28.425   2.460  53.256  1.00  0.00     0.260 C 
HETATM   17  O2  UNL     1      28.811   2.461  54.422  1.00  0.00    -0.304 OA
ENDBRANCH  15  16
BRANCH  15  18
HETATM   18  C14 UNL     1      27.078   0.675  52.256  1.00  0.00     0.007 C 
HETATM   19  C15 UNL     1      26.399  -0.444  52.447  1.00  0.00     0.033 C 
BRANCH  19  20
HETATM   20  C16 UNL     1      25.488  -0.738  53.516  1.00  0.00     0.097 A 
HETATM   21  C17 UNL     1      24.107  -0.797  53.575  1.00  0.00     0.147 A 
HETATM   22  N4  UNL     1      23.698  -1.114  54.808  1.00  0.00    -0.258 N 
HETATM   23  N5  UNL     1      24.809  -1.256  55.527  1.00  0.00    -0.066 NA
HETATM   24  N6  UNL     1      25.858  -1.035  54.773  1.00  0.00    -0.131 NA
BRANCH  22  25
HETATM   25  C18 UNL     1      22.327  -1.263  55.226  1.00  0.00     0.183 C 
BRANCH  25  26
HETATM   26  C19 UNL     1      21.452  -0.268  54.491  1.00  0.00     0.244 C 
HETATM   27  F1  UNL     1      20.771  -0.920  53.466  1.00  0.00    -0.254 F 
ENDBRANCH  25  26
ENDBRANCH  22  25
ENDBRANCH  19  20
ENDBRANCH  15  18
ENDBRANCH  13  15
ENDBRANCH  12  13
BRANCH   1  28
HETATM   28  O1  UNL     1      26.585   3.689  50.102  1.00  0.00    -0.354 OA
HETATM   29  C1  UNL     1      26.661   4.683  49.102  1.00  0.00     0.210 C 
ENDBRANCH   1  28
TORSDOF 8
ENDMDL
MODEL 2
REMARK VINA RESULT:      -7.8      3.225      5.865
REMARK  8 active torsions:
REMARK  status: ('A' for Active; 'I' for Inactive)
REMARK    1  A    between atoms: O1_2  and  C2_3 
REMARK    2  A    between atoms: C11_14  and  N3_15 
REMARK    3  A    between atoms: N3_15  and  C12_16 
REMARK    4  A    between atoms: C12_16  and  C13_17 
REMARK    5  A    between atoms: C12_16  and  C14_19 
REMARK    6  A    between atoms: C15_20  and  C16_21 
REMARK    7  A    between atoms: N4_23  and  C18_24 
REMARK    8  A    between atoms: C18_24  and  C19_25 
ROOT
HETATM    1  C2  UNL     1      23.511   4.222  50.038  1.00  0.00     0.096 A 
HETATM    2  C3  UNL     1      23.986   5.384  49.466  1.00  0.00     0.071 A 
HETATM    3  C4  UNL     1      25.303   5.499  49.103  1.00  0.00     0.069 A 
HETATM    4  N1  UNL     1      25.732   6.632  48.554  1.00  0.00    -0.259 NA
HETATM    5  C5  UNL     1      27.012   6.834  48.167  1.00  0.00     0.140 A 
HETATM    6  C6  UNL     1      27.849   5.753  48.392  1.00  0.00     0.063 A 
HETATM    7  C7  UNL     1      29.227   5.877  48.011  1.00  0.00     0.101 C 
HETATM    8  N2  UNL     1      30.321   5.981  47.704  1.00  0.00    -0.191 NA
HETATM    9  C8  UNL     1      27.446   4.579  48.951  1.00  0.00     0.038 A 
HETATM   10  C9  UNL     1      26.136   4.428  49.325  1.00  0.00    -0.004 A 
HETATM   11  C10 UNL     1      25.630   3.290  49.896  1.00  0.00     0.046 A 
HETATM   12  C11 UNL     1      24.316   3.101  50.286  1.00  0.00     0.063 A 
ENDROOT
BRANCH  12  13
HETATM   13  N3  UNL     1      23.866   1.905  50.869  1.00  0.00    -0.373 N 
HETATM   14  H8  UNL     1      23.224   1.339  50.234  1.00  0.00     0.161 HD
BRANCH  13  15
HETATM   15  C12 UNL     1      24.199   1.439  52.174  1.00  0.00     0.166 C 
BRANCH  15  16
HETATM   16  C13 UNL     1      23.124   0.634  52.811  1.00  0.00     0.260 C 
HETATM   17  O2  UNL     1      23.559  -0.324  53.443  1.00  0.00    -0.304 OA
ENDBRANCH  15  16
BRANCH  15  18
HETATM   18  C14 UNL     1      24.710   2.478  53.100  1.00  0.00     0.007 C 
HETATM   19  C15 UNL     1      25.771   2.400  53.887  1.00  0.00     0.033 C 
BRANCH  19  20
HETATM   20  C16 UNL     1      26.672   1.292  54.025  1.00  0.00     0.097 A 
HETATM   21  C17 UNL     1      27.665   0.789  53.202  1.00  0.00     0.147 A 
HETATM   22  N4  UNL     1      28.248  -0.276  53.761  1.00  0.00    -0.258 N 
HETATM   23  N5  UNL     1      27.633  -0.450  54.928  1.00  0.00    -0.066 NA
HETATM   24  N6  UNL     1      26.709   0.466  55.084  1.00  0.00    -0.131 NA
BRANCH  22  25
HETATM   25  C18 UNL     1      29.321  -1.046  53.182  1.00  0.00     0.183 C 
BRANCH  25  26
HETATM   26  C19 UNL     1      29.050  -2.525  53.362  1.00  0.00     0.244 C 
HETATM   27  F1  UNL     1      27.958  -2.894  52.580  1.00  0.00    -0.254 F 
ENDBRANCH  25  26
ENDBRANCH  22  25
ENDBRANCH  19  20
ENDBRANCH  15  18
ENDBRANCH  13  15
ENDBRANCH  12  13
BRANCH   1  28
HETATM   28  O1  UNL     1      22.163   4.101  50.410  1.00  0.00    -0.354 OA
HETATM   29  C1  UNL     1      21.721   4.778  51.568  1.00  0.00     0.210 C 
ENDBRANCH   1  28
TORSDOF 8
ENDMDL
MODEL 3
REMARK VINA RESULT:      -7.7      2.494      5.873
REMARK  8 active torsions:
REMARK  status: ('A' for Active; 'I' for Inactive)
REMARK    1  A    between atoms: O1_2  and  C2_3 
REMARK    2  A    between atoms: C11_14  and  N3_15 
REMARK    3  A    between atoms: N3_15  and  C12_16 
REMARK    4  A    between atoms: C12_16  and  C13_17 
REMARK    5  A    between atoms: C12_16  and  C14_19 
REMARK    6  A    between atoms: C15_20  and  C16_21 
REMARK    7  A    between atoms: N4_23  and  C18_24 
REMARK    8  A    between atoms: C18_24  and  C19_25 
ROOT
HETATM    1  C2  UNL     1      24.027   2.993  52.514  1.00  0.00     0.096 A 
HETATM    2  C3  UNL     1      25.010   2.856  53.471  1.00  0.00     0.071 A 
HETATM    3  C4  UNL     1      25.883   1.800  53.432  1.00  0.00     0.069 A 
HETATM    4  N1  UNL     1      26.822   1.694  54.369  1.00  0.00    -0.259 NA
HETATM    5  C5  UNL     1      27.722   0.687  54.409  1.00  0.00     0.140 A 
HETATM    6  C6  UNL     1      27.588  -0.235  53.385  1.00  0.00     0.063 A 
HETATM    7  C7  UNL     1      28.504  -1.340  53.348  1.00  0.00     0.101 C 
HETATM    8  N2  UNL     1      29.236  -2.214  53.323  1.00  0.00    -0.191 NA
HETATM    9  C8  UNL     1      26.641  -0.160  52.410  1.00  0.00     0.038 A 
HETATM   10  C9  UNL     1      25.752   0.883  52.417  1.00  0.00    -0.004 A 
HETATM   11  C10 UNL     1      24.762   1.051  51.483  1.00  0.00     0.046 A 
HETATM   12  C11 UNL     1      23.848   2.088  51.458  1.00  0.00     0.063 A 
ENDROOT
BRANCH  12  13
HETATM   13  N3  UNL     1      22.857   2.196  50.469  1.00  0.00    -0.373 N 
HETATM   14  H8  UNL     1      23.092   2.903  49.707  1.00  0.00     0.161 HD
BRANCH  13  15
HETATM   15  C12 UNL     1      21.635   1.462  50.432  1.00  0.00     0.166 C 
BRANCH  15  16
HETATM   16  C13 UNL     1      21.202   1.096  49.059  1.00  0.00     0.260 C 
HETATM   17  O2  UNL     1      22.057   1.335  48.211  1.00  0.00    -0.304 OA
ENDBRANCH  15  16
BRANCH  15  18
HETATM   18  C14 UNL     1      20.519   2.060  51.204  1.00  0.00     0.007 C 
HETATM   19  C15 UNL     1      20.047   1.659  52.373  1.00  0.00     0.033 C 
BRANCH  19  20
HETATM   20  C16 UNL     1      20.505   0.551  53.162  1.00  0.00     0.097 A 
HETATM   21  C17 UNL     1      21.663   0.342  53.891  1.00  0.00     0.147 A 
HETATM   22  N4  UNL     1      21.645  -0.863  54.471  1.00  0.00    -0.258 N 
HETATM   23  N5  UNL     1      20.487  -1.415  54.114  1.00  0.00    -0.066 NA
HETATM   24  N6  UNL     1      19.819  -0.589  53.347  1.00  0.00    -0.131 NA
BRANCH  22  25
HETATM   25  C18 UNL     1      22.687  -1.410  55.303  1.00  0.00     0.183 C 
BRANCH  25  26
HETATM   26  C19 UNL     1      24.044  -1.049  54.735  1.00  0.00     0.244 C 
HETATM   27  F1  UNL     1      24.980  -1.007  55.766  1.00  0.00    -0.254 F 
ENDBRANCH  25  26
ENDBRANCH  22  25
ENDBRANCH  19  20
ENDBRANCH  15  18
ENDBRANCH  13  15
ENDBRANCH  12  13
BRANCH   1  28
HETATM   28  O1  UNL     1      23.131   4.073  52.550  1.00  0.00    -0.354 OA
HETATM   29  C1  UNL     1      23.523   5.293  51.956  1.00  0.00     0.210 C 
ENDBRANCH   1  28
TORSDOF 8
ENDMDL
MODEL 4
REMARK VINA RESULT:      -7.5      1.752      5.081
REMARK  8 active torsions:
REMARK  status: ('A' for Active; 'I' for Inactive)
REMARK    1  A    between atoms: O1_2  and  C2_3 
REMARK    2  A    between atoms: C11_14  and  N3_15 
REMARK    3  A    between atoms: N3_15  and  C12_16 
REMARK    4  A    between atoms: C12_16  and  C13_17 
REMARK    5  A    between atoms: C12_16  and  C14_19 
REMARK    6  A    between atoms: C15_20  and  C16_21 
REMARK    7  A    between atoms: N4_23  and  C18_24 
REMARK    8  A    between atoms: C18_24  and  C19_25 
ROOT
HETATM    1  C2  UNL     1      27.451   1.593  53.253  1.00  0.00     0.096 A 
HETATM    2  C3  UNL     1      27.136   0.598  54.154  1.00  0.00     0.071 A 
HETATM    3  C4  UNL     1      25.855   0.116  54.247  1.00  0.00     0.069 A 
HETATM    4  N1  UNL     1      25.581  -0.844  55.126  1.00  0.00    -0.259 NA
HETATM    5  C5  UNL     1      24.349  -1.376  55.285  1.00  0.00     0.140 A 
HETATM    6  C6  UNL     1      23.385  -0.836  54.450  1.00  0.00     0.063 A 
HETATM    7  C7  UNL     1      22.045  -1.343  54.549  1.00  0.00     0.101 C 
HETATM    8  N2  UNL     1      20.984  -1.751  54.632  1.00  0.00    -0.191 NA
HETATM    9  C8  UNL     1      23.629   0.146  53.539  1.00  0.00     0.038 A 
HETATM   10  C9  UNL     1      24.897   0.651  53.419  1.00  0.00    -0.004 A 
HETATM   11  C10 UNL     1      25.247   1.639  52.536  1.00  0.00     0.046 A 
HETATM   12  C11 UNL     1      26.513   2.173  52.386  1.00  0.00     0.063 A 
ENDROOT
BRANCH  12  13
HETATM   13  N3  UNL     1      26.800   3.188  51.459  1.00  0.00    -0.373 N 
HETATM   14  H8  UNL     1      27.700   3.717  51.674  1.00  0.00     0.161 HD
BRANCH  13  15
HETATM   15  C12 UNL     1      26.007   3.526  50.324  1.00  0.00     0.166 C 
BRANCH  15  16
HETATM   16  C13 UNL     1      26.751   3.466  49.039  1.00  0.00     0.260 C 
HETATM   17  O2  UNL     1      27.601   4.346  48.941  1.00  0.00    -0.304 OA
ENDBRANCH  15  16
BRANCH  15  18
HETATM   18  C14 UNL     1      25.246   4.793  50.445  1.00  0.00     0.007 C 
HETATM   19  C15 UNL     1      23.961   4.934  50.725  1.00  0.00     0.033 C 
BRANCH  19  20
HETATM   20  C16 UNL     1      23.007   3.892  50.977  1.00  0.00     0.097 A 
HETATM   21  C17 UNL     1      22.206   3.605  52.068  1.00  0.00     0.147 A 
HETATM   22  N4  UNL     1      21.467   2.515  51.839  1.00  0.00    -0.258 N 
HETATM   23  N5  UNL     1      21.794   2.112  50.614  1.00  0.00    -0.066 NA
HETATM   24  N6  UNL     1      22.696   2.916  50.107  1.00  0.00    -0.131 NA
BRANCH  22  25
HETATM   25  C18 UNL     1      20.522   1.933  52.759  1.00  0.00     0.183 C 
BRANCH  25  26
HETATM   26  C19 UNL     1      19.493   1.122  51.999  1.00  0.00     0.244 C 
HETATM   27  F1  UNL     1      19.890  -0.213  51.965  1.00  0.00    -0.254 F 
ENDBRANCH  25  26
ENDBRANCH  22  25
ENDBRANCH  19  20
ENDBRANCH  15  18
ENDBRANCH  13  15
ENDBRANCH  12  13
BRANCH   1  28
HETATM   28  O1  UNL     1      28.761   2.088  53.156  1.00  0.00    -0.354 OA
HETATM   29  C1  UNL     1      29.556   2.121  54.322  1.00  0.00     0.210 C 
ENDBRANCH   1  28
TORSDOF 8
ENDMDL
MODEL 5
REMARK VINA RESULT:      -7.5      3.194      5.723
REMARK  8 active torsions:
REMARK  status: ('A' for Active; 'I' for Inactive)
REMARK    1  A    between atoms: O1_2  and  C2_3 
REMARK    2  A    between atoms: C11_14  and  N3_15 
REMARK    3  A    between atoms: N3_15  and  C12_16 
REMARK    4  A    between atoms: C12_16  and  C13_17 
REMARK    5  A    between atoms: C12_16  and  C14_19 
REMARK    6  A    between atoms: C15_20  and  C16_21 
REMARK    7  A    between atoms: N4_23  and  C18_24 
REMARK    8  A    between atoms: C18_24  and  C19_25 
ROOT
HETATM    1  C2  UNL     1      22.979   4.365  51.376  1.00  0.00     0.096 A 
HETATM    2  C3  UNL     1      23.438   5.352  50.530  1.00  0.00     0.071 A 
HETATM    3  C4  UNL     1      24.700   5.287  49.997  1.00  0.00     0.069 A 
HETATM    4  N1  UNL     1      25.116   6.255  49.183  1.00  0.00    -0.259 NA
HETATM    5  C5  UNL     1      26.342   6.273  48.615  1.00  0.00     0.140 A 
HETATM    6  C6  UNL     1      27.139   5.191  48.951  1.00  0.00     0.063 A 
HETATM    7  C7  UNL     1      28.460   5.126  48.392  1.00  0.00     0.101 C 
HETATM    8  N2  UNL     1      29.507   5.080  47.942  1.00  0.00    -0.191 NA
HETATM    9  C8  UNL     1      26.748   4.183  49.779  1.00  0.00     0.038 A 
HETATM   10  C9  UNL     1      25.493   4.215  50.329  1.00  0.00    -0.004 A 
HETATM   11  C10 UNL     1      25.004   3.253  51.174  1.00  0.00     0.046 A 
HETATM   12  C11 UNL     1      23.745   3.251  51.747  1.00  0.00     0.063 A 
ENDROOT
BRANCH  12  13
HETATM   13  N3  UNL     1      23.310   2.230  52.608  1.00  0.00    -0.373 N 
HETATM   14  H8  UNL     1      23.163   2.555  53.611  1.00  0.00     0.161 HD
BRANCH  13  15
HETATM   15  C12 UNL     1      23.070   0.874  52.235  1.00  0.00     0.166 C 
BRANCH  15  16
HETATM   16  C13 UNL     1      22.036   0.722  51.179  1.00  0.00     0.260 C 
HETATM   17  O2  UNL     1      21.020   0.165  51.586  1.00  0.00    -0.304 OA
ENDBRANCH  15  16
BRANCH  15  18
HETATM   18  C14 UNL     1      22.822  -0.053  53.366  1.00  0.00     0.007 C 
HETATM   19  C15 UNL     1      23.725  -0.666  54.113  1.00  0.00     0.033 C 
BRANCH  19  20
HETATM   20  C16 UNL     1      25.153  -0.576  54.001  1.00  0.00     0.097 A 
HETATM   21  C17 UNL     1      26.093   0.195  54.662  1.00  0.00     0.147 A 
HETATM   22  N4  UNL     1      27.324  -0.069  54.211  1.00  0.00    -0.258 N 
HETATM   23  N5  UNL     1      27.168  -1.001  53.273  1.00  0.00    -0.066 NA
HETATM   24  N6  UNL     1      25.898  -1.298  53.148  1.00  0.00    -0.131 NA
BRANCH  22  25
HETATM   25  C18 UNL     1      28.539   0.549  54.676  1.00  0.00     0.183 C 
BRANCH  25  26
HETATM   26  C19 UNL     1      28.981   1.619  53.699  1.00  0.00     0.244 C 
HETATM   27  F1  UNL     1      28.206   2.761  53.883  1.00  0.00    -0.254 F 
ENDBRANCH  25  26
ENDBRANCH  22  25
ENDBRANCH  19  20
ENDBRANCH  15  18
ENDBRANCH  13  15
ENDBRANCH  12  13
BRANCH   1  28
HETATM   28  O1  UNL     1      21.688   4.428  51.923  1.00  0.00    -0.354 OA
HETATM   29  C1  UNL     1      20.583   4.260  51.060  1.00  0.00     0.210 C 
ENDBRANCH   1  28
TORSDOF 8
ENDMDL
MODEL 6
REMARK VINA RESULT:      -7.4      2.973      5.855
REMARK  8 active torsions:
REMARK  status: ('A' for Active; 'I' for Inactive)
REMARK    1  A    between atoms: O1_2  and  C2_3 
REMARK    2  A    between atoms: C11_14  and  N3_15 
REMARK    3  A    between atoms: N3_15  and  C12_16 
REMARK    4  A    between atoms: C12_16  and  C13_17 
REMARK    5  A    between atoms: C12_16  and  C14_19 
REMARK    6  A    between atoms: C15_20  and  C16_21 
REMARK    7  A    between atoms: N4_23  and  C18_24 
REMARK    8  A    between atoms: C18_24  and  C19_25 
ROOT
HETATM    1  C2  UNL     1      25.890   0.587  52.569  1.00  0.00     0.096 A 
HETATM    2  C3  UNL     1      26.698   1.423  51.828  1.00  0.00     0.071 A 
HETATM    3  C4  UNL     1      26.156   2.428  51.068  1.00  0.00     0.069 A 
HETATM    4  N1  UNL     1      26.960   3.219  50.362  1.00  0.00    -0.259 NA
HETATM    5  C5  UNL     1      26.514   4.232  49.586  1.00  0.00     0.140 A 
HETATM    6  C6  UNL     1      25.137   4.381  49.584  1.00  0.00     0.063 A 
HETATM    7  C7  UNL     1      24.573   5.433  48.788  1.00  0.00     0.101 C 
HETATM    8  N2  UNL     1      24.132   6.272  48.154  1.00  0.00    -0.191 NA
HETATM    9  C8  UNL     1      24.283   3.591  50.293  1.00  0.00     0.038 A 
HETATM   10  C9  UNL     1      24.789   2.577  51.064  1.00  0.00    -0.004 A 
HETATM   11  C10 UNL     1      24.018   1.727  51.813  1.00  0.00     0.046 A 
HETATM   12  C11 UNL     1      24.493   0.695  52.602  1.00  0.00     0.063 A 
ENDROOT
BRANCH  12  13
HETATM   13  N3  UNL     1      23.641  -0.140  53.344  1.00  0.00    -0.373 N 
HETATM   14  H8  UNL     1      24.133  -0.993  53.751  1.00  0.00     0.161 HD
BRANCH  13  15
HETATM   15  C12 UNL     1      22.250   0.076  53.566  1.00  0.00     0.166 C 
BRANCH  15  16
HETATM   16  C13 UNL     1      21.788  -0.354  54.910  1.00  0.00     0.260 C 
HETATM   17  O2  UNL     1      22.334  -1.385  55.293  1.00  0.00    -0.304 OA
ENDBRANCH  15  16
BRANCH  15  18
HETATM   18  C14 UNL     1      21.356  -0.442  52.501  1.00  0.00     0.007 C 
HETATM   19  C15 UNL     1      20.577   0.261  51.695  1.00  0.00     0.033 C 
BRANCH  19  20
HETATM   20  C16 UNL     1      20.417   1.687  51.666  1.00  0.00     0.097 A 
HETATM   21  C17 UNL     1      20.778   2.647  50.737  1.00  0.00     0.147 A 
HETATM   22  N4  UNL     1      20.416   3.866  51.150  1.00  0.00    -0.258 N 
HETATM   23  N5  UNL     1      19.830   3.684  52.331  1.00  0.00    -0.066 NA
HETATM   24  N6  UNL     1      19.831   2.409  52.635  1.00  0.00    -0.131 NA
BRANCH  22  25
HETATM   25  C18 UNL     1      20.634   5.096  50.431  1.00  0.00     0.183 C 
BRANCH  25  26
HETATM   26  C19 UNL     1      21.545   6.006  51.228  1.00  0.00     0.244 C 
HETATM   27  F1  UNL     1      22.352   5.236  52.064  1.00  0.00    -0.254 F 
ENDBRANCH  25  26
ENDBRANCH  22  25
ENDBRANCH  19  20
ENDBRANCH  15  18
ENDBRANCH  13  15
ENDBRANCH  12  13
BRANCH   1  28
HETATM   28  O1  UNL     1      26.442  -0.442  53.349  1.00  0.00    -0.354 OA
HETATM   29  C1  UNL     1      27.463  -0.117  54.268  1.00  0.00     0.210 C 
ENDBRANCH   1  28
TORSDOF 8
ENDMDL
MODEL 7
REMARK VINA RESULT:      -7.3      3.048      6.952
REMARK  8 active torsions:
REMARK  status: ('A' for Active; 'I' for Inactive)
REMARK    1  A    between atoms: O1_2  and  C2_3 
REMARK    2  A    between atoms: C11_14  and  N3_15 
REMARK    3  A    between atoms: N3_15  and  C12_16 
REMARK    4  A    between atoms: C12_16  and  C13_17 
REMARK    5  A    between atoms: C12_16  and  C14_19 
REMARK    6  A    between atoms: C15_20  and  C16_21 
REMARK    7  A    between atoms: N4_23  and  C18_24 
REMARK    8  A    between atoms: C18_24  and  C19_25 
ROOT
HETATM    1  C2  UNL     1      23.894   2.052  52.807  1.00  0.00     0.096 A 
HETATM    2  C3  UNL     1      25.166   2.555  52.981  1.00  0.00     0.071 A 
HETATM    3  C4  UNL     1      26.232   1.714  53.168  1.00  0.00     0.069 A 
HETATM    4  N1  UNL     1      27.448   2.229  53.334  1.00  0.00    -0.259 NA
HETATM    5  C5  UNL     1      28.555   1.476  53.525  1.00  0.00     0.140 A 
HETATM    6  C6  UNL     1      28.318   0.112  53.536  1.00  0.00     0.063 A 
HETATM    7  C7  UNL     1      29.436  -0.766  53.732  1.00  0.00     0.101 C 
HETATM    8  N2  UNL     1      30.330  -1.458  53.887  1.00  0.00    -0.191 NA
HETATM    9  C8  UNL     1      27.089  -0.451  53.369  1.00  0.00     0.038 A 
HETATM   10  C9  UNL     1      26.000   0.359  53.179  1.00  0.00    -0.004 A 
HETATM   11  C10 UNL     1      24.722  -0.105  53.004  1.00  0.00     0.046 A 
HETATM   12  C11 UNL     1      23.601   0.681  52.809  1.00  0.00     0.063 A 
ENDROOT
BRANCH  12  13
HETATM   13  N3  UNL     1      22.318   0.135  52.637  1.00  0.00    -0.373 N 
HETATM   14  H8  UNL     1      22.181  -0.337  51.692  1.00  0.00     0.161 HD
BRANCH  13  15
HETATM   15  C12 UNL     1      21.261   0.177  53.594  1.00  0.00     0.166 C 
BRANCH  15  16
HETATM   16  C13 UNL     1      21.558  -0.575  54.840  1.00  0.00     0.260 C 
HETATM   17  O2  UNL     1      21.144  -1.730  54.808  1.00  0.00    -0.304 OA
ENDBRANCH  15  16
BRANCH  15  18
HETATM   18  C14 UNL     1      19.921  -0.171  53.064  1.00  0.00     0.007 C 
HETATM   19  C15 UNL     1      19.185   0.532  52.218  1.00  0.00     0.033 C 
BRANCH  19  20
HETATM   20  C16 UNL     1      19.515   1.793  51.620  1.00  0.00     0.097 A 
HETATM   21  C17 UNL     1      20.153   2.126  50.438  1.00  0.00     0.147 A 
HETATM   22  N4  UNL     1      20.235   3.454  50.301  1.00  0.00    -0.258 N 
HETATM   23  N5  UNL     1      19.653   3.962  51.386  1.00  0.00    -0.066 NA
HETATM   24  N6  UNL     1      19.232   2.991  52.159  1.00  0.00    -0.131 NA
BRANCH  22  25
HETATM   25  C18 UNL     1      20.835   4.148  49.191  1.00  0.00     0.183 C 
BRANCH  25  26
HETATM   26  C19 UNL     1      21.871   3.264  48.528  1.00  0.00     0.244 C 
HETATM   27  F1  UNL     1      23.141   3.626  48.972  1.00  0.00    -0.254 F 
ENDBRANCH  25  26
ENDBRANCH  22  25
ENDBRANCH  19  20
ENDBRANCH  15  18
ENDBRANCH  13  15
ENDBRANCH  12  13
BRANCH   1  28
HETATM   28  O1  UNL     1      22.800   2.910  52.614  1.00  0.00    -0.354 OA
HETATM   29  C1  UNL     1      23.051   4.282  52.394  1.00  0.00     0.210 C 
ENDBRANCH   1  28
TORSDOF 8
ENDMDL
MODEL 8
REMARK VINA RESULT:      -7.2      3.298      6.299
REMARK  8 active torsions:
REMARK  status: ('A' for Active; 'I' for Inactive)
REMARK    1  A    between atoms: O1_2  and  C2_3 
REMARK    2  A    between atoms: C11_14  and  N3_15 
REMARK    3  A    between atoms: N3_15  and  C12_16 
REMARK    4  A    between atoms: C12_16  and  C13_17 
REMARK    5  A    between atoms: C12_16  and  C14_19 
REMARK    6  A    between atoms: C15_20  and  C16_21 
REMARK    7  A    between atoms: N4_23  and  C18_24 
REMARK    8  A    between atoms: C18_24  and  C19_25 
ROOT
HETATM    1  C2  UNL     1      23.384   5.626  49.589  1.00  0.00     0.096 A 
HETATM    2  C3  UNL     1      24.245   6.550  49.036  1.00  0.00     0.071 A 
HETATM    3  C4  UNL     1      25.560   6.234  48.809  1.00  0.00     0.069 A 
HETATM    4  N1  UNL     1      26.368   7.146  48.274  1.00  0.00    -0.259 NA
HETATM    5  C5  UNL     1      27.676   6.922  48.017  1.00  0.00     0.140 A 
HETATM    6  C6  UNL     1      28.112   5.653  48.359  1.00  0.00     0.063 A 
HETATM    7  C7  UNL     1      29.489   5.326  48.121  1.00  0.00     0.101 C 
HETATM    8  N2  UNL     1      30.584   5.072  47.927  1.00  0.00    -0.191 NA
HETATM    9  C8  UNL     1      27.316   4.695  48.908  1.00  0.00     0.038 A 
HETATM   10  C9  UNL     1      25.996   4.975  49.148  1.00  0.00    -0.004 A 
HETATM   11  C10 UNL     1      25.112   4.083  49.697  1.00  0.00     0.046 A 
HETATM   12  C11 UNL     1      23.775   4.330  49.953  1.00  0.00     0.063 A 
ENDROOT
BRANCH  12  13
HETATM   13  N3  UNL     1      22.925   3.366  50.520  1.00  0.00    -0.373 N 
HETATM   14  H8  UNL     1      22.325   3.745  51.315  1.00  0.00     0.161 HD
BRANCH  13  15
HETATM   15  C12 UNL     1      22.828   2.002  50.117  1.00  0.00     0.166 C 
BRANCH  15  16
HETATM   16  C13 UNL     1      22.069   1.807  48.855  1.00  0.00     0.260 C 
HETATM   17  O2  UNL     1      21.380   0.791  48.867  1.00  0.00    -0.304 OA
ENDBRANCH  15  16
BRANCH  15  18
HETATM   18  C14 UNL     1      22.365   1.068  51.171  1.00  0.00     0.007 C 
HETATM   19  C15 UNL     1      23.015   0.706  52.265  1.00  0.00     0.033 C 
BRANCH  19  20
HETATM   20  C16 UNL     1      24.319   1.136  52.684  1.00  0.00     0.097 A 
HETATM   21  C17 UNL     1      25.566   0.540  52.608  1.00  0.00     0.147 A 
HETATM   22  N4  UNL     1      26.503   1.333  53.138  1.00  0.00    -0.258 N 
HETATM   23  N5  UNL     1      25.859   2.424  53.547  1.00  0.00    -0.066 NA
HETATM   24  N6  UNL     1      24.580   2.309  53.283  1.00  0.00    -0.131 NA
BRANCH  22  25
HETATM   25  C18 UNL     1      27.909   1.029  53.225  1.00  0.00     0.183 C 
BRANCH  25  26
HETATM   26  C19 UNL     1      28.130  -0.124  54.182  1.00  0.00     0.244 C 
HETATM   27  F1  UNL     1      28.340  -1.294  53.457  1.00  0.00    -0.254 F 
ENDBRANCH  25  26
ENDBRANCH  22  25
ENDBRANCH  19  20
ENDBRANCH  15  18
ENDBRANCH  13  15
ENDBRANCH  12  13
BRANCH   1  28
HETATM   28  O1  UNL     1      22.037   5.946  49.822  1.00  0.00    -0.354 OA
HETATM   29  C1  UNL     1      21.741   7.015  50.697  1.00  0.00     0.210 C 
ENDBRANCH   1  28
TORSDOF 8
ENDMDL
MODEL 9
REMARK VINA RESULT:      -7.2      3.118      7.439
REMARK  8 active torsions:
REMARK  status: ('A' for Active; 'I' for Inactive)
REMARK    1  A    between atoms: O1_2  and  C2_3 
REMARK    2  A    between atoms: C11_14  and  N3_15 
REMARK    3  A    between atoms: N3_15  and  C12_16 
REMARK    4  A    between atoms: C12_16  and  C13_17 
REMARK    5  A    between atoms: C12_16  and  C14_19 
REMARK    6  A    between atoms: C15_20  and  C16_21 
REMARK    7  A    between atoms: N4_23  and  C18_24 
REMARK    8  A    between atoms: C18_24  and  C19_25 
ROOT
HETATM    1  C2  UNL     1      22.312   0.019  53.183  1.00  0.00     0.096 A 
HETATM    2  C3  UNL     1      23.502  -0.593  53.519  1.00  0.00     0.071 A 
HETATM    3  C4  UNL     1      24.676   0.114  53.523  1.00  0.00     0.069 A 
HETATM    4  N1  UNL     1      25.809  -0.503  53.851  1.00  0.00    -0.259 NA
HETATM    5  C5  UNL     1      27.011   0.115  53.881  1.00  0.00     0.140 A 
HETATM    6  C6  UNL     1      26.968   1.456  53.539  1.00  0.00     0.063 A 
HETATM    7  C7  UNL     1      28.200   2.193  53.544  1.00  0.00     0.101 C 
HETATM    8  N2  UNL     1      29.181   2.773  53.552  1.00  0.00    -0.191 NA
HETATM    9  C8  UNL     1      25.829   2.120  53.198  1.00  0.00     0.038 A 
HETATM   10  C9  UNL     1      24.637   1.446  53.183  1.00  0.00    -0.004 A 
HETATM   11  C10 UNL     1      23.437   2.020  52.855  1.00  0.00     0.046 A 
HETATM   12  C11 UNL     1      22.215   1.372  52.829  1.00  0.00     0.063 A 
ENDROOT
BRANCH  12  13
HETATM   13  N3  UNL     1      21.022   2.025  52.480  1.00  0.00    -0.373 N 
HETATM   14  H8  UNL     1      20.352   2.151  53.299  1.00  0.00     0.161 HD
BRANCH  13  15
HETATM   15  C12 UNL     1      20.681   2.496  51.178  1.00  0.00     0.166 C 
BRANCH  15  16
HETATM   16  C13 UNL     1      19.263   2.920  51.050  1.00  0.00     0.260 C 
HETATM   17  O2  UNL     1      18.825   3.429  52.079  1.00  0.00    -0.304 OA
ENDBRANCH  15  16
BRANCH  15  18
HETATM   18  C14 UNL     1      21.074   1.599  50.064  1.00  0.00     0.007 C 
HETATM   19  C15 UNL     1      21.983   1.830  49.130  1.00  0.00     0.033 C 
BRANCH  19  20
HETATM   20  C16 UNL     1      22.797   3.003  48.980  1.00  0.00     0.097 A 
HETATM   21  C17 UNL     1      24.063   3.323  49.437  1.00  0.00     0.147 A 
HETATM   22  N4  UNL     1      24.413   4.551  49.041  1.00  0.00    -0.258 N 
HETATM   23  N5  UNL     1      23.379   5.008  48.337  1.00  0.00    -0.066 NA
HETATM   24  N6  UNL     1      22.431   4.103  48.302  1.00  0.00    -0.131 NA
BRANCH  22  25
HETATM   25  C18 UNL     1      25.663   5.205  49.336  1.00  0.00     0.183 C 
BRANCH  25  26
HETATM   26  C19 UNL     1      25.415   6.435  50.183  1.00  0.00     0.244 C 
HETATM   27  F1  UNL     1      24.436   6.153  51.133  1.00  0.00    -0.254 F 
ENDBRANCH  25  26
ENDBRANCH  22  25
ENDBRANCH  19  20
ENDBRANCH  15  18
ENDBRANCH  13  15
ENDBRANCH  12  13
BRANCH   1  28
HETATM   28  O1  UNL     1      21.108  -0.702  53.178  1.00  0.00    -0.354 OA
HETATM   29  C1  UNL     1      20.805  -1.515  54.293  1.00  0.00     0.210 C 
ENDBRANCH   1  28
TORSDOF 8
ENDMDL
