MODEL 1
REMARK VINA RESULT:      -8.6      0.000      0.000
REMARK  1 active torsions:
REMARK  status: ('A' for Active; 'I' for Inactive)
REMARK    1  A    between atoms: O1_2  and  C2_3 
ROOT
HETATM    1  C2  UNL     1      26.263   6.316  49.023  1.00  0.00     0.097 A 
HETATM    2  C3  UNL     1      26.827   5.059  48.925  1.00  0.00     0.040 A 
HETATM    3  C4  UNL     1      28.112   4.797  48.516  1.00  0.00     0.010 A 
HETATM    4  C5  UNL     1      29.067   5.746  48.127  1.00  0.00    -0.054 A 
HETATM    5  C6  UNL     1      28.455   6.936  48.243  1.00  0.00     0.041 A 
HETATM    6  C7  UNL     1      27.139   7.265  48.659  1.00  0.00     0.093 A 
HETATM    7  N1  UNL     1      27.153   8.657  48.643  1.00  0.00    -0.228 N 
HETATM    8  C8  UNL     1      26.863   9.087  49.941  1.00  0.00     0.235 A 
HETATM    9  N2  UNL     1      27.354  10.314  49.987  1.00  0.00    -0.244 NA
HETATM   10  C9  UNL     1      28.016  10.882  48.839  1.00  0.00     0.071 A 
HETATM   11  C10 UNL     1      28.660  12.093  48.891  1.00  0.00     0.005 C 
HETATM   12  C11 UNL     1      29.999  11.920  48.140  1.00  0.00     0.055 C 
HETATM   13  C12 UNL     1      29.786  11.026  47.006  1.00  0.00     0.098 A 
HETATM   14  C13 UNL     1      30.695  10.844  46.015  1.00  0.00     0.142 A 
HETATM   15  N3  UNL     1      30.462  10.045  44.928  1.00  0.00    -0.171 NA
HETATM   16  N4  UNL     1      29.204   9.561  45.173  1.00  0.00    -0.278 N 
HETATM   17  C14 UNL     1      28.213   8.702  44.619  1.00  0.00     0.179 C 
HETATM   18  C15 UNL     1      28.997  10.166  46.303  1.00  0.00     0.066 A 
HETATM   19  C16 UNL     1      28.263  10.334  47.521  1.00  0.00     0.177 A 
HETATM   20  N5  UNL     1      27.746   9.103  47.482  1.00  0.00    -0.183 NA
HETATM   21  C17 UNL     1      32.120  11.101  45.916  1.00  0.00     0.287 C 
HETATM   22  O2  UNL     1      33.062  11.749  45.594  1.00  0.00    -0.264 OA
HETATM   23  N6  UNL     1      33.005  10.053  46.499  1.00  0.00    -0.269 N 
HETATM   24  N7  UNL     1      34.047   9.325  46.924  1.00  0.00    -0.332 N 
HETATM   25  C18 UNL     1      34.077   7.991  47.313  1.00  0.00     0.169 C 
HETATM   26  C19 UNL     1      33.308   7.357  48.352  1.00  0.00     0.293 C 
HETATM   27  N8  UNL     1      31.953   6.984  48.373  1.00  0.00     0.086 NA
HETATM   28  C20 UNL     1      31.721   6.400  49.711  1.00  0.00     0.310 C 
HETATM   29  C21 UNL     1      31.501   6.021  47.428  1.00  0.00     0.276 C 
HETATM   30  C22 UNL     1      30.339   5.181  47.774  1.00  0.00     0.068 C 
HETATM   31  H14 UNL     1      32.358   9.333  46.858  1.00  0.00     0.190 HD
HETATM   32  H15 UNL     1      34.949   9.831  46.828  1.00  0.00     0.180 HD
ENDROOT
BRANCH   1  33
HETATM   33  O1  UNL     1      25.168   7.093  49.336  1.00  0.00    -0.354 OA
HETATM   34  C1  UNL     1      24.137   6.609  50.211  1.00  0.00     0.210 C 
ENDBRANCH   1  33
TORSDOF 1
ENDMDL
MODEL 2
REMARK VINA RESULT:      -8.3      6.855     10.025
REMARK  1 active torsions:
REMARK  status: ('A' for Active; 'I' for Inactive)
REMARK    1  A    between atoms: O1_2  and  C2_3 
ROOT
HETATM    1  C2  UNL     1      24.618   0.015  53.250  1.00  0.00     0.097 A 
HETATM    2  C3  UNL     1      23.424  -0.671  53.359  1.00  0.00     0.040 A 
HETATM    3  C4  UNL     1      22.251  -0.322  52.736  1.00  0.00     0.010 A 
HETATM    4  C5  UNL     1      22.057   0.778  51.890  1.00  0.00    -0.054 A 
HETATM    5  C6  UNL     1      23.249   1.396  51.831  1.00  0.00     0.041 A 
HETATM    6  C7  UNL     1      24.487   1.083  52.448  1.00  0.00     0.093 A 
HETATM    7  N1  UNL     1      25.342   2.048  51.925  1.00  0.00    -0.228 N 
HETATM    8  C8  UNL     1      26.365   1.372  51.252  1.00  0.00     0.235 A 
HETATM    9  N2  UNL     1      26.835   2.270  50.403  1.00  0.00    -0.244 NA
HETATM   10  C9  UNL     1      26.262   3.592  50.342  1.00  0.00     0.071 A 
HETATM   11  C10 UNL     1      26.626   4.502  49.382  1.00  0.00     0.005 C 
HETATM   12  C11 UNL     1      25.324   5.163  48.875  1.00  0.00     0.055 C 
HETATM   13  C12 UNL     1      24.408   5.312  50.002  1.00  0.00     0.098 A 
HETATM   14  C13 UNL     1      23.275   6.056  49.951  1.00  0.00     0.142 A 
HETATM   15  N3  UNL     1      22.451   6.234  51.030  1.00  0.00    -0.171 NA
HETATM   16  N4  UNL     1      23.069   5.497  52.005  1.00  0.00    -0.278 N 
HETATM   17  C14 UNL     1      22.930   5.117  53.371  1.00  0.00     0.179 C 
HETATM   18  C15 UNL     1      24.074   5.074  51.301  1.00  0.00     0.066 A 
HETATM   19  C16 UNL     1      25.185   4.193  51.100  1.00  0.00     0.177 A 
HETATM   20  N5  UNL     1      24.731   3.283  51.967  1.00  0.00    -0.183 NA
HETATM   21  C17 UNL     1      22.470   6.566  48.856  1.00  0.00     0.287 C 
HETATM   22  O2  UNL     1      22.126   7.412  48.095  1.00  0.00    -0.264 OA
HETATM   23  N6  UNL     1      21.496   5.603  48.269  1.00  0.00    -0.269 N 
HETATM   24  N7  UNL     1      20.551   4.999  47.534  1.00  0.00    -0.332 N 
HETATM   25  C18 UNL     1      19.867   3.818  47.795  1.00  0.00     0.169 C 
HETATM   26  C19 UNL     1      20.421   2.509  48.022  1.00  0.00     0.293 C 
HETATM   27  N8  UNL     1      21.073   1.987  49.153  1.00  0.00     0.086 NA
HETATM   28  C20 UNL     1      21.440   0.601  48.797  1.00  0.00     0.310 C 
HETATM   29  C21 UNL     1      20.351   1.912  50.377  1.00  0.00     0.276 C 
HETATM   30  C22 UNL     1      20.727   0.877  51.358  1.00  0.00     0.068 C 
HETATM   31  H14 UNL     1      21.621   4.737  48.818  1.00  0.00     0.190 HD
HETATM   32  H15 UNL     1      20.243   5.581  46.730  1.00  0.00     0.180 HD
ENDROOT
BRANCH   1  33
HETATM   33  O1  UNL     1      25.949   0.121  53.593  1.00  0.00    -0.354 OA
HETATM   34  C1  UNL     1      26.357   0.269  54.962  1.00  0.00     0.210 C 
ENDBRANCH   1  33
TORSDOF 1
ENDMDL
MODEL 3
REMARK VINA RESULT:      -8.3      7.081     10.742
REMARK  1 active torsions:
REMARK  status: ('A' for Active; 'I' for Inactive)
REMARK    1  A    between atoms: O1_2  and  C2_3 
ROOT
HETATM    1  C2  UNL     1      26.262   2.856  50.541  1.00  0.00     0.097 A 
HETATM    2  C3  UNL     1      26.846   3.887  49.831  1.00  0.00     0.040 A 
HETATM    3  C4  UNL     1      26.169   4.920  49.231  1.00  0.00     0.010 A 
HETATM    4  C5  UNL     1      24.780   5.111  49.233  1.00  0.00    -0.054 A 
HETATM    5  C6  UNL     1      24.280   4.080  49.933  1.00  0.00     0.041 A 
HETATM    6  C7  UNL     1      24.928   2.991  50.571  1.00  0.00     0.093 A 
HETATM    7  N1  UNL     1      23.872   2.327  51.190  1.00  0.00    -0.228 N 
HETATM    8  C8  UNL     1      24.140   2.314  52.562  1.00  0.00     0.235 A 
HETATM    9  N2  UNL     1      22.953   2.138  53.117  1.00  0.00    -0.244 NA
HETATM   10  C9  UNL     1      21.772   2.022  52.298  1.00  0.00     0.071 A 
HETATM   11  C10 UNL     1      20.510   1.980  52.837  1.00  0.00     0.005 C 
HETATM   12  C11 UNL     1      19.622   2.902  51.972  1.00  0.00     0.055 C 
HETATM   13  C12 UNL     1      20.045   2.784  50.580  1.00  0.00     0.098 A 
HETATM   14  C13 UNL     1      19.334   3.282  49.537  1.00  0.00     0.142 A 
HETATM   15  N3  UNL     1      19.713   3.117  48.232  1.00  0.00    -0.171 NA
HETATM   16  N4  UNL     1      20.880   2.410  48.342  1.00  0.00    -0.278 N 
HETATM   17  C14 UNL     1      21.914   1.835  47.550  1.00  0.00     0.179 C 
HETATM   18  C15 UNL     1      20.915   2.324  49.637  1.00  0.00     0.066 A 
HETATM   19  C16 UNL     1      21.610   2.051  50.859  1.00  0.00     0.177 A 
HETATM   20  N5  UNL     1      22.817   2.210  50.310  1.00  0.00    -0.183 NA
HETATM   21  C17 UNL     1      18.288   4.282  49.437  1.00  0.00     0.287 C 
HETATM   22  O2  UNL     1      17.154   4.629  49.361  1.00  0.00    -0.264 OA
HETATM   23  N6  UNL     1      18.752   5.698  49.395  1.00  0.00    -0.269 N 
HETATM   24  N7  UNL     1      18.835   7.036  49.345  1.00  0.00    -0.332 N 
HETATM   25  C18 UNL     1      19.944   7.829  49.080  1.00  0.00     0.169 C 
HETATM   26  C19 UNL     1      21.201   7.853  49.780  1.00  0.00     0.293 C 
HETATM   27  N8  UNL     1      22.269   6.940  49.752  1.00  0.00     0.086 NA
HETATM   28  C20 UNL     1      23.276   7.475  50.692  1.00  0.00     0.310 C 
HETATM   29  C21 UNL     1      22.943   6.723  48.518  1.00  0.00     0.276 C 
HETATM   30  C22 UNL     1      24.355   6.299  48.547  1.00  0.00     0.068 C 
HETATM   31  H14 UNL     1      19.782   5.638  49.444  1.00  0.00     0.190 HD
HETATM   32  H15 UNL     1      17.904   7.492  49.409  1.00  0.00     0.180 HD
ENDROOT
BRANCH   1  33
HETATM   33  O1  UNL     1      26.414   1.698  51.272  1.00  0.00    -0.354 OA
HETATM   34  C1  UNL     1      27.397   1.597  52.314  1.00  0.00     0.210 C 
ENDBRANCH   1  33
TORSDOF 1
ENDMDL
MODEL 4
REMARK VINA RESULT:      -8.0      1.044      1.095
REMARK  1 active torsions:
REMARK  status: ('A' for Active; 'I' for Inactive)
REMARK    1  A    between atoms: O1_2  and  C2_3 
ROOT
HETATM    1  C2  UNL     1      26.553   6.210  48.826  1.00  0.00     0.097 A 
HETATM    2  C3  UNL     1      27.389   5.113  48.752  1.00  0.00     0.040 A 
HETATM    3  C4  UNL     1      28.687   5.135  48.303  1.00  0.00     0.010 A 
HETATM    4  C5  UNL     1      29.387   6.260  47.846  1.00  0.00    -0.054 A 
HETATM    5  C6  UNL     1      28.519   7.282  47.943  1.00  0.00     0.041 A 
HETATM    6  C7  UNL     1      27.176   7.318  48.396  1.00  0.00     0.093 A 
HETATM    7  N1  UNL     1      26.867   8.674  48.331  1.00  0.00    -0.228 N 
HETATM    8  C8  UNL     1      26.523   9.081  49.623  1.00  0.00     0.235 A 
HETATM    9  N2  UNL     1      26.719  10.389  49.607  1.00  0.00    -0.244 NA
HETATM   10  C9  UNL     1      27.199  11.043  48.415  1.00  0.00     0.071 A 
HETATM   11  C10 UNL     1      27.548  12.371  48.400  1.00  0.00     0.005 C 
HETATM   12  C11 UNL     1      28.869  12.478  47.606  1.00  0.00     0.055 C 
HETATM   13  C12 UNL     1      28.835  11.510  46.513  1.00  0.00     0.098 A 
HETATM   14  C13 UNL     1      29.733  11.500  45.496  1.00  0.00     0.142 A 
HETATM   15  N3  UNL     1      29.660  10.623  44.448  1.00  0.00    -0.171 NA
HETATM   16  N4  UNL     1      28.555   9.874  44.756  1.00  0.00    -0.278 N 
HETATM   17  C14 UNL     1      27.774   8.788  44.270  1.00  0.00     0.179 C 
HETATM   18  C15 UNL     1      28.246  10.463  45.871  1.00  0.00     0.066 A 
HETATM   19  C16 UNL     1      27.528  10.510  47.109  1.00  0.00     0.177 A 
HETATM   20  N5  UNL     1      27.309   9.193  47.133  1.00  0.00    -0.183 NA
HETATM   21  C17 UNL     1      31.057  12.072  45.335  1.00  0.00     0.287 C 
HETATM   22  O2  UNL     1      31.815  12.905  44.954  1.00  0.00    -0.264 OA
HETATM   23  N6  UNL     1      32.176  11.281  45.921  1.00  0.00    -0.269 N 
HETATM   24  N7  UNL     1      33.370  10.830  46.332  1.00  0.00    -0.332 N 
HETATM   25  C18 UNL     1      33.718   9.557  46.766  1.00  0.00     0.169 C 
HETATM   26  C19 UNL     1      33.146   8.809  47.854  1.00  0.00     0.293 C 
HETATM   27  N8  UNL     1      31.915   8.137  47.939  1.00  0.00     0.086 NA
HETATM   28  C20 UNL     1      31.862   7.573  49.305  1.00  0.00     0.310 C 
HETATM   29  C21 UNL     1      31.670   7.056  47.046  1.00  0.00     0.276 C 
HETATM   30  C22 UNL     1      30.744   5.987  47.466  1.00  0.00     0.068 C 
HETATM   31  H14 UNL     1      31.723  10.448  46.329  1.00  0.00     0.190 HD
HETATM   32  H15 UNL     1      34.128  11.526  46.183  1.00  0.00     0.180 HD
ENDROOT
BRANCH   1  33
HETATM   33  O1  UNL     1      25.318   6.727  49.153  1.00  0.00    -0.354 OA
HETATM   34  C1  UNL     1      24.106   6.039  48.806  1.00  0.00     0.210 C 
ENDBRANCH   1  33
TORSDOF 1
ENDMDL
MODEL 5
REMARK VINA RESULT:      -7.8      4.915      7.776
REMARK  1 active torsions:
REMARK  status: ('A' for Active; 'I' for Inactive)
REMARK    1  A    between atoms: O1_2  and  C2_3 
ROOT
HETATM    1  C2  UNL     1      24.035   2.195  51.014  1.00  0.00     0.097 A 
HETATM    2  C3  UNL     1      22.757   1.739  50.759  1.00  0.00     0.040 A 
HETATM    3  C4  UNL     1      21.866   2.320  49.890  1.00  0.00     0.010 A 
HETATM    4  C5  UNL     1      22.092   3.467  49.117  1.00  0.00    -0.054 A 
HETATM    5  C6  UNL     1      23.343   3.856  49.414  1.00  0.00     0.041 A 
HETATM    6  C7  UNL     1      24.302   3.298  50.297  1.00  0.00     0.093 A 
HETATM    7  N1  UNL     1      25.417   4.107  50.090  1.00  0.00    -0.228 N 
HETATM    8  C8  UNL     1      26.451   3.278  49.645  1.00  0.00     0.235 A 
HETATM    9  N2  UNL     1      27.274   4.104  49.021  1.00  0.00    -0.244 NA
HETATM   10  C9  UNL     1      26.969   5.510  48.926  1.00  0.00     0.071 A 
HETATM   11  C10 UNL     1      27.722   6.372  48.169  1.00  0.00     0.005 C 
HETATM   12  C11 UNL     1      26.732   7.279  47.406  1.00  0.00     0.055 C 
HETATM   13  C12 UNL     1      25.589   7.554  48.271  1.00  0.00     0.098 A 
HETATM   14  C13 UNL     1      24.652   8.496  47.996  1.00  0.00     0.142 A 
HETATM   15  N3  UNL     1      23.615   8.784  48.842  1.00  0.00    -0.171 NA
HETATM   16  N4  UNL     1      23.818   7.910  49.877  1.00  0.00    -0.278 N 
HETATM   17  C14 UNL     1      23.262   7.513  51.126  1.00  0.00     0.179 C 
HETATM   18  C15 UNL     1      24.888   7.335  49.419  1.00  0.00     0.066 A 
HETATM   19  C16 UNL     1      25.847   6.272  49.434  1.00  0.00     0.177 A 
HETATM   20  N5  UNL     1      25.033   5.431  50.078  1.00  0.00    -0.183 NA
HETATM   21  C17 UNL     1      24.264   9.185  46.779  1.00  0.00     0.287 C 
HETATM   22  O2  UNL     1      24.281  10.107  46.029  1.00  0.00    -0.264 OA
HETATM   23  N6  UNL     1      23.332   8.440  45.886  1.00  0.00    -0.269 N 
HETATM   24  N7  UNL     1      22.528   8.048  44.888  1.00  0.00    -0.332 N 
HETATM   25  C18 UNL     1      21.610   7.005  44.868  1.00  0.00     0.169 C 
HETATM   26  C19 UNL     1      21.854   5.609  45.118  1.00  0.00     0.293 C 
HETATM   27  N8  UNL     1      22.086   4.935  46.330  1.00  0.00     0.086 NA
HETATM   28  C20 UNL     1      22.295   3.518  45.965  1.00  0.00     0.310 C 
HETATM   29  C21 UNL     1      21.064   4.951  47.320  1.00  0.00     0.276 C 
HETATM   30  C22 UNL     1      20.987   3.829  48.275  1.00  0.00     0.068 C 
HETATM   31  H14 UNL     1      23.159   7.547  46.375  1.00  0.00     0.190 HD
HETATM   32  H15 UNL     1      22.546   8.705  44.084  1.00  0.00     0.180 HD
ENDROOT
BRANCH   1  33
HETATM   33  O1  UNL     1      25.226   2.041  51.691  1.00  0.00    -0.354 OA
HETATM   34  C1  UNL     1      25.294   2.178  53.119  1.00  0.00     0.210 C 
ENDBRANCH   1  33
TORSDOF 1
ENDMDL
MODEL 6
REMARK VINA RESULT:      -7.6      3.240      6.490
REMARK  1 active torsions:
REMARK  status: ('A' for Active; 'I' for Inactive)
REMARK    1  A    between atoms: O1_2  and  C2_3 
ROOT
HETATM    1  C2  UNL     1      31.059  11.607  46.800  1.00  0.00     0.097 A 
HETATM    2  C3  UNL     1      31.730  12.262  45.786  1.00  0.00     0.040 A 
HETATM    3  C4  UNL     1      32.593  11.671  44.896  1.00  0.00     0.010 A 
HETATM    4  C5  UNL     1      32.944  10.315  44.859  1.00  0.00    -0.054 A 
HETATM    5  C6  UNL     1      32.262   9.743  45.866  1.00  0.00     0.041 A 
HETATM    6  C7  UNL     1      31.362  10.300  46.810  1.00  0.00     0.093 A 
HETATM    7  N1  UNL     1      30.935   9.182  47.522  1.00  0.00    -0.228 N 
HETATM    8  C8  UNL     1      29.548   9.103  47.372  1.00  0.00     0.235 A 
HETATM    9  N2  UNL     1      29.273   7.834  47.622  1.00  0.00    -0.244 NA
HETATM   10  C9  UNL     1      30.328   6.906  47.946  1.00  0.00     0.071 A 
HETATM   11  C10 UNL     1      30.103   5.558  48.073  1.00  0.00     0.005 C 
HETATM   12  C11 UNL     1      31.259   4.839  47.343  1.00  0.00     0.055 C 
HETATM   13  C12 UNL     1      32.486   5.602  47.549  1.00  0.00     0.098 A 
HETATM   14  C13 UNL     1      33.720   5.133  47.236  1.00  0.00     0.142 A 
HETATM   15  N3  UNL     1      34.869   5.835  47.484  1.00  0.00    -0.171 NA
HETATM   16  N4  UNL     1      34.400   6.993  48.045  1.00  0.00    -0.278 N 
HETATM   17  C14 UNL     1      34.848   8.235  48.578  1.00  0.00     0.179 C 
HETATM   18  C15 UNL     1      33.133   6.714  48.000  1.00  0.00     0.066 A 
HETATM   19  C16 UNL     1      31.757   7.104  48.075  1.00  0.00     0.177 A 
HETATM   20  N5  UNL     1      32.019   8.392  47.839  1.00  0.00    -0.183 NA
HETATM   21  C17 UNL     1      34.186   4.066  46.370  1.00  0.00     0.287 C 
HETATM   22  O2  UNL     1      34.570   2.961  46.159  1.00  0.00    -0.264 OA
HETATM   23  N6  UNL     1      34.288   4.407  44.923  1.00  0.00    -0.269 N 
HETATM   24  N7  UNL     1      34.478   4.390  43.596  1.00  0.00    -0.332 N 
HETATM   25  C18 UNL     1      34.568   5.460  42.715  1.00  0.00     0.169 C 
HETATM   26  C19 UNL     1      33.597   6.498  42.485  1.00  0.00     0.293 C 
HETATM   27  N8  UNL     1      33.260   7.611  43.275  1.00  0.00     0.086 NA
HETATM   28  C20 UNL     1      32.181   8.307  42.543  1.00  0.00     0.310 C 
HETATM   29  C21 UNL     1      34.264   8.585  43.536  1.00  0.00     0.276 C 
HETATM   30  C22 UNL     1      33.850   9.976  43.798  1.00  0.00     0.068 C 
HETATM   31  H14 UNL     1      33.989   5.394  44.865  1.00  0.00     0.190 HD
HETATM   32  H15 UNL     1      34.693   3.438  43.241  1.00  0.00     0.180 HD
ENDROOT
BRANCH   1  33
HETATM   33  O1  UNL     1      30.178  11.668  47.858  1.00  0.00    -0.354 OA
HETATM   34  C1  UNL     1      30.440  12.500  49.000  1.00  0.00     0.210 C 
ENDBRANCH   1  33
TORSDOF 1
ENDMDL
MODEL 7
REMARK VINA RESULT:      -7.6      6.489      9.538
REMARK  1 active torsions:
REMARK  status: ('A' for Active; 'I' for Inactive)
REMARK    1  A    between atoms: O1_2  and  C2_3 
ROOT
HETATM    1  C2  UNL     1      25.271   1.636  51.655  1.00  0.00     0.097 A 
HETATM    2  C3  UNL     1      26.486   2.172  51.276  1.00  0.00     0.040 A 
HETATM    3  C4  UNL     1      26.650   3.284  50.487  1.00  0.00     0.010 A 
HETATM    4  C5  UNL     1      25.627   4.064  49.932  1.00  0.00    -0.054 A 
HETATM    5  C6  UNL     1      24.482   3.489  50.336  1.00  0.00     0.041 A 
HETATM    6  C7  UNL     1      24.253   2.348  51.146  1.00  0.00     0.093 A 
HETATM    7  N1  UNL     1      22.866   2.328  51.262  1.00  0.00    -0.228 N 
HETATM    8  C8  UNL     1      22.564   2.424  52.624  1.00  0.00     0.235 A 
HETATM    9  N2  UNL     1      21.324   2.882  52.644  1.00  0.00    -0.244 NA
HETATM   10  C9  UNL     1      20.628   3.166  51.414  1.00  0.00     0.071 A 
HETATM   11  C10 UNL     1      19.397   3.772  51.393  1.00  0.00     0.005 C 
HETATM   12  C11 UNL     1      19.440   4.835  50.272  1.00  0.00     0.055 C 
HETATM   13  C12 UNL     1      20.241   4.316  49.168  1.00  0.00     0.098 A 
HETATM   14  C13 UNL     1      20.292   4.897  47.943  1.00  0.00     0.142 A 
HETATM   15  N3  UNL     1      21.004   4.370  46.899  1.00  0.00    -0.171 NA
HETATM   16  N4  UNL     1      21.567   3.250  47.451  1.00  0.00    -0.278 N 
HETATM   17  C14 UNL     1      22.421   2.157  47.128  1.00  0.00     0.179 C 
HETATM   18  C15 UNL     1      21.073   3.372  48.645  1.00  0.00     0.066 A 
HETATM   19  C16 UNL     1      21.047   3.025  50.034  1.00  0.00     0.177 A 
HETATM   20  N5  UNL     1      22.293   2.545  50.027  1.00  0.00    -0.183 NA
HETATM   21  C17 UNL     1      19.961   6.224  47.460  1.00  0.00     0.287 C 
HETATM   22  O2  UNL     1      19.243   7.017  46.941  1.00  0.00    -0.264 OA
HETATM   23  N6  UNL     1      21.012   7.262  47.655  1.00  0.00    -0.269 N 
HETATM   24  N7  UNL     1      21.724   8.398  47.686  1.00  0.00    -0.332 N 
HETATM   25  C18 UNL     1      23.084   8.567  47.918  1.00  0.00     0.169 C 
HETATM   26  C19 UNL     1      23.841   8.150  49.069  1.00  0.00     0.293 C 
HETATM   27  N8  UNL     1      24.279   6.869  49.447  1.00  0.00     0.086 NA
HETATM   28  C20 UNL     1      24.988   7.053  50.731  1.00  0.00     0.310 C 
HETATM   29  C21 UNL     1      25.176   6.178  48.585  1.00  0.00     0.276 C 
HETATM   30  C22 UNL     1      26.098   5.187  49.171  1.00  0.00     0.068 C 
HETATM   31  H14 UNL     1      21.791   6.764  48.115  1.00  0.00     0.190 HD
HETATM   32  H15 UNL     1      21.169   9.221  47.381  1.00  0.00     0.180 HD
ENDROOT
BRANCH   1  33
HETATM   33  O1  UNL     1      24.577   0.667  52.348  1.00  0.00    -0.354 OA
HETATM   34  C1  UNL     1      25.224  -0.151  53.336  1.00  0.00     0.210 C 
ENDBRANCH   1  33
TORSDOF 1
ENDMDL
MODEL 8
REMARK VINA RESULT:      -7.4      4.365      6.818
REMARK  1 active torsions:
REMARK  status: ('A' for Active; 'I' for Inactive)
REMARK    1  A    between atoms: O1_2  and  C2_3 
ROOT
HETATM    1  C2  UNL     1      25.025   3.756  49.710  1.00  0.00     0.097 A 
HETATM    2  C3  UNL     1      26.371   3.802  49.406  1.00  0.00     0.040 A 
HETATM    3  C4  UNL     1      27.029   4.887  48.879  1.00  0.00     0.010 A 
HETATM    4  C5  UNL     1      26.458   6.126  48.559  1.00  0.00    -0.054 A 
HETATM    5  C6  UNL     1      25.157   6.011  48.875  1.00  0.00     0.041 A 
HETATM    6  C7  UNL     1      24.428   4.923  49.419  1.00  0.00     0.093 A 
HETATM    7  N1  UNL     1      23.156   5.462  49.590  1.00  0.00    -0.228 N 
HETATM    8  C8  UNL     1      22.849   5.371  50.951  1.00  0.00     0.235 A 
HETATM    9  N2  UNL     1      21.915   6.290  51.129  1.00  0.00    -0.244 NA
HETATM   10  C9  UNL     1      21.470   7.105  50.026  1.00  0.00     0.071 A 
HETATM   11  C10 UNL     1      20.609   8.160  50.197  1.00  0.00     0.005 C 
HETATM   12  C11 UNL     1      21.153   9.326  49.341  1.00  0.00     0.055 C 
HETATM   13  C12 UNL     1      21.722   8.777  48.114  1.00  0.00     0.098 A 
HETATM   14  C13 UNL     1      22.078   9.539  47.050  1.00  0.00     0.142 A 
HETATM   15  N3  UNL     1      22.560   9.008  45.883  1.00  0.00    -0.171 NA
HETATM   16  N4  UNL     1      22.571   7.664  46.144  1.00  0.00    -0.278 N 
HETATM   17  C14 UNL     1      22.905   6.415  45.547  1.00  0.00     0.179 C 
HETATM   18  C15 UNL     1      22.110   7.713  47.356  1.00  0.00     0.066 A 
HETATM   19  C16 UNL     1      21.866   7.111  48.633  1.00  0.00     0.177 A 
HETATM   20  N5  UNL     1      22.794   6.167  48.462  1.00  0.00    -0.183 NA
HETATM   21  C17 UNL     1      22.360  10.953  46.891  1.00  0.00     0.287 C 
HETATM   22  O2  UNL     1      22.069  12.067  46.596  1.00  0.00    -0.264 OA
HETATM   23  N6  UNL     1      23.736  11.382  47.266  1.00  0.00    -0.269 N 
HETATM   24  N7  UNL     1      24.856  12.076  47.518  1.00  0.00    -0.332 N 
HETATM   25  C18 UNL     1      26.146  11.603  47.721  1.00  0.00     0.169 C 
HETATM   26  C19 UNL     1      26.596  10.663  48.713  1.00  0.00     0.293 C 
HETATM   27  N8  UNL     1      26.436   9.268  48.775  1.00  0.00     0.086 NA
HETATM   28  C20 UNL     1      27.086   8.848  50.034  1.00  0.00     0.310 C 
HETATM   29  C21 UNL     1      27.007   8.474  47.741  1.00  0.00     0.276 C 
HETATM   30  C22 UNL     1      27.396   7.085  48.048  1.00  0.00     0.068 C 
HETATM   31  H14 UNL     1      24.209  10.515  47.567  1.00  0.00     0.190 HD
HETATM   32  H15 UNL     1      24.713  13.101  47.431  1.00  0.00     0.180 HD
ENDROOT
BRANCH   1  33
HETATM   33  O1  UNL     1      23.953   3.041  50.198  1.00  0.00    -0.354 OA
HETATM   34  C1  UNL     1      24.133   1.998  51.169  1.00  0.00     0.210 C 
ENDBRANCH   1  33
TORSDOF 1
ENDMDL
MODEL 9
REMARK VINA RESULT:      -7.4      3.079      5.697
REMARK  1 active torsions:
REMARK  status: ('A' for Active; 'I' for Inactive)
REMARK    1  A    between atoms: O1_2  and  C2_3 
ROOT
HETATM    1  C2  UNL     1      25.380  13.011  46.661  1.00  0.00     0.097 A 
HETATM    2  C3  UNL     1      24.137  12.459  46.422  1.00  0.00     0.040 A 
HETATM    3  C4  UNL     1      23.820  11.130  46.555  1.00  0.00     0.010 A 
HETATM    4  C5  UNL     1      24.693  10.106  46.951  1.00  0.00    -0.054 A 
HETATM    5  C6  UNL     1      25.875  10.709  47.163  1.00  0.00     0.041 A 
HETATM    6  C7  UNL     1      26.257  12.069  47.044  1.00  0.00     0.093 A 
HETATM    7  N1  UNL     1      27.578  12.056  47.483  1.00  0.00    -0.228 N 
HETATM    8  C8  UNL     1      27.654  12.913  48.585  1.00  0.00     0.235 A 
HETATM    9  N2  UNL     1      28.732  12.504  49.233  1.00  0.00    -0.244 NA
HETATM   10  C9  UNL     1      29.504  11.390  48.740  1.00  0.00     0.071 A 
HETATM   11  C10 UNL     1      30.542  10.847  49.454  1.00  0.00     0.005 C 
HETATM   12  C11 UNL     1      30.401   9.311  49.353  1.00  0.00     0.055 C 
HETATM   13  C12 UNL     1      29.910   8.975  48.021  1.00  0.00     0.098 A 
HETATM   14  C13 UNL     1      29.892   7.711  47.528  1.00  0.00     0.142 A 
HETATM   15  N3  UNL     1      29.481   7.414  46.256  1.00  0.00    -0.171 NA
HETATM   16  N4  UNL     1      29.134   8.641  45.756  1.00  0.00    -0.278 N 
HETATM   17  C14 UNL     1      28.623   9.262  44.581  1.00  0.00     0.179 C 
HETATM   18  C15 UNL     1      29.412   9.348  46.809  1.00  0.00     0.066 A 
HETATM   19  C16 UNL     1      29.327  10.561  47.565  1.00  0.00     0.177 A 
HETATM   20  N5  UNL     1      28.248  10.996  46.910  1.00  0.00    -0.183 NA
HETATM   21  C17 UNL     1      29.957   6.402  48.150  1.00  0.00     0.287 C 
HETATM   22  O2  UNL     1      30.528   5.419  48.500  1.00  0.00    -0.264 OA
HETATM   23  N6  UNL     1      28.670   5.880  48.690  1.00  0.00    -0.269 N 
HETATM   24  N7  UNL     1      27.708   5.147  49.269  1.00  0.00    -0.332 N 
HETATM   25  C18 UNL     1      26.329   5.294  49.180  1.00  0.00     0.169 C 
HETATM   26  C19 UNL     1      25.542   6.452  49.512  1.00  0.00     0.293 C 
HETATM   27  N8  UNL     1      25.378   7.663  48.818  1.00  0.00     0.086 NA
HETATM   28  C20 UNL     1      24.474   8.483  49.652  1.00  0.00     0.310 C 
HETATM   29  C21 UNL     1      24.803   7.626  47.516  1.00  0.00     0.276 C 
HETATM   30  C22 UNL     1      24.075   8.813  47.029  1.00  0.00     0.068 C 
HETATM   31  H14 UNL     1      27.978   6.617  48.477  1.00  0.00     0.190 HD
HETATM   32  H15 UNL     1      28.085   4.305  49.745  1.00  0.00     0.180 HD
ENDROOT
BRANCH   1  33
HETATM   33  O1  UNL     1      26.184  14.130  46.695  1.00  0.00    -0.354 OA
HETATM   34  C1  UNL     1      26.396  14.932  45.522  1.00  0.00     0.210 C 
ENDBRANCH   1  33
TORSDOF 1
ENDMDL
