MODEL 1
REMARK VINA RESULT:      -9.1      0.000      0.000
REMARK  2 active torsions:
REMARK  status: ('A' for Active; 'I' for Inactive)
REMARK    1  A    between atoms: C8_8  and  C9_9 
REMARK    2  A    between atoms: C21_24  and  N3_25 
ROOT
HETATM    1  C1  UNL     1      33.151   0.985  48.580  1.00  0.00     0.019 C 
HETATM    2  C2  UNL     1      33.443   2.072  48.113  1.00  0.00    -0.059 C 
HETATM    3  C3  UNL     1      33.777   3.374  47.549  1.00  0.00     0.099 C 
HETATM    4  C4  UNL     1      33.660   3.480  46.222  1.00  0.00     0.017 C 
HETATM    5  C5  UNL     1      34.048   4.856  45.924  1.00  0.00     0.057 C 
HETATM    6  C6  UNL     1      32.931   5.707  45.492  1.00  0.00    -0.021 C 
HETATM    7  C7  UNL     1      32.395   6.745  46.104  1.00  0.00     0.024 C 
HETATM    8  C8  UNL     1      32.373   7.656  47.274  1.00  0.00     0.046 C 
HETATM    9  N4  UNL     1      33.131   7.606  48.334  1.00  0.00    -0.244 NA
HETATM   10  C24 UNL     1      34.133   6.702  48.637  1.00  0.00     0.255 C 
HETATM   11  N5  UNL     1      33.595   5.571  48.420  1.00  0.00    -0.167 NA
HETATM   12  N6  UNL     1      34.155   4.318  48.561  1.00  0.00    -0.269 N 
HETATM   13  H30 UNL     1      34.805   3.978  49.297  1.00  0.00     0.190 HD
ENDROOT
BRANCH   8  14
HETATM   14  C9  UNL     1      31.384   8.744  47.336  1.00  0.00     0.094 C 
HETATM   15  C10 UNL     1      31.271   9.459  46.040  1.00  0.00    -0.010 C 
HETATM   16  C11 UNL     1      30.188  10.151  45.769  1.00  0.00     0.035 C 
HETATM   17  C12 UNL     1      29.085  10.217  46.708  1.00  0.00     0.094 C 
HETATM   18  C13 UNL     1      29.093   9.572  47.856  1.00  0.00     0.077 C 
HETATM   19  O3  UNL     1      28.096  11.056  46.140  1.00  0.00    -0.340 OA
HETATM   20  N1  UNL     1      27.959   9.749  48.717  1.00  0.00    -0.315 N 
HETATM   21  C21 UNL     1      30.151   8.543  48.111  1.00  0.00     0.084 C 
HETATM   22  C14 UNL     1      27.347   9.519  49.973  1.00  0.00     0.134 C 
HETATM   23  C22 UNL     1      27.002  10.659  48.072  1.00  0.00     0.248 C 
HETATM   24  C15 UNL     1      25.987   9.042  50.112  1.00  0.00     0.050 C 
HETATM   25  C16 UNL     1      25.480   7.685  50.076  1.00  0.00     0.271 C 
HETATM   26  N2  UNL     1      25.801   6.747  49.061  1.00  0.00     0.085 NA
HETATM   27  C17 UNL     1      27.155   6.240  49.236  1.00  0.00     0.295 C 
HETATM   28  H16 UNL     1      25.086   6.004  48.957  1.00  0.00     0.315 HD
HETATM   29  C18 UNL     1      27.655   5.348  48.148  1.00  0.00     0.197 C 
HETATM   30  O1  UNL     1      28.995   4.959  48.414  1.00  0.00    -0.389 OA
HETATM   31  C19 UNL     1      29.719   6.129  48.727  1.00  0.00     0.170 C 
HETATM   32  C20 UNL     1      29.542   7.183  47.690  1.00  0.00     0.064 C 
HETATM   33  O2  UNL     1      26.233  11.500  48.673  1.00  0.00    -0.271 OA
HETATM   34  C23 UNL     1      26.732  10.794  46.582  1.00  0.00     0.279 C 
BRANCH  21  35
HETATM   35  N3  UNL     1      30.458   8.424  49.500  1.00  0.00    -0.416 N 
HETATM   36  H25 UNL     1      30.183   7.551  49.950  1.00  0.00     0.151 HD
HETATM   37  H26 UNL     1      30.426   9.289  50.031  1.00  0.00     0.151 HD
ENDBRANCH  21  35
ENDBRANCH   8  14
TORSDOF 2
ENDMDL
MODEL 2
REMARK VINA RESULT:      -8.9      4.195      8.637
REMARK  2 active torsions:
REMARK  status: ('A' for Active; 'I' for Inactive)
REMARK    1  A    between atoms: C8_8  and  C9_9 
REMARK    2  A    between atoms: C21_24  and  N3_25 
ROOT
HETATM    1  C1  UNL     1      17.657   4.365  50.093  1.00  0.00     0.019 C 
HETATM    2  C2  UNL     1      18.749   3.858  50.279  1.00  0.00    -0.059 C 
HETATM    3  C3  UNL     1      20.060   3.256  50.488  1.00  0.00     0.099 C 
HETATM    4  C4  UNL     1      20.460   2.392  49.549  1.00  0.00     0.017 C 
HETATM    5  C5  UNL     1      21.777   1.945  49.993  1.00  0.00     0.057 C 
HETATM    6  C6  UNL     1      22.881   2.439  49.160  1.00  0.00    -0.021 C 
HETATM    7  C7  UNL     1      23.847   3.279  49.478  1.00  0.00     0.024 C 
HETATM    8  C8  UNL     1      24.484   4.157  50.490  1.00  0.00     0.046 C 
HETATM    9  N4  UNL     1      24.083   4.384  51.709  1.00  0.00    -0.244 NA
HETATM   10  C24 UNL     1      22.974   3.876  52.362  1.00  0.00     0.255 C 
HETATM   11  N5  UNL     1      22.025   4.065  51.538  1.00  0.00    -0.167 NA
HETATM   12  N6  UNL     1      20.692   3.742  51.680  1.00  0.00    -0.269 N 
HETATM   13  H30 UNL     1      20.097   3.805  52.531  1.00  0.00     0.190 HD
ENDROOT
BRANCH   8  14
HETATM   14  C9  UNL     1      25.692   4.921  50.140  1.00  0.00     0.094 C 
HETATM   15  C10 UNL     1      26.644   4.110  49.341  1.00  0.00    -0.010 C 
HETATM   16  C11 UNL     1      27.545   4.708  48.596  1.00  0.00     0.035 C 
HETATM   17  C12 UNL     1      27.621   6.155  48.524  1.00  0.00     0.094 C 
HETATM   18  C13 UNL     1      26.781   6.939  49.169  1.00  0.00     0.077 C 
HETATM   19  O3  UNL     1      28.704   6.481  47.674  1.00  0.00    -0.340 OA
HETATM   20  N1  UNL     1      26.983   8.355  49.049  1.00  0.00    -0.315 N 
HETATM   21  C21 UNL     1      25.560   6.345  49.801  1.00  0.00     0.084 C 
HETATM   22  C14 UNL     1      26.630   9.665  49.455  1.00  0.00     0.134 C 
HETATM   23  C22 UNL     1      28.144   8.605  48.184  1.00  0.00     0.248 C 
HETATM   24  C15 UNL     1      26.370  10.738  48.518  1.00  0.00     0.050 C 
HETATM   25  C16 UNL     1      25.148  11.067  47.812  1.00  0.00     0.271 C 
HETATM   26  N2  UNL     1      24.374  10.124  47.086  1.00  0.00     0.085 NA
HETATM   27  C17 UNL     1      23.624   9.265  47.992  1.00  0.00     0.295 C 
HETATM   28  H16 UNL     1      23.794  10.561  46.347  1.00  0.00     0.315 HD
HETATM   29  C18 UNL     1      22.879   8.143  47.348  1.00  0.00     0.197 C 
HETATM   30  O1  UNL     1      22.228   7.359  48.337  1.00  0.00    -0.389 OA
HETATM   31  C19 UNL     1      23.181   7.063  49.335  1.00  0.00     0.170 C 
HETATM   32  C20 UNL     1      24.424   6.481  48.757  1.00  0.00     0.064 C 
HETATM   33  O2  UNL     1      28.976   9.582  48.295  1.00  0.00    -0.271 OA
HETATM   34  C23 UNL     1      28.597   7.768  46.998  1.00  0.00     0.279 C 
BRANCH  21  35
HETATM   35  N3  UNL     1      25.135   7.086  50.944  1.00  0.00    -0.416 N 
HETATM   36  H25 UNL     1      25.049   6.562  51.815  1.00  0.00     0.151 HD
HETATM   37  H26 UNL     1      24.490   7.848  50.756  1.00  0.00     0.151 HD
ENDBRANCH  21  35
ENDBRANCH   8  14
TORSDOF 2
ENDMDL
MODEL 3
REMARK VINA RESULT:      -8.7      4.946      8.305
REMARK  2 active torsions:
REMARK  status: ('A' for Active; 'I' for Inactive)
REMARK    1  A    between atoms: C8_8  and  C9_9 
REMARK    2  A    between atoms: C21_24  and  N3_25 
ROOT
HETATM    1  C1  UNL     1      30.300   5.642  47.825  1.00  0.00     0.019 C 
HETATM    2  C2  UNL     1      29.397   6.455  47.901  1.00  0.00    -0.059 C 
HETATM    3  C3  UNL     1      28.305   7.417  47.985  1.00  0.00     0.099 C 
HETATM    4  C4  UNL     1      27.714   7.729  46.827  1.00  0.00     0.017 C 
HETATM    5  C5  UNL     1      26.678   8.693  47.187  1.00  0.00     0.057 C 
HETATM    6  C6  UNL     1      25.312   8.170  47.056  1.00  0.00    -0.021 C 
HETATM    7  C7  UNL     1      24.420   7.936  47.999  1.00  0.00     0.024 C 
HETATM    8  C8  UNL     1      24.063   7.945  49.438  1.00  0.00     0.046 C 
HETATM    9  N4  UNL     1      24.820   8.291  50.442  1.00  0.00    -0.244 NA
HETATM   10  C24 UNL     1      26.132   8.730  50.423  1.00  0.00     0.255 C 
HETATM   11  N5  UNL     1      26.725   7.876  49.691  1.00  0.00    -0.167 NA
HETATM   12  N6  UNL     1      28.057   7.834  49.334  1.00  0.00    -0.269 N 
HETATM   13  H30 UNL     1      28.890   8.064  49.913  1.00  0.00     0.190 HD
ENDROOT
BRANCH   8  14
HETATM   14  C9  UNL     1      22.731   7.489  49.866  1.00  0.00     0.094 C 
HETATM   15  C10 UNL     1      21.671   7.925  48.922  1.00  0.00    -0.010 C 
HETATM   16  C11 UNL     1      20.523   7.288  48.890  1.00  0.00     0.035 C 
HETATM   17  C12 UNL     1      20.273   6.148  49.751  1.00  0.00     0.094 C 
HETATM   18  C13 UNL     1      21.181   5.675  50.580  1.00  0.00     0.077 C 
HETATM   19  O3  UNL     1      18.950   5.712  49.501  1.00  0.00    -0.340 OA
HETATM   20  N1  UNL     1      20.800   4.567  51.408  1.00  0.00    -0.315 N 
HETATM   21  C21 UNL     1      22.595   6.157  50.471  1.00  0.00     0.084 C 
HETATM   22  C14 UNL     1      21.117   3.686  52.470  1.00  0.00     0.134 C 
HETATM   23  C22 UNL     1      19.407   4.202  51.114  1.00  0.00     0.248 C 
HETATM   24  C15 UNL     1      20.954   2.250  52.380  1.00  0.00     0.050 C 
HETATM   25  C16 UNL     1      21.852   1.255  51.829  1.00  0.00     0.271 C 
HETATM   26  N2  UNL     1      22.458   1.357  50.550  1.00  0.00     0.085 NA
HETATM   27  C17 UNL     1      23.542   2.330  50.569  1.00  0.00     0.295 C 
HETATM   28  H16 UNL     1      22.728   0.437  50.156  1.00  0.00     0.315 HD
HETATM   29  C18 UNL     1      24.166   2.626  49.246  1.00  0.00     0.197 C 
HETATM   30  O1  UNL     1      25.174   3.615  49.393  1.00  0.00    -0.389 OA
HETATM   31  C19 UNL     1      24.618   4.676  50.138  1.00  0.00     0.170 C 
HETATM   32  C20 UNL     1      23.328   5.143  49.558  1.00  0.00     0.064 C 
HETATM   33  O2  UNL     1      18.550   3.740  51.957  1.00  0.00    -0.271 OA
HETATM   34  C23 UNL     1      18.700   4.301  49.771  1.00  0.00     0.279 C 
BRANCH  21  35
HETATM   35  N3  UNL     1      23.272   6.116  51.727  1.00  0.00    -0.416 N 
HETATM   36  H25 UNL     1      23.195   5.247  52.255  1.00  0.00     0.151 HD
HETATM   37  H26 UNL     1      23.318   6.999  52.228  1.00  0.00     0.151 HD
ENDBRANCH  21  35
ENDBRANCH   8  14
TORSDOF 2
ENDMDL
MODEL 4
REMARK VINA RESULT:      -8.6      4.325      8.449
REMARK  2 active torsions:
REMARK  status: ('A' for Active; 'I' for Inactive)
REMARK    1  A    between atoms: C8_8  and  C9_9 
REMARK    2  A    between atoms: C21_24  and  N3_25 
ROOT
HETATM    1  C1  UNL     1      21.286  -0.777  53.614  1.00  0.00     0.019 C 
HETATM    2  C2  UNL     1      21.334   0.247  52.956  1.00  0.00    -0.059 C 
HETATM    3  C3  UNL     1      21.404   1.479  52.180  1.00  0.00     0.099 C 
HETATM    4  C4  UNL     1      21.073   2.598  52.833  1.00  0.00     0.017 C 
HETATM    5  C5  UNL     1      21.224   3.662  51.844  1.00  0.00     0.057 C 
HETATM    6  C6  UNL     1      22.359   4.557  52.106  1.00  0.00    -0.021 C 
HETATM    7  C7  UNL     1      23.462   4.723  51.402  1.00  0.00     0.024 C 
HETATM    8  C8  UNL     1      24.283   4.354  50.223  1.00  0.00     0.046 C 
HETATM    9  N4  UNL     1      24.009   3.463  49.311  1.00  0.00    -0.244 NA
HETATM   10  C24 UNL     1      22.900   2.641  49.213  1.00  0.00     0.255 C 
HETATM   11  N5  UNL     1      22.793   2.138  50.376  1.00  0.00    -0.167 NA
HETATM   12  N6  UNL     1      21.849   1.244  50.836  1.00  0.00    -0.269 N 
HETATM   13  H30 UNL     1      21.426   0.435  50.339  1.00  0.00     0.190 HD
ENDROOT
BRANCH   8  14
HETATM   14  C9  UNL     1      25.588   4.999  50.008  1.00  0.00     0.094 C 
HETATM   15  C10 UNL     1      26.525   4.114  49.272  1.00  0.00    -0.010 C 
HETATM   16  C11 UNL     1      27.547   4.633  48.632  1.00  0.00     0.035 C 
HETATM   17  C12 UNL     1      27.772   6.066  48.614  1.00  0.00     0.094 C 
HETATM   18  C13 UNL     1      26.959   6.917  49.205  1.00  0.00     0.077 C 
HETATM   19  O3  UNL     1      28.957   6.299  47.876  1.00  0.00    -0.340 OA
HETATM   20  N1  UNL     1      27.310   8.308  49.150  1.00  0.00    -0.315 N 
HETATM   21  C21 UNL     1      25.631   6.437  49.704  1.00  0.00     0.084 C 
HETATM   22  C14 UNL     1      27.054   9.637  49.564  1.00  0.00     0.134 C 
HETATM   23  C22 UNL     1      28.566   8.458  48.402  1.00  0.00     0.248 C 
HETATM   24  C15 UNL     1      26.990  10.752  48.643  1.00  0.00     0.050 C 
HETATM   25  C16 UNL     1      25.878  11.221  47.841  1.00  0.00     0.271 C 
HETATM   26  N2  UNL     1      25.086  10.379  47.018  1.00  0.00     0.085 NA
HETATM   27  C17 UNL     1      24.173   9.580  47.824  1.00  0.00     0.295 C 
HETATM   28  H16 UNL     1      24.624  10.890  46.243  1.00  0.00     0.315 HD
HETATM   29  C18 UNL     1      23.383   8.556  47.079  1.00  0.00     0.197 C 
HETATM   30  O1  UNL     1      22.567   7.820  47.979  1.00  0.00    -0.389 OA
HETATM   31  C19 UNL     1      23.389   7.405  49.049  1.00  0.00     0.170 C 
HETATM   32  C20 UNL     1      24.616   6.712  48.568  1.00  0.00     0.064 C 
HETATM   33  O2  UNL     1      29.478   9.342  48.620  1.00  0.00    -0.271 OA
HETATM   34  C23 UNL     1      29.043   7.606  47.236  1.00  0.00     0.279 C 
BRANCH  21  35
HETATM   35  N3  UNL     1      25.177   7.190  50.829  1.00  0.00    -0.416 N 
HETATM   36  H25 UNL     1      25.178   8.205  50.723  1.00  0.00     0.151 HD
HETATM   37  H26 UNL     1      25.380   6.785  51.737  1.00  0.00     0.151 HD
ENDBRANCH  21  35
ENDBRANCH   8  14
TORSDOF 2
ENDMDL
MODEL 5
REMARK VINA RESULT:      -8.4      3.274      8.279
REMARK  2 active torsions:
REMARK  status: ('A' for Active; 'I' for Inactive)
REMARK    1  A    between atoms: C8_8  and  C9_9 
REMARK    2  A    between atoms: C21_24  and  N3_25 
ROOT
HETATM    1  C1  UNL     1      19.285   9.654  49.996  1.00  0.00     0.019 C 
HETATM    2  C2  UNL     1      19.998   8.669  49.937  1.00  0.00    -0.059 C 
HETATM    3  C3  UNL     1      20.861   7.497  49.853  1.00  0.00     0.099 C 
HETATM    4  C4  UNL     1      20.859   6.856  48.680  1.00  0.00     0.017 C 
HETATM    5  C5  UNL     1      21.786   5.743  48.864  1.00  0.00     0.057 C 
HETATM    6  C6  UNL     1      23.038   5.883  48.108  1.00  0.00    -0.021 C 
HETATM    7  C7  UNL     1      24.266   6.048  48.561  1.00  0.00     0.024 C 
HETATM    8  C8  UNL     1      25.183   6.198  49.717  1.00  0.00     0.046 C 
HETATM    9  N4  UNL     1      24.868   6.225  50.982  1.00  0.00    -0.244 NA
HETATM   10  C24 UNL     1      23.615   6.126  51.562  1.00  0.00     0.255 C 
HETATM   11  N5  UNL     1      22.914   6.962  50.910  1.00  0.00    -0.167 NA
HETATM   12  N6  UNL     1      21.579   7.268  51.073  1.00  0.00    -0.269 N 
HETATM   13  H30 UNL     1      21.037   7.353  51.957  1.00  0.00     0.190 HD
ENDROOT
BRANCH   8  14
HETATM   14  C9  UNL     1      26.625   6.378  49.489  1.00  0.00     0.094 C 
HETATM   15  C10 UNL     1      27.192   5.286  48.659  1.00  0.00    -0.010 C 
HETATM   16  C11 UNL     1      28.318   5.476  48.011  1.00  0.00     0.035 C 
HETATM   17  C12 UNL     1      29.016   6.746  48.074  1.00  0.00     0.094 C 
HETATM   18  C13 UNL     1      28.551   7.776  48.751  1.00  0.00     0.077 C 
HETATM   19  O3  UNL     1      30.196   6.619  47.303  1.00  0.00    -0.340 OA
HETATM   20  N1  UNL     1      29.352   8.965  48.770  1.00  0.00    -0.315 N 
HETATM   21  C21 UNL     1      27.148   7.735  49.275  1.00  0.00     0.084 C 
HETATM   22  C14 UNL     1      29.570  10.269  49.278  1.00  0.00     0.134 C 
HETATM   23  C22 UNL     1      30.571   8.738  47.980  1.00  0.00     0.248 C 
HETATM   24  C15 UNL     1      29.872  11.405  48.432  1.00  0.00     0.050 C 
HETATM   25  C16 UNL     1      28.971  12.279  47.709  1.00  0.00     0.271 C 
HETATM   26  N2  UNL     1      27.925  11.817  46.869  1.00  0.00     0.085 NA
HETATM   27  C17 UNL     1      26.809  11.316  47.660  1.00  0.00     0.295 C 
HETATM   28  H16 UNL     1      27.649  12.510  46.148  1.00  0.00     0.315 HD
HETATM   29  C18 UNL     1      25.705  10.677  46.886  1.00  0.00     0.197 C 
HETATM   30  O1  UNL     1      24.705  10.194  47.772  1.00  0.00    -0.389 OA
HETATM   31  C19 UNL     1      25.356   9.449  48.777  1.00  0.00     0.170 C 
HETATM   32  C20 UNL     1      26.266   8.420  48.202  1.00  0.00     0.064 C 
HETATM   33  O2  UNL     1      31.732   9.244  48.215  1.00  0.00    -0.271 OA
HETATM   34  C23 UNL     1      30.708   7.864  46.743  1.00  0.00     0.279 C 
BRANCH  21  35
HETATM   35  N3  UNL     1      26.997   8.513  50.463  1.00  0.00    -0.416 N 
HETATM   36  H25 UNL     1      26.363   8.140  51.169  1.00  0.00     0.151 HD
HETATM   37  H26 UNL     1      27.068   9.518  50.339  1.00  0.00     0.151 HD
ENDBRANCH  21  35
ENDBRANCH   8  14
TORSDOF 2
ENDMDL
MODEL 6
REMARK VINA RESULT:      -8.3      5.646     10.131
REMARK  2 active torsions:
REMARK  status: ('A' for Active; 'I' for Inactive)
REMARK    1  A    between atoms: C8_8  and  C9_9 
REMARK    2  A    between atoms: C21_24  and  N3_25 
ROOT
HETATM    1  C1  UNL     1      16.485   2.354  48.705  1.00  0.00     0.019 C 
HETATM    2  C2  UNL     1      17.419   2.085  49.439  1.00  0.00    -0.059 C 
HETATM    3  C3  UNL     1      18.546   1.763  50.305  1.00  0.00     0.099 C 
HETATM    4  C4  UNL     1      19.188   0.624  50.025  1.00  0.00     0.017 C 
HETATM    5  C5  UNL     1      20.251   0.543  51.024  1.00  0.00     0.057 C 
HETATM    6  C6  UNL     1      21.598   0.740  50.472  1.00  0.00    -0.021 C 
HETATM    7  C7  UNL     1      22.447   1.726  50.689  1.00  0.00     0.024 C 
HETATM    8  C8  UNL     1      22.754   3.010  51.365  1.00  0.00     0.046 C 
HETATM    9  N4  UNL     1      21.979   3.696  52.157  1.00  0.00    -0.244 NA
HETATM   10  C24 UNL     1      20.687   3.409  52.562  1.00  0.00     0.255 C 
HETATM   11  N5  UNL     1      20.085   3.133  51.478  1.00  0.00    -0.167 NA
HETATM   12  N6  UNL     1      18.765   2.772  51.301  1.00  0.00    -0.269 N 
HETATM   13  H30 UNL     1      17.924   3.134  51.792  1.00  0.00     0.190 HD
ENDROOT
BRANCH   8  14
HETATM   14  C9  UNL     1      24.051   3.666  51.135  1.00  0.00     0.094 C 
HETATM   15  C10 UNL     1      25.140   2.678  50.933  1.00  0.00    -0.010 C 
HETATM   16  C11 UNL     1      26.241   3.037  50.314  1.00  0.00     0.035 C 
HETATM   17  C12 UNL     1      26.411   4.384  49.805  1.00  0.00     0.094 C 
HETATM   18  C13 UNL     1      25.471   5.302  49.905  1.00  0.00     0.077 C 
HETATM   19  O3  UNL     1      27.701   4.459  49.227  1.00  0.00    -0.340 OA
HETATM   20  N1  UNL     1      25.773   6.609  49.397  1.00  0.00    -0.315 N 
HETATM   21  C21 UNL     1      24.094   4.897  50.333  1.00  0.00     0.084 C 
HETATM   22  C14 UNL     1      25.394   7.966  49.246  1.00  0.00     0.134 C 
HETATM   23  C22 UNL     1      27.138   6.611  48.852  1.00  0.00     0.248 C 
HETATM   24  C15 UNL     1      25.457   8.666  47.981  1.00  0.00     0.050 C 
HETATM   25  C16 UNL     1      24.494   8.702  46.899  1.00  0.00     0.271 C 
HETATM   26  N2  UNL     1      23.898   7.545  46.332  1.00  0.00     0.085 NA
HETATM   27  C17 UNL     1      22.884   6.997  47.222  1.00  0.00     0.295 C 
HETATM   28  H16 UNL     1      23.566   7.697  45.362  1.00  0.00     0.315 HD
HETATM   29  C18 UNL     1      22.283   5.699  46.794  1.00  0.00     0.197 C 
HETATM   30  O1  UNL     1      21.346   5.253  47.763  1.00  0.00    -0.389 OA
HETATM   31  C19 UNL     1      21.973   5.333  49.025  1.00  0.00     0.170 C 
HETATM   32  C20 UNL     1      23.294   4.644  49.031  1.00  0.00     0.064 C 
HETATM   33  O2  UNL     1      27.960   7.603  48.868  1.00  0.00    -0.271 OA
HETATM   34  C23 UNL     1      27.852   5.453  48.172  1.00  0.00     0.279 C 
BRANCH  21  35
HETATM   35  N3  UNL     1      23.413   5.951  51.014  1.00  0.00    -0.416 N 
HETATM   36  H25 UNL     1      23.693   6.901  50.771  1.00  0.00     0.151 HD
HETATM   37  H26 UNL     1      23.131   5.744  51.968  1.00  0.00     0.151 HD
ENDBRANCH  21  35
ENDBRANCH   8  14
TORSDOF 2
ENDMDL
MODEL 7
REMARK VINA RESULT:      -8.0      8.189     10.150
REMARK  2 active torsions:
REMARK  status: ('A' for Active; 'I' for Inactive)
REMARK    1  A    between atoms: C8_8  and  C9_9 
REMARK    2  A    between atoms: C21_24  and  N3_25 
ROOT
HETATM    1  C1  UNL     1      29.762  -1.881  53.446  1.00  0.00     0.019 C 
HETATM    2  C2  UNL     1      28.905  -1.016  53.491  1.00  0.00    -0.059 C 
HETATM    3  C3  UNL     1      27.880   0.019  53.529  1.00  0.00     0.099 C 
HETATM    4  C4  UNL     1      28.208   1.184  52.960  1.00  0.00     0.017 C 
HETATM    5  C5  UNL     1      27.028   2.027  53.134  1.00  0.00     0.057 C 
HETATM    6  C6  UNL     1      26.307   2.302  51.884  1.00  0.00    -0.021 C 
HETATM    7  C7  UNL     1      25.099   1.917  51.522  1.00  0.00     0.024 C 
HETATM    8  C8  UNL     1      23.855   1.175  51.841  1.00  0.00     0.046 C 
HETATM    9  N4  UNL     1      23.596   0.484  52.916  1.00  0.00    -0.244 NA
HETATM   10  C24 UNL     1      24.403   0.265  54.018  1.00  0.00     0.255 C 
HETATM   11  N5  UNL     1      25.512  -0.095  53.512  1.00  0.00    -0.167 NA
HETATM   12  N6  UNL     1      26.678  -0.436  54.166  1.00  0.00    -0.269 N 
HETATM   13  H30 UNL     1      26.793  -0.973  55.049  1.00  0.00     0.190 HD
ENDROOT
BRANCH   8  14
HETATM   14  C9  UNL     1      22.755   1.136  50.864  1.00  0.00     0.094 C 
HETATM   15  C10 UNL     1      21.626   0.297  51.339  1.00  0.00    -0.010 C 
HETATM   16  C11 UNL     1      20.427   0.470  50.835  1.00  0.00     0.035 C 
HETATM   17  C12 UNL     1      20.175   1.482  49.827  1.00  0.00     0.094 C 
HETATM   18  C13 UNL     1      21.115   2.295  49.390  1.00  0.00     0.077 C 
HETATM   19  O3  UNL     1      18.808   1.394  49.471  1.00  0.00    -0.340 OA
HETATM   20  N1  UNL     1      20.751   3.229  48.363  1.00  0.00    -0.315 N 
HETATM   21  C21 UNL     1      22.425   2.356  50.114  1.00  0.00     0.084 C 
HETATM   22  C14 UNL     1      21.150   4.217  47.431  1.00  0.00     0.134 C 
HETATM   23  C22 UNL     1      19.332   3.046  48.027  1.00  0.00     0.248 C 
HETATM   24  C15 UNL     1      20.472   5.489  47.291  1.00  0.00     0.050 C 
HETATM   25  C16 UNL     1      20.647   6.713  48.046  1.00  0.00     0.271 C 
HETATM   26  N2  UNL     1      20.659   6.774  49.464  1.00  0.00     0.085 NA
HETATM   27  C17 UNL     1      21.918   6.264  49.991  1.00  0.00     0.295 C 
HETATM   28  H16 UNL     1      20.399   7.708  49.831  1.00  0.00     0.315 HD
HETATM   29  C18 UNL     1      21.995   6.150  51.478  1.00  0.00     0.197 C 
HETATM   30  O1  UNL     1      23.249   5.604  51.860  1.00  0.00    -0.389 OA
HETATM   31  C19 UNL     1      23.465   4.452  51.074  1.00  0.00     0.170 C 
HETATM   32  C20 UNL     1      22.305   3.520  51.129  1.00  0.00     0.064 C 
HETATM   33  O2  UNL     1      18.802   3.207  46.864  1.00  0.00    -0.271 OA
HETATM   34  C23 UNL     1      18.216   2.629  48.972  1.00  0.00     0.279 C 
BRANCH  21  35
HETATM   35  N3  UNL     1      23.502   2.703  49.243  1.00  0.00    -0.416 N 
HETATM   36  H25 UNL     1      24.201   3.342  49.621  1.00  0.00     0.151 HD
HETATM   37  H26 UNL     1      23.268   2.750  48.256  1.00  0.00     0.151 HD
ENDBRANCH  21  35
ENDBRANCH   8  14
TORSDOF 2
ENDMDL
MODEL 8
REMARK VINA RESULT:      -7.9      5.947      9.611
REMARK  2 active torsions:
REMARK  status: ('A' for Active; 'I' for Inactive)
REMARK    1  A    between atoms: C8_8  and  C9_9 
REMARK    2  A    between atoms: C21_24  and  N3_25 
ROOT
HETATM    1  C1  UNL     1      29.607   6.051  48.208  1.00  0.00     0.019 C 
HETATM    2  C2  UNL     1      28.520   6.590  48.319  1.00  0.00    -0.059 C 
HETATM    3  C3  UNL     1      27.213   7.223  48.443  1.00  0.00     0.099 C 
HETATM    4  C4  UNL     1      26.625   7.573  47.294  1.00  0.00     0.017 C 
HETATM    5  C5  UNL     1      25.355   8.174  47.695  1.00  0.00     0.057 C 
HETATM    6  C6  UNL     1      24.181   7.360  47.356  1.00  0.00    -0.021 C 
HETATM    7  C7  UNL     1      23.332   6.754  48.162  1.00  0.00     0.024 C 
HETATM    8  C8  UNL     1      22.907   6.427  49.545  1.00  0.00     0.046 C 
HETATM    9  N4  UNL     1      23.493   6.772  50.658  1.00  0.00    -0.244 NA
HETATM   10  C24 UNL     1      24.645   7.518  50.832  1.00  0.00     0.255 C 
HETATM   11  N5  UNL     1      25.478   6.976  50.039  1.00  0.00    -0.167 NA
HETATM   12  N6  UNL     1      26.792   7.327  49.810  1.00  0.00    -0.269 N 
HETATM   13  H30 UNL     1      27.504   7.653  50.494  1.00  0.00     0.190 HD
ENDROOT
BRANCH   8  14
HETATM   14  C9  UNL     1      21.719   5.589  49.768  1.00  0.00     0.094 C 
HETATM   15  C10 UNL     1      20.991   5.319  48.503  1.00  0.00    -0.010 C 
HETATM   16  C11 UNL     1      20.185   4.285  48.421  1.00  0.00     0.035 C 
HETATM   17  C12 UNL     1      20.002   3.385  49.544  1.00  0.00     0.094 C 
HETATM   18  C13 UNL     1      20.649   3.534  50.682  1.00  0.00     0.077 C 
HETATM   19  O3  UNL     1      19.059   2.405  49.152  1.00  0.00    -0.340 OA
HETATM   20  N1  UNL     1      20.353   2.601  51.732  1.00  0.00    -0.315 N 
HETATM   21  C21 UNL     1      21.787   4.504  50.757  1.00  0.00     0.084 C 
HETATM   22  C14 UNL     1      20.519   2.208  53.082  1.00  0.00     0.134 C 
HETATM   23  C22 UNL     1      19.342   1.646  51.256  1.00  0.00     0.248 C 
HETATM   24  C15 UNL     1      20.846   0.853  53.474  1.00  0.00     0.050 C 
HETATM   25  C16 UNL     1      22.140   0.205  53.553  1.00  0.00     0.271 C 
HETATM   26  N2  UNL     1      23.103   0.233  52.512  1.00  0.00     0.085 NA
HETATM   27  C17 UNL     1      23.755   1.533  52.446  1.00  0.00     0.295 C 
HETATM   28  H16 UNL     1      23.764  -0.565  52.552  1.00  0.00     0.315 HD
HETATM   29  C18 UNL     1      24.692   1.728  51.300  1.00  0.00     0.197 C 
HETATM   30  O1  UNL     1      25.226   3.044  51.324  1.00  0.00    -0.389 OA
HETATM   31  C19 UNL     1      24.143   3.935  51.481  1.00  0.00     0.170 C 
HETATM   32  C20 UNL     1      23.072   3.686  50.476  1.00  0.00     0.064 C 
HETATM   33  O2  UNL     1      18.424   1.094  51.973  1.00  0.00    -0.271 OA
HETATM   34  C23 UNL     1      19.173   1.125  49.838  1.00  0.00     0.279 C 
BRANCH  21  35
HETATM   35  N3  UNL     1      21.944   5.045  52.069  1.00  0.00    -0.416 N 
HETATM   36  H25 UNL     1      22.037   6.058  52.132  1.00  0.00     0.151 HD
HETATM   37  H26 UNL     1      22.449   4.457  52.726  1.00  0.00     0.151 HD
ENDBRANCH  21  35
ENDBRANCH   8  14
TORSDOF 2
ENDMDL
MODEL 9
REMARK VINA RESULT:      -7.9      5.868     10.068
REMARK  2 active torsions:
REMARK  status: ('A' for Active; 'I' for Inactive)
REMARK    1  A    between atoms: C8_8  and  C9_9 
REMARK    2  A    between atoms: C21_24  and  N3_25 
ROOT
HETATM    1  C1  UNL     1      28.732   7.568  47.613  1.00  0.00     0.019 C 
HETATM    2  C2  UNL     1      27.565   7.591  47.961  1.00  0.00    -0.059 C 
HETATM    3  C3  UNL     1      26.167   7.603  48.373  1.00  0.00     0.099 C 
HETATM    4  C4  UNL     1      25.278   7.302  47.421  1.00  0.00     0.017 C 
HETATM    5  C5  UNL     1      23.980   7.386  48.086  1.00  0.00     0.057 C 
HETATM    6  C6  UNL     1      23.326   6.084  48.274  1.00  0.00    -0.021 C 
HETATM    7  C7  UNL     1      23.059   5.445  49.396  1.00  0.00     0.024 C 
HETATM    8  C8  UNL     1      23.124   5.400  50.877  1.00  0.00     0.046 C 
HETATM    9  N4  UNL     1      23.659   6.280  51.676  1.00  0.00    -0.244 NA
HETATM   10  C24 UNL     1      24.298   7.464  51.352  1.00  0.00     0.255 C 
HETATM   11  N5  UNL     1      25.123   7.124  50.446  1.00  0.00    -0.167 NA
HETATM   12  N6  UNL     1      26.018   7.921  49.763  1.00  0.00    -0.269 N 
HETATM   13  H30 UNL     1      26.589   8.711  50.125  1.00  0.00     0.190 HD
ENDROOT
BRANCH   8  14
HETATM   14  C9  UNL     1      22.575   4.241  51.599  1.00  0.00     0.094 C 
HETATM   15  C10 UNL     1      21.313   3.758  50.986  1.00  0.00    -0.010 C 
HETATM   16  C11 UNL     1      20.909   2.528  51.206  1.00  0.00     0.035 C 
HETATM   17  C12 UNL     1      21.684   1.619  52.029  1.00  0.00     0.094 C 
HETATM   18  C13 UNL     1      22.837   1.961  52.568  1.00  0.00     0.077 C 
HETATM   19  O3  UNL     1      20.972   0.397  52.097  1.00  0.00    -0.340 OA
HETATM   20  N1  UNL     1      23.490   0.986  53.393  1.00  0.00    -0.315 N 
HETATM   21  C21 UNL     1      23.501   3.232  52.134  1.00  0.00     0.084 C 
HETATM   22  C14 UNL     1      24.546   0.666  54.282  1.00  0.00     0.134 C 
HETATM   23  C22 UNL     1      22.671  -0.233  53.440  1.00  0.00     0.248 C 
HETATM   24  C15 UNL     1      25.359  -0.523  54.145  1.00  0.00     0.050 C 
HETATM   25  C16 UNL     1      26.530  -0.747  53.322  1.00  0.00     0.271 C 
HETATM   26  N2  UNL     1      26.599  -0.432  51.940  1.00  0.00     0.085 NA
HETATM   27  C17 UNL     1      26.731   1.005  51.744  1.00  0.00     0.295 C 
HETATM   28  H16 UNL     1      27.309  -0.991  51.432  1.00  0.00     0.315 HD
HETATM   29  C18 UNL     1      26.675   1.471  50.327  1.00  0.00     0.197 C 
HETATM   30  O1  UNL     1      26.772   2.887  50.275  1.00  0.00    -0.389 OA
HETATM   31  C19 UNL     1      25.846   3.407  51.204  1.00  0.00     0.170 C 
HETATM   32  C20 UNL     1      24.483   2.841  51.002  1.00  0.00     0.064 C 
HETATM   33  O2  UNL     1      22.561  -1.034  54.443  1.00  0.00    -0.271 OA
HETATM   34  C23 UNL     1      21.791  -0.786  52.330  1.00  0.00     0.279 C 
BRANCH  21  35
HETATM   35  N3  UNL     1      24.301   3.799  53.171  1.00  0.00    -0.416 N 
HETATM   36  H25 UNL     1      25.311   3.698  53.070  1.00  0.00     0.151 HD
HETATM   37  H26 UNL     1      23.890   3.780  54.100  1.00  0.00     0.151 HD
ENDBRANCH  21  35
ENDBRANCH   8  14
TORSDOF 2
ENDMDL
