MODEL 1
REMARK VINA RESULT:      -9.5      0.000      0.000
REMARK  2 active torsions:
REMARK  status: ('A' for Active; 'I' for Inactive)
REMARK    1  A    between atoms: C8_9  and  C9_10 
REMARK    2  A    between atoms: C9_10  and  C10_11 
ROOT
HETATM    1 BR1  UNL     1      16.781   0.440  50.772  1.00  0.00    -0.054 Br
HETATM    2  C1  UNL     1      18.409   0.026  51.646  1.00  0.00     0.003 C 
HETATM    3  C2  UNL     1      18.501  -0.828  52.674  1.00  0.00    -0.001 C 
HETATM    4  C3  UNL     1      19.201  -1.571  53.725  1.00  0.00     0.043 C 
HETATM    5  C4  UNL     1      20.401  -1.668  54.186  1.00  0.00    -0.016 C 
HETATM    6  C5  UNL     1      21.860  -1.465  54.379  1.00  0.00     0.012 C 
HETATM    7  C6  UNL     1      22.366  -0.586  53.542  1.00  0.00     0.011 C 
HETATM    8  C7  UNL     1      23.763  -0.467  53.834  1.00  0.00     0.040 C 
HETATM    9  C8  UNL     1      25.002  -0.015  53.708  1.00  0.00     0.007 C 
HETATM   10  N1  UNL     1      24.826   0.923  52.684  1.00  0.00    -0.389 N 
HETATM   11  C16 UNL     1      24.622   2.309  53.096  1.00  0.00     0.152 C 
HETATM   12  P1  UNL     1      24.017   3.136  51.512  1.00  0.00    -0.090 P 
HETATM   13  C17 UNL     1      22.817   1.853  50.801  1.00  0.00     0.183 C 
HETATM   14  N2  UNL     1      22.571   0.942  51.781  1.00  0.00    -0.268 NA
HETATM   15  C18 UNL     1      21.935   0.126  52.389  1.00  0.00     0.129 C 
HETATM   16  N3  UNL     1      20.858   0.230  51.488  1.00  0.00    -0.370 N 
HETATM   17  C19 UNL     1      19.598   0.647  50.991  1.00  0.00     0.167 C 
HETATM   18  H13 UNL     1      24.885   0.460  51.750  1.00  0.00     0.159 HD
HETATM   19  H16 UNL     1      25.078   3.440  50.611  1.00  0.00     0.060 HD
HETATM   20  H19 UNL     1      21.237  -0.480  50.753  1.00  0.00     0.161 HD
ENDROOT
BRANCH   9  21
HETATM   21  C9  UNL     1      26.441   0.033  54.088  1.00  0.00     0.069 C 
BRANCH  21  22
HETATM   22  C10 UNL     1      27.333   0.103  52.867  1.00  0.00     0.037 C 
HETATM   23  C11 UNL     1      27.885  -1.275  52.675  1.00  0.00    -0.006 C 
HETATM   24  C12 UNL     1      28.908  -1.756  53.341  1.00  0.00    -0.029 C 
HETATM   25  C13 UNL     1      29.667  -0.904  53.958  1.00  0.00     0.011 C 
HETATM   26  C14 UNL     1      29.587   0.552  53.707  1.00  0.00    -0.002 C 
HETATM   27  C15 UNL     1      28.461   1.003  53.186  1.00  0.00    -0.018 C 
ENDBRANCH  21  22
ENDBRANCH   9  21
TORSDOF 2
ENDMDL
MODEL 2
REMARK VINA RESULT:      -9.1      5.723      8.478
REMARK  2 active torsions:
REMARK  status: ('A' for Active; 'I' for Inactive)
REMARK    1  A    between atoms: C8_9  and  C9_10 
REMARK    2  A    between atoms: C9_10  and  C10_11 
ROOT
HETATM    1 BR1  UNL     1      28.306  10.748  48.679  1.00  0.00    -0.054 Br
HETATM    2  C1  UNL     1      27.773   8.947  48.927  1.00  0.00     0.003 C 
HETATM    3  C2  UNL     1      28.463   7.900  48.456  1.00  0.00    -0.001 C 
HETATM    4  C3  UNL     1      28.725   6.477  48.225  1.00  0.00     0.043 C 
HETATM    5  C4  UNL     1      28.154   5.350  48.480  1.00  0.00    -0.016 C 
HETATM    6  C5  UNL     1      27.183   4.337  48.969  1.00  0.00     0.012 C 
HETATM    7  C6  UNL     1      26.146   4.877  49.572  1.00  0.00     0.011 C 
HETATM    8  C7  UNL     1      25.281   3.812  49.981  1.00  0.00     0.040 C 
HETATM    9  C8  UNL     1      24.215   3.247  50.528  1.00  0.00     0.007 C 
HETATM   10  N1  UNL     1      23.502   4.385  50.925  1.00  0.00    -0.389 N 
HETATM   11  C16 UNL     1      22.474   4.865  50.005  1.00  0.00     0.152 C 
HETATM   12  P1  UNL     1      22.075   6.581  50.677  1.00  0.00    -0.090 P 
HETATM   13  C17 UNL     1      23.786   7.271  51.111  1.00  0.00     0.183 C 
HETATM   14  N2  UNL     1      24.709   6.455  50.533  1.00  0.00    -0.268 NA
HETATM   15  C18 UNL     1      25.758   6.169  50.026  1.00  0.00     0.129 C 
HETATM   16  N3  UNL     1      26.242   7.482  50.180  1.00  0.00    -0.370 N 
HETATM   17  C19 UNL     1      26.579   8.808  49.810  1.00  0.00     0.167 C 
HETATM   18  H13 UNL     1      23.827   4.711  51.862  1.00  0.00     0.159 HD
HETATM   19  H16 UNL     1      21.207   6.542  51.807  1.00  0.00     0.060 HD
HETATM   20  H19 UNL     1      26.601   7.367  51.203  1.00  0.00     0.161 HD
ENDROOT
BRANCH   9  21
HETATM   21  C9  UNL     1      23.389   2.070  50.912  1.00  0.00     0.069 C 
BRANCH  21  22
HETATM   22  C10 UNL     1      23.109   2.053  52.400  1.00  0.00     0.037 C 
HETATM   23  C11 UNL     1      24.442   1.936  53.073  1.00  0.00    -0.006 C 
HETATM   24  C12 UNL     1      25.091   0.807  53.227  1.00  0.00    -0.029 C 
HETATM   25  C13 UNL     1      24.415  -0.290  53.077  1.00  0.00     0.011 C 
HETATM   26  C14 UNL     1      22.937  -0.306  53.026  1.00  0.00    -0.002 C 
HETATM   27  C15 UNL     1      22.342   0.826  52.700  1.00  0.00    -0.018 C 
ENDBRANCH  21  22
ENDBRANCH   9  21
TORSDOF 2
ENDMDL
MODEL 3
REMARK VINA RESULT:      -8.4      4.760      6.956
REMARK  2 active torsions:
REMARK  status: ('A' for Active; 'I' for Inactive)
REMARK    1  A    between atoms: C8_9  and  C9_10 
REMARK    2  A    between atoms: C9_10  and  C10_11 
ROOT
HETATM    1 BR1  UNL     1      23.014   9.861  47.838  1.00  0.00    -0.054 Br
HETATM    2  C1  UNL     1      24.057   8.365  48.350  1.00  0.00     0.003 C 
HETATM    3  C2  UNL     1      25.272   8.105  47.850  1.00  0.00    -0.001 C 
HETATM    4  C3  UNL     1      26.511   7.337  47.702  1.00  0.00     0.043 C 
HETATM    5  C4  UNL     1      27.018   6.245  48.167  1.00  0.00    -0.016 C 
HETATM    6  C5  UNL     1      27.191   4.982  48.928  1.00  0.00     0.012 C 
HETATM    7  C6  UNL     1      26.147   4.689  49.672  1.00  0.00     0.011 C 
HETATM    8  C7  UNL     1      26.425   3.453  50.339  1.00  0.00     0.040 C 
HETATM    9  C8  UNL     1      26.201   2.418  51.135  1.00  0.00     0.007 C 
HETATM   10  N1  UNL     1      24.897   2.704  51.560  1.00  0.00    -0.389 N 
HETATM   11  C16 UNL     1      23.814   2.060  50.821  1.00  0.00     0.152 C 
HETATM   12  P1  UNL     1      22.289   3.007  51.400  1.00  0.00    -0.090 P 
HETATM   13  C17 UNL     1      22.893   4.803  51.422  1.00  0.00     0.183 C 
HETATM   14  N2  UNL     1      24.075   4.841  50.750  1.00  0.00    -0.268 NA
HETATM   15  C18 UNL     1      24.940   5.325  50.075  1.00  0.00     0.129 C 
HETATM   16  N3  UNL     1      24.261   6.557  50.009  1.00  0.00    -0.370 N 
HETATM   17  C19 UNL     1      23.446   7.578  49.461  1.00  0.00     0.167 C 
HETATM   18  H13 UNL     1      24.914   3.349  52.380  1.00  0.00     0.159 HD
HETATM   19  H16 UNL     1      21.826   2.577  52.677  1.00  0.00     0.060 HD
HETATM   20  H19 UNL     1      24.640   6.962  50.948  1.00  0.00     0.161 HD
ENDROOT
BRANCH   9  21
HETATM   21  C9  UNL     1      26.588   1.134  51.781  1.00  0.00     0.069 C 
BRANCH  21  22
HETATM   22  C10 UNL     1      26.598   1.255  53.290  1.00  0.00     0.037 C 
HETATM   23  C11 UNL     1      27.656   2.262  53.620  1.00  0.00    -0.006 C 
HETATM   24  C12 UNL     1      28.938   1.989  53.677  1.00  0.00    -0.029 C 
HETATM   25  C13 UNL     1      29.274   0.739  53.765  1.00  0.00     0.011 C 
HETATM   26  C14 UNL     1      28.293  -0.322  54.080  1.00  0.00    -0.002 C 
HETATM   27  C15 UNL     1      27.025  -0.047  53.843  1.00  0.00    -0.018 C 
ENDBRANCH  21  22
ENDBRANCH   9  21
TORSDOF 2
ENDMDL
MODEL 4
REMARK VINA RESULT:      -8.3      1.667      2.104
REMARK  2 active torsions:
REMARK  status: ('A' for Active; 'I' for Inactive)
REMARK    1  A    between atoms: C8_9  and  C9_10 
REMARK    2  A    between atoms: C9_10  and  C10_11 
ROOT
HETATM    1 BR1  UNL     1      16.732   2.027  48.957  1.00  0.00    -0.054 Br
HETATM    2  C1  UNL     1      18.255   1.655  50.019  1.00  0.00     0.003 C 
HETATM    3  C2  UNL     1      18.300   0.674  50.930  1.00  0.00    -0.001 C 
HETATM    4  C3  UNL     1      18.926  -0.140  51.975  1.00  0.00     0.043 C 
HETATM    5  C4  UNL     1      20.050  -0.183  52.605  1.00  0.00    -0.016 C 
HETATM    6  C5  UNL     1      21.431   0.133  53.053  1.00  0.00     0.012 C 
HETATM    7  C6  UNL     1      21.943   1.170  52.427  1.00  0.00     0.011 C 
HETATM    8  C7  UNL     1      23.258   1.385  52.951  1.00  0.00     0.040 C 
HETATM    9  C8  UNL     1      24.439   1.971  53.083  1.00  0.00     0.007 C 
HETATM   10  N1  UNL     1      24.300   3.026  52.173  1.00  0.00    -0.389 N 
HETATM   11  C16 UNL     1      23.873   4.310  52.722  1.00  0.00     0.152 C 
HETATM   12  P1  UNL     1      23.408   5.294  51.182  1.00  0.00    -0.090 P 
HETATM   13  C17 UNL     1      22.486   4.015  50.129  1.00  0.00     0.183 C 
HETATM   14  N2  UNL     1      22.213   2.951  50.932  1.00  0.00    -0.268 NA
HETATM   15  C18 UNL     1      21.599   1.997  51.321  1.00  0.00     0.129 C 
HETATM   16  N3  UNL     1      20.659   2.123  50.280  1.00  0.00    -0.370 N 
HETATM   17  C19 UNL     1      19.442   2.480  49.648  1.00  0.00     0.167 C 
HETATM   18  H13 UNL     1      24.548   2.712  51.209  1.00  0.00     0.159 HD
HETATM   19  H16 UNL     1      24.543   5.831  50.508  1.00  0.00     0.060 HD
HETATM   20  H19 UNL     1      21.223   1.568  49.530  1.00  0.00     0.161 HD
ENDROOT
BRANCH   9  21
HETATM   21  C9  UNL     1      25.791   2.106  53.690  1.00  0.00     0.069 C 
BRANCH  21  22
HETATM   22  C10 UNL     1      26.882   1.884  52.665  1.00  0.00     0.037 C 
HETATM   23  C11 UNL     1      26.784   0.447  52.257  1.00  0.00    -0.006 C 
HETATM   24  C12 UNL     1      27.290  -0.548  52.945  1.00  0.00    -0.029 C 
HETATM   25  C13 UNL     1      28.179  -0.256  53.844  1.00  0.00     0.011 C 
HETATM   26  C14 UNL     1      28.824   1.074  53.913  1.00  0.00    -0.002 C 
HETATM   27  C15 UNL     1      28.182   2.075  53.342  1.00  0.00    -0.018 C 
ENDBRANCH  21  22
ENDBRANCH   9  21
TORSDOF 2
ENDMDL
MODEL 5
REMARK VINA RESULT:      -8.3      8.293      9.989
REMARK  2 active torsions:
REMARK  status: ('A' for Active; 'I' for Inactive)
REMARK    1  A    between atoms: C8_9  and  C9_10 
REMARK    2  A    between atoms: C9_10  and  C10_11 
ROOT
HETATM    1 BR1  UNL     1      22.955   9.426  48.157  1.00  0.00    -0.054 Br
HETATM    2  C1  UNL     1      24.425   8.233  48.209  1.00  0.00     0.003 C 
HETATM    3  C2  UNL     1      24.334   6.966  48.634  1.00  0.00    -0.001 C 
HETATM    4  C3  UNL     1      24.849   5.632  48.952  1.00  0.00     0.043 C 
HETATM    5  C4  UNL     1      25.983   5.019  48.935  1.00  0.00    -0.016 C 
HETATM    6  C5  UNL     1      27.430   4.731  48.760  1.00  0.00     0.012 C 
HETATM    7  C6  UNL     1      28.107   5.772  48.328  1.00  0.00     0.011 C 
HETATM    8  C7  UNL     1      29.479   5.379  48.214  1.00  0.00     0.040 C 
HETATM    9  C8  UNL     1      30.771   5.516  47.955  1.00  0.00     0.007 C 
HETATM   10  N1  UNL     1      30.813   6.870  47.597  1.00  0.00    -0.389 N 
HETATM   11  C16 UNL     1      31.173   7.813  48.651  1.00  0.00     0.152 C 
HETATM   12  P1  UNL     1      30.708   9.481  47.902  1.00  0.00    -0.090 P 
HETATM   13  C17 UNL     1      29.049   9.115  47.062  1.00  0.00     0.183 C 
HETATM   14  N2  UNL     1      28.620   7.909  47.521  1.00  0.00    -0.268 NA
HETATM   15  C18 UNL     1      27.816   7.074  47.831  1.00  0.00     0.129 C 
HETATM   16  N3  UNL     1      26.743   7.900  47.449  1.00  0.00    -0.370 N 
HETATM   17  C19 UNL     1      25.664   8.805  47.605  1.00  0.00     0.167 C 
HETATM   18  H13 UNL     1      30.584   6.987  46.585  1.00  0.00     0.159 HD
HETATM   19  H16 UNL     1      31.685   9.961  46.982  1.00  0.00     0.060 HD
HETATM   20  H19 UNL     1      26.747   7.635  46.391  1.00  0.00     0.161 HD
ENDROOT
BRANCH   9  21
HETATM   21  C9  UNL     1      32.167   5.007  47.869  1.00  0.00     0.069 C 
BRANCH  21  22
HETATM   22  C10 UNL     1      32.238   3.719  47.076  1.00  0.00     0.037 C 
HETATM   23  C11 UNL     1      33.251   2.860  47.768  1.00  0.00    -0.006 C 
HETATM   24  C12 UNL     1      34.547   2.979  47.607  1.00  0.00    -0.029 C 
HETATM   25  C13 UNL     1      34.957   3.649  46.574  1.00  0.00     0.011 C 
HETATM   26  C14 UNL     1      34.052   4.020  45.464  1.00  0.00    -0.002 C 
HETATM   27  C15 UNL     1      32.761   4.045  45.734  1.00  0.00    -0.018 C 
ENDBRANCH  21  22
ENDBRANCH   9  21
TORSDOF 2
ENDMDL
MODEL 6
REMARK VINA RESULT:      -8.3      5.762      7.959
REMARK  2 active torsions:
REMARK  status: ('A' for Active; 'I' for Inactive)
REMARK    1  A    between atoms: C8_9  and  C9_10 
REMARK    2  A    between atoms: C9_10  and  C10_11 
ROOT
HETATM    1 BR1  UNL     1      25.701  11.127  47.336  1.00  0.00    -0.054 Br
HETATM    2  C1  UNL     1      26.075   9.361  47.910  1.00  0.00     0.003 C 
HETATM    3  C2  UNL     1      27.100   8.635  47.447  1.00  0.00    -0.001 C 
HETATM    4  C3  UNL     1      27.946   7.442  47.350  1.00  0.00     0.043 C 
HETATM    5  C4  UNL     1      27.984   6.256  47.854  1.00  0.00    -0.016 C 
HETATM    6  C5  UNL     1      27.643   5.049  48.650  1.00  0.00     0.012 C 
HETATM    7  C6  UNL     1      26.558   5.208  49.375  1.00  0.00     0.011 C 
HETATM    8  C7  UNL     1      26.325   3.983  50.079  1.00  0.00     0.040 C 
HETATM    9  C8  UNL     1      25.706   3.142  50.895  1.00  0.00     0.007 C 
HETATM   10  N1  UNL     1      24.610   3.925  51.279  1.00  0.00    -0.389 N 
HETATM   11  C16 UNL     1      23.372   3.728  50.530  1.00  0.00     0.152 C 
HETATM   12  P1  UNL     1      22.326   5.209  51.047  1.00  0.00    -0.090 P 
HETATM   13  C17 UNL     1      23.579   6.631  51.040  1.00  0.00     0.183 C 
HETATM   14  N2  UNL     1      24.692   6.186  50.397  1.00  0.00    -0.268 NA
HETATM   15  C18 UNL     1      25.687   6.275  49.731  1.00  0.00     0.129 C 
HETATM   16  N3  UNL     1      25.539   7.671  49.619  1.00  0.00    -0.370 N 
HETATM   17  C19 UNL     1      25.191   8.910  49.025  1.00  0.00     0.167 C 
HETATM   18  H13 UNL     1      24.865   4.540  52.084  1.00  0.00     0.159 HD
HETATM   19  H16 UNL     1      21.716   5.034  52.323  1.00  0.00     0.060 HD
HETATM   20  H19 UNL     1      26.034   7.928  50.555  1.00  0.00     0.161 HD
ENDROOT
BRANCH   9  21
HETATM   21  C9  UNL     1      25.556   1.831  51.582  1.00  0.00     0.069 C 
BRANCH  21  22
HETATM   22  C10 UNL     1      26.883   1.108  51.688  1.00  0.00     0.037 C 
HETATM   23  C11 UNL     1      26.559  -0.297  52.094  1.00  0.00    -0.006 C 
HETATM   24  C12 UNL     1      26.309  -0.666  53.328  1.00  0.00    -0.029 C 
HETATM   25  C13 UNL     1      26.665   0.148  54.274  1.00  0.00     0.011 C 
HETATM   26  C14 UNL     1      27.565   1.296  54.030  1.00  0.00    -0.002 C 
HETATM   27  C15 UNL     1      27.648   1.732  52.787  1.00  0.00    -0.018 C 
ENDBRANCH  21  22
ENDBRANCH   9  21
TORSDOF 2
ENDMDL
MODEL 7
REMARK VINA RESULT:      -8.3      4.874      6.798
REMARK  2 active torsions:
REMARK  status: ('A' for Active; 'I' for Inactive)
REMARK    1  A    between atoms: C8_9  and  C9_10 
REMARK    2  A    between atoms: C9_10  and  C10_11 
ROOT
HETATM    1 BR1  UNL     1      22.253  -1.288  54.803  1.00  0.00    -0.054 Br
HETATM    2  C1  UNL     1      23.319  -0.214  53.663  1.00  0.00     0.003 C 
HETATM    3  C2  UNL     1      24.629  -0.415  53.471  1.00  0.00    -0.001 C 
HETATM    4  C3  UNL     1      25.946  -0.128  52.897  1.00  0.00     0.043 C 
HETATM    5  C4  UNL     1      26.474   0.748  52.111  1.00  0.00    -0.016 C 
HETATM    6  C5  UNL     1      26.642   1.915  51.208  1.00  0.00     0.012 C 
HETATM    7  C6  UNL     1      25.526   2.589  51.036  1.00  0.00     0.011 C 
HETATM    8  C7  UNL     1      25.815   3.690  50.167  1.00  0.00     0.040 C 
HETATM    9  C8  UNL     1      25.571   4.781  49.457  1.00  0.00     0.007 C 
HETATM   10  N1  UNL     1      24.219   4.983  49.761  1.00  0.00    -0.389 N 
HETATM   11  C16 UNL     1      23.926   5.917  50.845  1.00  0.00     0.152 C 
HETATM   12  P1  UNL     1      22.106   5.585  51.207  1.00  0.00    -0.090 P 
HETATM   13  C17 UNL     1      21.999   3.695  51.122  1.00  0.00     0.183 C 
HETATM   14  N2  UNL     1      23.273   3.217  51.132  1.00  0.00    -0.268 NA
HETATM   15  C18 UNL     1      24.148   2.428  51.356  1.00  0.00     0.129 C 
HETATM   16  N3  UNL     1      23.237   1.503  51.900  1.00  0.00    -0.370 N 
HETATM   17  C19 UNL     1      22.526   0.795  52.900  1.00  0.00     0.167 C 
HETATM   18  H13 UNL     1      23.613   4.418  49.126  1.00  0.00     0.159 HD
HETATM   19  H16 UNL     1      21.234   6.218  50.274  1.00  0.00     0.060 HD
HETATM   20  H19 UNL     1      22.942   1.045  50.956  1.00  0.00     0.161 HD
ENDROOT
BRANCH   9  21
HETATM   21  C9  UNL     1      25.975   5.888  48.547  1.00  0.00     0.069 C 
BRANCH  21  22
HETATM   22  C10 UNL     1      27.167   6.645  49.092  1.00  0.00     0.037 C 
HETATM   23  C11 UNL     1      26.768   8.088  49.116  1.00  0.00    -0.006 C 
HETATM   24  C12 UNL     1      26.802   8.877  48.069  1.00  0.00    -0.029 C 
HETATM   25  C13 UNL     1      27.505   8.482  47.052  1.00  0.00     0.011 C 
HETATM   26  C14 UNL     1      28.460   7.357  47.142  1.00  0.00    -0.002 C 
HETATM   27  C15 UNL     1      28.274   6.497  48.125  1.00  0.00    -0.018 C 
ENDBRANCH  21  22
ENDBRANCH   9  21
TORSDOF 2
ENDMDL
MODEL 8
REMARK VINA RESULT:      -8.0      2.385      4.081
REMARK  2 active torsions:
REMARK  status: ('A' for Active; 'I' for Inactive)
REMARK    1  A    between atoms: C8_9  and  C9_10 
REMARK    2  A    between atoms: C9_10  and  C10_11 
ROOT
HETATM    1 BR1  UNL     1      17.423   2.910  47.723  1.00  0.00    -0.054 Br
HETATM    2  C1  UNL     1      19.189   2.957  48.405  1.00  0.00     0.003 C 
HETATM    3  C2  UNL     1      20.251   3.336  47.683  1.00  0.00    -0.001 C 
HETATM    4  C3  UNL     1      21.672   3.608  47.452  1.00  0.00     0.043 C 
HETATM    5  C4  UNL     1      22.778   3.525  48.110  1.00  0.00    -0.016 C 
HETATM    6  C5  UNL     1      23.758   3.274  49.198  1.00  0.00     0.012 C 
HETATM    7  C6  UNL     1      23.197   2.801  50.289  1.00  0.00     0.011 C 
HETATM    8  C7  UNL     1      24.235   2.587  51.251  1.00  0.00     0.040 C 
HETATM    9  C8  UNL     1      24.772   2.231  52.409  1.00  0.00     0.007 C 
HETATM   10  N1  UNL     1      23.634   1.773  53.085  1.00  0.00    -0.389 N 
HETATM   11  C16 UNL     1      23.382   0.335  53.038  1.00  0.00     0.152 C 
HETATM   12  P1  UNL     1      21.609   0.197  53.665  1.00  0.00    -0.090 P 
HETATM   13  C17 UNL     1      20.744   1.647  52.803  1.00  0.00     0.183 C 
HETATM   14  N2  UNL     1      21.581   2.095  51.828  1.00  0.00    -0.268 NA
HETATM   15  C18 UNL     1      21.877   2.599  50.781  1.00  0.00     0.129 C 
HETATM   16  N3  UNL     1      20.527   2.851  50.470  1.00  0.00    -0.370 N 
HETATM   17  C19 UNL     1      19.261   2.654  49.865  1.00  0.00     0.167 C 
HETATM   18  H13 UNL     1      23.137   2.568  53.543  1.00  0.00     0.159 HD
HETATM   19  H16 UNL     1      21.519   0.282  55.085  1.00  0.00     0.060 HD
HETATM   20  H19 UNL     1      20.447   3.797  51.007  1.00  0.00     0.161 HD
ENDROOT
BRANCH   9  21
HETATM   21  C9  UNL     1      25.922   2.048  53.336  1.00  0.00     0.069 C 
BRANCH  21  22
HETATM   22  C10 UNL     1      27.195   1.727  52.581  1.00  0.00     0.037 C 
HETATM   23  C11 UNL     1      27.250   0.234  52.477  1.00  0.00    -0.006 C 
HETATM   24  C12 UNL     1      27.672  -0.554  53.436  1.00  0.00    -0.029 C 
HETATM   25  C13 UNL     1      28.363  -0.010  54.390  1.00  0.00     0.011 C 
HETATM   26  C14 UNL     1      28.911   1.359  54.285  1.00  0.00    -0.002 C 
HETATM   27  C15 UNL     1      28.334   2.165  53.414  1.00  0.00    -0.018 C 
ENDBRANCH  21  22
ENDBRANCH   9  21
TORSDOF 2
ENDMDL
MODEL 9
REMARK VINA RESULT:      -7.9      1.703      2.664
REMARK  2 active torsions:
REMARK  status: ('A' for Active; 'I' for Inactive)
REMARK    1  A    between atoms: C8_9  and  C9_10 
REMARK    2  A    between atoms: C9_10  and  C10_11 
ROOT
HETATM    1 BR1  UNL     1      14.522  -0.467  50.883  1.00  0.00    -0.054 Br
HETATM    2  C1  UNL     1      16.330  -0.454  51.447  1.00  0.00     0.003 C 
HETATM    3  C2  UNL     1      16.778  -1.131  52.512  1.00  0.00    -0.001 C 
HETATM    4  C3  UNL     1      17.792  -1.586  53.467  1.00  0.00     0.043 C 
HETATM    5  C4  UNL     1      19.049  -1.398  53.684  1.00  0.00    -0.016 C 
HETATM    6  C5  UNL     1      20.445  -0.907  53.560  1.00  0.00     0.012 C 
HETATM    7  C6  UNL     1      20.602  -0.070  52.557  1.00  0.00     0.011 C 
HETATM    8  C7  UNL     1      21.973   0.342  52.549  1.00  0.00     0.040 C 
HETATM    9  C8  UNL     1      23.050   0.992  52.133  1.00  0.00     0.007 C 
HETATM   10  N1  UNL     1      22.504   1.736  51.080  1.00  0.00    -0.389 N 
HETATM   11  C16 UNL     1      22.096   3.104  51.390  1.00  0.00     0.152 C 
HETATM   12  P1  UNL     1      21.062   3.586  49.889  1.00  0.00    -0.090 P 
HETATM   13  C17 UNL     1      20.044   2.021  49.560  1.00  0.00     0.183 C 
HETATM   14  N2  UNL     1      20.171   1.220  50.652  1.00  0.00    -0.268 NA
HETATM   15  C18 UNL     1      19.834   0.390  51.451  1.00  0.00     0.129 C 
HETATM   16  N3  UNL     1      18.616   0.173  50.779  1.00  0.00    -0.370 N 
HETATM   17  C19 UNL     1      17.229   0.282  50.510  1.00  0.00     0.167 C 
HETATM   18  H13 UNL     1      22.490   1.171  50.202  1.00  0.00     0.159 HD
HETATM   19  H16 UNL     1      21.859   3.957  48.767  1.00  0.00     0.060 HD
HETATM   20  H19 UNL     1      18.996  -0.548  50.055  1.00  0.00     0.161 HD
ENDROOT
BRANCH   9  21
HETATM   21  C9  UNL     1      24.492   1.354  52.210  1.00  0.00     0.069 C 
BRANCH  21  22
HETATM   22  C10 UNL     1      25.097   0.938  53.534  1.00  0.00     0.037 C 
HETATM   23  C11 UNL     1      26.403   1.662  53.640  1.00  0.00    -0.006 C 
HETATM   24  C12 UNL     1      27.511   1.267  53.060  1.00  0.00    -0.029 C 
HETATM   25  C13 UNL     1      27.557   0.039  52.642  1.00  0.00     0.011 C 
HETATM   26  C14 UNL     1      26.549  -0.968  53.041  1.00  0.00    -0.002 C 
HETATM   27  C15 UNL     1      25.386  -0.510  53.461  1.00  0.00    -0.018 C 
ENDBRANCH  21  22
ENDBRANCH   9  21
TORSDOF 2
ENDMDL
