MODEL 1
REMARK VINA RESULT:      -8.9      0.000      0.000
REMARK  6 active torsions:
REMARK  status: ('A' for Active; 'I' for Inactive)
REMARK    1  A    between atoms: O1_1  and  C1_2 
REMARK    2  A    between atoms: C3_5  and  N1_6 
REMARK    3  A    between atoms: N1_6  and  N2_7 
REMARK    4  A    between atoms: C10_15  and  C11_16 
REMARK    5  A    between atoms: C11_16  and  C12_17 
REMARK    6  A    between atoms: C12_17  and  C13_18 
ROOT
HETATM    1  N2  UNL     1      25.134   0.428  53.022  1.00  0.00    -0.130 NA
HETATM    2  N3  UNL     1      24.588   0.062  54.229  1.00  0.00    -0.312 N 
HETATM    3  C4  UNL     1      24.402  -0.889  55.224  1.00  0.00     0.103 C 
HETATM    4  C5  UNL     1      23.302  -1.599  55.339  1.00  0.00     0.018 C 
HETATM    5  C6  UNL     1      22.149  -1.503  54.467  1.00  0.00     0.001 C 
HETATM    6  C7  UNL     1      21.709  -0.858  53.408  1.00  0.00    -0.000 C 
HETATM    7  C8  UNL     1      22.003   0.149  52.393  1.00  0.00    -0.002 C 
HETATM    8  C9  UNL     1      22.962   0.978  52.016  1.00  0.00    -0.004 C 
HETATM    9  C10 UNL     1      24.330   1.425  52.351  1.00  0.00     0.126 C 
HETATM   10  H4  UNL     1      24.012   0.823  54.688  1.00  0.00     0.181 HD
ENDROOT
BRANCH   1  11
HETATM   11  N1  UNL     1      26.436   0.871  53.270  1.00  0.00    -0.279 N 
HETATM   12  H3  UNL     1      26.875   1.819  53.445  1.00  0.00     0.185 HD
BRANCH  11  13
HETATM   13  C3  UNL     1      27.588  -0.028  53.340  1.00  0.00     0.185 A 
HETATM   14  S1  UNL     1      29.448   0.231  53.753  1.00  0.00    -0.059 SA
HETATM   15  C2  UNL     1      29.764  -1.562  53.503  1.00  0.00     0.111 A 
HETATM   16  C1  UNL     1      28.477  -2.070  53.160  1.00  0.00     0.171 A 
HETATM   17  N4  UNL     1      27.521  -1.153  53.131  1.00  0.00    -0.199 NA
BRANCH  16  18
HETATM   18  O1  UNL     1      28.381  -3.453  52.899  1.00  0.00    -0.344 OA
HETATM   19  H1  UNL     1      27.504  -3.945  52.913  1.00  0.00     0.219 HD
ENDBRANCH  16  18
ENDBRANCH  11  13
ENDBRANCH   1  11
BRANCH   9  20
HETATM   20  C11 UNL     1      25.079   2.067  51.229  1.00  0.00     0.032 C 
BRANCH  20  21
HETATM   21  C12 UNL     1      24.241   2.908  50.312  1.00  0.00     0.040 C 
BRANCH  21  22
HETATM   22  C13 UNL     1      25.155   3.927  49.697  1.00  0.00    -0.058 A 
HETATM   23  C14 UNL     1      26.470   3.578  49.499  1.00  0.00     0.010 A 
HETATM   24  C15 UNL     1      27.394   4.439  48.942  1.00  0.00     0.043 A 
HETATM   25  C16 UNL     1      27.013   5.697  48.559  1.00  0.00     0.116 A 
HETATM   26  F1  UNL     1      27.862   6.594  48.007  1.00  0.00    -0.206 F 
HETATM   27  C17 UNL     1      25.685   6.029  48.764  1.00  0.00     0.043 A 
HETATM   28  C18 UNL     1      24.747   5.186  49.319  1.00  0.00     0.010 A 
ENDBRANCH  21  22
ENDBRANCH  20  21
ENDBRANCH   9  20
TORSDOF 6
ENDMDL
MODEL 2
REMARK VINA RESULT:      -8.9      1.129      1.953
REMARK  6 active torsions:
REMARK  status: ('A' for Active; 'I' for Inactive)
REMARK    1  A    between atoms: O1_1  and  C1_2 
REMARK    2  A    between atoms: C3_5  and  N1_6 
REMARK    3  A    between atoms: N1_6  and  N2_7 
REMARK    4  A    between atoms: C10_15  and  C11_16 
REMARK    5  A    between atoms: C11_16  and  C12_17 
REMARK    6  A    between atoms: C12_17  and  C13_18 
ROOT
HETATM    1  N2  UNL     1      25.504   1.355  52.251  1.00  0.00    -0.130 NA
HETATM    2  N3  UNL     1      24.475   0.958  53.071  1.00  0.00    -0.312 N 
HETATM    3  C4  UNL     1      23.764  -0.056  53.700  1.00  0.00     0.103 C 
HETATM    4  C5  UNL     1      22.611  -0.503  53.256  1.00  0.00     0.018 C 
HETATM    5  C6  UNL     1      21.926  -0.022  52.073  1.00  0.00     0.001 C 
HETATM    6  C7  UNL     1      22.048   0.850  51.095  1.00  0.00    -0.000 C 
HETATM    7  C8  UNL     1      22.874   1.896  50.499  1.00  0.00    -0.002 C 
HETATM    8  C9  UNL     1      24.022   2.526  50.681  1.00  0.00    -0.004 C 
HETATM    9  C10 UNL     1      25.198   2.594  51.572  1.00  0.00     0.126 C 
HETATM   10  H4  UNL     1      23.893   1.758  53.448  1.00  0.00     0.181 HD
ENDROOT
BRANCH   1  11
HETATM   11  N1  UNL     1      26.655   1.447  53.038  1.00  0.00    -0.279 N 
HETATM   12  H3  UNL     1      27.075   2.202  53.650  1.00  0.00     0.185 HD
BRANCH  11  13
HETATM   13  C3  UNL     1      27.622   0.358  53.173  1.00  0.00     0.185 A 
HETATM   14  S1  UNL     1      29.463   0.281  53.721  1.00  0.00    -0.059 SA
HETATM   15  C2  UNL     1      29.476  -1.539  53.463  1.00  0.00     0.111 A 
HETATM   16  C1  UNL     1      28.147  -1.809  53.021  1.00  0.00     0.171 A 
HETATM   17  N4  UNL     1      27.373  -0.737  52.940  1.00  0.00    -0.199 NA
BRANCH  16  18
HETATM   18  O1  UNL     1      27.828  -3.151  52.730  1.00  0.00    -0.344 OA
HETATM   19  H1  UNL     1      27.226  -3.409  51.967  1.00  0.00     0.219 HD
ENDBRANCH  16  18
ENDBRANCH  11  13
ENDBRANCH   1  11
BRANCH   9  20
HETATM   20  C11 UNL     1      26.421   3.200  50.961  1.00  0.00     0.032 C 
BRANCH  20  21
HETATM   21  C12 UNL     1      26.455   3.172  49.462  1.00  0.00     0.040 C 
BRANCH  21  22
HETATM   22  C13 UNL     1      26.778   4.566  49.007  1.00  0.00    -0.058 A 
HETATM   23  C14 UNL     1      25.772   5.503  49.035  1.00  0.00     0.010 A 
HETATM   24  C15 UNL     1      25.960   6.811  48.638  1.00  0.00     0.043 A 
HETATM   25  C16 UNL     1      27.189   7.222  48.195  1.00  0.00     0.116 A 
HETATM   26  F1  UNL     1      27.448   8.486  47.790  1.00  0.00    -0.206 F 
HETATM   27  C17 UNL     1      28.190   6.265  48.176  1.00  0.00     0.043 A 
HETATM   28  C18 UNL     1      28.022   4.954  48.567  1.00  0.00     0.010 A 
ENDBRANCH  21  22
ENDBRANCH  20  21
ENDBRANCH   9  20
TORSDOF 6
ENDMDL
MODEL 3
REMARK VINA RESULT:      -8.6      2.280      3.003
REMARK  6 active torsions:
REMARK  status: ('A' for Active; 'I' for Inactive)
REMARK    1  A    between atoms: O1_1  and  C1_2 
REMARK    2  A    between atoms: C3_5  and  N1_6 
REMARK    3  A    between atoms: N1_6  and  N2_7 
REMARK    4  A    between atoms: C10_15  and  C11_16 
REMARK    5  A    between atoms: C11_16  and  C12_17 
REMARK    6  A    between atoms: C12_17  and  C13_18 
ROOT
HETATM    1  N2  UNL     1      24.622   2.260  52.062  1.00  0.00    -0.130 NA
HETATM    2  N3  UNL     1      23.540   1.712  52.710  1.00  0.00    -0.312 N 
HETATM    3  C4  UNL     1      22.924   0.619  53.305  1.00  0.00     0.103 C 
HETATM    4  C5  UNL     1      22.002  -0.098  52.703  1.00  0.00     0.018 C 
HETATM    5  C6  UNL     1      21.504   0.134  51.362  1.00  0.00     0.001 C 
HETATM    6  C7  UNL     1      21.658   0.937  50.331  1.00  0.00    -0.000 C 
HETATM    7  C8  UNL     1      22.370   2.089  49.787  1.00  0.00    -0.002 C 
HETATM    8  C9  UNL     1      23.307   2.963  50.111  1.00  0.00    -0.004 C 
HETATM    9  C10 UNL     1      24.231   3.350  51.197  1.00  0.00     0.126 C 
HETATM   10  H4  UNL     1      22.746   2.394  52.872  1.00  0.00     0.181 HD
ENDROOT
BRANCH   1  11
HETATM   11  N1  UNL     1      25.538   2.657  53.040  1.00  0.00    -0.279 N 
HETATM   12  H3  UNL     1      25.581   3.454  53.735  1.00  0.00     0.185 HD
BRANCH  11  13
HETATM   13  C3  UNL     1      26.781   1.935  53.312  1.00  0.00     0.185 A 
HETATM   14  S1  UNL     1      27.382   0.146  52.947  1.00  0.00    -0.059 SA
HETATM   15  C2  UNL     1      28.996   0.512  53.747  1.00  0.00     0.111 A 
HETATM   16  C1  UNL     1      28.850   1.871  54.155  1.00  0.00     0.171 A 
HETATM   17  N4  UNL     1      27.677   2.407  53.849  1.00  0.00    -0.199 NA
BRANCH  16  18
HETATM   18  O1  UNL     1      29.945   2.463  54.818  1.00  0.00    -0.344 OA
HETATM   19  H1  UNL     1      30.769   1.944  55.066  1.00  0.00     0.219 HD
ENDBRANCH  16  18
ENDBRANCH  11  13
ENDBRANCH   1  11
BRANCH   9  20
HETATM   20  C11 UNL     1      25.412   4.158  50.766  1.00  0.00     0.032 C 
BRANCH  20  21
HETATM   21  C12 UNL     1      26.063   3.694  49.498  1.00  0.00     0.040 C 
BRANCH  21  22
HETATM   22  C13 UNL     1      26.759   4.883  48.903  1.00  0.00    -0.058 A 
HETATM   23  C14 UNL     1      26.010   6.005  48.642  1.00  0.00     0.010 A 
HETATM   24  C15 UNL     1      26.549   7.152  48.096  1.00  0.00     0.043 A 
HETATM   25  C16 UNL     1      27.884   7.204  47.793  1.00  0.00     0.116 A 
HETATM   26  F1  UNL     1      28.481   8.292  47.256  1.00  0.00    -0.206 F 
HETATM   27  C17 UNL     1      28.622   6.065  48.064  1.00  0.00     0.043 A 
HETATM   28  C18 UNL     1      28.103   4.910  48.608  1.00  0.00     0.010 A 
ENDBRANCH  21  22
ENDBRANCH  20  21
ENDBRANCH   9  20
TORSDOF 6
ENDMDL
MODEL 4
REMARK VINA RESULT:      -8.6      4.462      6.515
REMARK  6 active torsions:
REMARK  status: ('A' for Active; 'I' for Inactive)
REMARK    1  A    between atoms: O1_1  and  C1_2 
REMARK    2  A    between atoms: C3_5  and  N1_6 
REMARK    3  A    between atoms: N1_6  and  N2_7 
REMARK    4  A    between atoms: C10_15  and  C11_16 
REMARK    5  A    between atoms: C11_16  and  C12_17 
REMARK    6  A    between atoms: C12_17  and  C13_18 
ROOT
HETATM    1  N2  UNL     1      22.660   1.410  52.316  1.00  0.00    -0.130 NA
HETATM    2  N3  UNL     1      21.589   0.710  51.815  1.00  0.00    -0.312 N 
HETATM    3  C4  UNL     1      20.228   0.624  51.551  1.00  0.00     0.103 C 
HETATM    4  C5  UNL     1      19.396  -0.065  52.299  1.00  0.00     0.018 C 
HETATM    5  C6  UNL     1      19.761  -0.817  53.482  1.00  0.00     0.001 C 
HETATM    6  C7  UNL     1      20.801  -1.122  54.229  1.00  0.00    -0.000 C 
HETATM    7  C8  UNL     1      22.237  -0.961  54.432  1.00  0.00    -0.002 C 
HETATM    8  C9  UNL     1      23.287  -0.357  53.901  1.00  0.00    -0.004 C 
HETATM    9  C10 UNL     1      23.701   0.526  52.793  1.00  0.00     0.126 C 
HETATM   10  H4  UNL     1      21.843  -0.238  51.419  1.00  0.00     0.181 HD
ENDROOT
BRANCH   1  11
HETATM   11  N1  UNL     1      23.109   2.267  51.307  1.00  0.00    -0.279 N 
HETATM   12  H3  UNL     1      23.689   2.140  50.430  1.00  0.00     0.185 HD
BRANCH  11  13
HETATM   13  C3  UNL     1      22.813   3.699  51.283  1.00  0.00     0.185 A 
HETATM   14  S1  UNL     1      21.270   4.726  50.772  1.00  0.00    -0.059 SA
HETATM   15  C2  UNL     1      22.151   6.283  51.196  1.00  0.00     0.111 A 
HETATM   16  C1  UNL     1      23.424   5.819  51.641  1.00  0.00     0.171 A 
HETATM   17  N4  UNL     1      23.563   4.502  51.612  1.00  0.00    -0.199 NA
BRANCH  16  18
HETATM   18  O1  UNL     1      24.357   6.796  52.047  1.00  0.00    -0.344 OA
HETATM   19  H1  UNL     1      25.343   6.611  52.100  1.00  0.00     0.219 HD
ENDBRANCH  16  18
ENDBRANCH  11  13
ENDBRANCH   1  11
BRANCH   9  20
HETATM   20  C11 UNL     1      24.984   1.261  53.013  1.00  0.00     0.032 C 
BRANCH  20  21
HETATM   21  C12 UNL     1      26.000   1.094  51.924  1.00  0.00     0.040 C 
BRANCH  21  22
HETATM   22  C13 UNL     1      27.216   0.478  52.551  1.00  0.00    -0.058 A 
HETATM   23  C14 UNL     1      27.295  -0.894  52.594  1.00  0.00     0.010 A 
HETATM   24  C15 UNL     1      28.367  -1.563  53.149  1.00  0.00     0.043 A 
HETATM   25  C16 UNL     1      29.412  -0.856  53.684  1.00  0.00     0.116 A 
HETATM   26  F1  UNL     1      30.494  -1.442  54.243  1.00  0.00    -0.206 F 
HETATM   27  C17 UNL     1      29.315   0.524  53.629  1.00  0.00     0.043 A 
HETATM   28  C18 UNL     1      28.253   1.210  53.081  1.00  0.00     0.010 A 
ENDBRANCH  21  22
ENDBRANCH  20  21
ENDBRANCH   9  20
TORSDOF 6
ENDMDL
MODEL 5
REMARK VINA RESULT:      -8.5      3.392      6.772
REMARK  6 active torsions:
REMARK  status: ('A' for Active; 'I' for Inactive)
REMARK    1  A    between atoms: O1_1  and  C1_2 
REMARK    2  A    between atoms: C3_5  and  N1_6 
REMARK    3  A    between atoms: N1_6  and  N2_7 
REMARK    4  A    between atoms: C10_15  and  C11_16 
REMARK    5  A    between atoms: C11_16  and  C12_17 
REMARK    6  A    between atoms: C12_17  and  C13_18 
ROOT
HETATM    1  N2  UNL     1      25.809   3.419  51.008  1.00  0.00    -0.130 NA
HETATM    2  N3  UNL     1      26.238   3.840  49.771  1.00  0.00    -0.312 N 
HETATM    3  C4  UNL     1      27.255   4.298  48.945  1.00  0.00     0.103 C 
HETATM    4  C5  UNL     1      27.396   5.562  48.615  1.00  0.00     0.018 C 
HETATM    5  C6  UNL     1      26.536   6.642  49.054  1.00  0.00     0.001 C 
HETATM    6  C7  UNL     1      25.476   6.877  49.798  1.00  0.00    -0.000 C 
HETATM    7  C8  UNL     1      24.453   6.304  50.666  1.00  0.00    -0.002 C 
HETATM    8  C9  UNL     1      24.071   5.146  51.177  1.00  0.00    -0.004 C 
HETATM    9  C10 UNL     1      24.408   3.708  51.214  1.00  0.00     0.126 C 
HETATM   10  H4  UNL     1      25.478   3.847  49.034  1.00  0.00     0.181 HD
ENDROOT
BRANCH   1  11
HETATM   11  N1  UNL     1      26.093   2.055  51.107  1.00  0.00    -0.279 N 
HETATM   12  H3  UNL     1      25.786   1.193  50.574  1.00  0.00     0.185 HD
BRANCH  11  13
HETATM   13  C3  UNL     1      26.997   1.496  52.112  1.00  0.00     0.185 A 
HETATM   14  S1  UNL     1      27.296  -0.279  52.785  1.00  0.00    -0.059 SA
HETATM   15  C2  UNL     1      28.595   0.356  53.920  1.00  0.00     0.111 A 
HETATM   16  C1  UNL     1      28.612   1.754  53.636  1.00  0.00     0.171 A 
HETATM   17  N4  UNL     1      27.745   2.130  52.708  1.00  0.00    -0.199 NA
BRANCH  16  18
HETATM   18  O1  UNL     1      29.526   2.545  54.362  1.00  0.00    -0.344 OA
HETATM   19  H1  UNL     1      30.203   3.136  53.912  1.00  0.00     0.219 HD
ENDBRANCH  16  18
ENDBRANCH  11  13
ENDBRANCH   1  11
BRANCH   9  20
HETATM   20  C11 UNL     1      23.863   2.960  52.388  1.00  0.00     0.032 C 
BRANCH  20  21
HETATM   21  C12 UNL     1      22.447   2.492  52.234  1.00  0.00     0.040 C 
BRANCH  21  22
HETATM   22  C13 UNL     1      22.321   1.216  53.014  1.00  0.00    -0.058 A 
HETATM   23  C14 UNL     1      23.466   0.494  53.260  1.00  0.00     0.010 A 
HETATM   24  C15 UNL     1      23.463  -0.692  53.966  1.00  0.00     0.043 A 
HETATM   25  C16 UNL     1      22.286  -1.194  54.455  1.00  0.00     0.116 A 
HETATM   26  F1  UNL     1      22.206  -2.349  55.154  1.00  0.00    -0.206 F 
HETATM   27  C17 UNL     1      21.145  -0.454  54.198  1.00  0.00     0.043 A 
HETATM   28  C18 UNL     1      21.126   0.732  53.496  1.00  0.00     0.010 A 
ENDBRANCH  21  22
ENDBRANCH  20  21
ENDBRANCH   9  20
TORSDOF 6
ENDMDL
MODEL 6
REMARK VINA RESULT:      -8.2      4.506      6.293
REMARK  6 active torsions:
REMARK  status: ('A' for Active; 'I' for Inactive)
REMARK    1  A    between atoms: O1_1  and  C1_2 
REMARK    2  A    between atoms: C3_5  and  N1_6 
REMARK    3  A    between atoms: N1_6  and  N2_7 
REMARK    4  A    between atoms: C10_15  and  C11_16 
REMARK    5  A    between atoms: C11_16  and  C12_17 
REMARK    6  A    between atoms: C12_17  and  C13_18 
ROOT
HETATM    1  N2  UNL     1      22.215   1.743  52.664  1.00  0.00    -0.130 NA
HETATM    2  N3  UNL     1      21.201   0.914  52.249  1.00  0.00    -0.312 N 
HETATM    3  C4  UNL     1      19.855   0.571  52.247  1.00  0.00     0.103 C 
HETATM    4  C5  UNL     1      19.363  -0.399  52.984  1.00  0.00     0.018 C 
HETATM    5  C6  UNL     1      20.127  -1.235  53.887  1.00  0.00     0.001 C 
HETATM    6  C7  UNL     1      21.352  -1.419  54.333  1.00  0.00    -0.000 C 
HETATM    7  C8  UNL     1      22.742  -0.977  54.277  1.00  0.00    -0.002 C 
HETATM    8  C9  UNL     1      23.509  -0.076  53.688  1.00  0.00    -0.004 C 
HETATM    9  C10 UNL     1      23.482   1.048  52.729  1.00  0.00     0.126 C 
HETATM   10  H4  UNL     1      21.522   0.124  51.621  1.00  0.00     0.181 HD
ENDROOT
BRANCH   1  11
HETATM   11  N1  UNL     1      22.249   2.832  51.788  1.00  0.00    -0.279 N 
HETATM   12  H3  UNL     1      22.586   3.833  51.863  1.00  0.00     0.185 HD
BRANCH  11  13
HETATM   13  C3  UNL     1      21.752   2.770  50.414  1.00  0.00     0.185 A 
HETATM   14  S1  UNL     1      20.138   3.373  49.560  1.00  0.00    -0.059 SA
HETATM   15  C2  UNL     1      20.734   2.722  47.948  1.00  0.00     0.111 A 
HETATM   16  C1  UNL     1      22.007   2.170  48.276  1.00  0.00     0.171 A 
HETATM   17  N4  UNL     1      22.339   2.291  49.553  1.00  0.00    -0.199 NA
BRANCH  16  18
HETATM   18  O1  UNL     1      22.739   1.576  47.227  1.00  0.00    -0.344 OA
HETATM   19  H1  UNL     1      23.725   1.391  47.295  1.00  0.00     0.219 HD
ENDBRANCH  16  18
ENDBRANCH  11  13
ENDBRANCH   1  11
BRANCH   9  20
HETATM   20  C11 UNL     1      24.625   2.004  52.840  1.00  0.00     0.032 C 
BRANCH  20  21
HETATM   21  C12 UNL     1      25.685   1.842  51.792  1.00  0.00     0.040 C 
BRANCH  21  22
HETATM   22  C13 UNL     1      26.865   1.197  52.459  1.00  0.00    -0.058 A 
HETATM   23  C14 UNL     1      26.937  -0.176  52.456  1.00  0.00     0.010 A 
HETATM   24  C15 UNL     1      27.976  -0.870  53.040  1.00  0.00     0.043 A 
HETATM   25  C16 UNL     1      28.994  -0.189  53.655  1.00  0.00     0.116 A 
HETATM   26  F1  UNL     1      30.043  -0.800  54.249  1.00  0.00    -0.206 F 
HETATM   27  C17 UNL     1      28.904   1.192  53.647  1.00  0.00     0.043 A 
HETATM   28  C18 UNL     1      27.875   1.904  53.070  1.00  0.00     0.010 A 
ENDBRANCH  21  22
ENDBRANCH  20  21
ENDBRANCH   9  20
TORSDOF 6
ENDMDL
MODEL 7
REMARK VINA RESULT:      -8.1      4.613      7.894
REMARK  6 active torsions:
REMARK  status: ('A' for Active; 'I' for Inactive)
REMARK    1  A    between atoms: O1_1  and  C1_2 
REMARK    2  A    between atoms: C3_5  and  N1_6 
REMARK    3  A    between atoms: N1_6  and  N2_7 
REMARK    4  A    between atoms: C10_15  and  C11_16 
REMARK    5  A    between atoms: C11_16  and  C12_17 
REMARK    6  A    between atoms: C12_17  and  C13_18 
ROOT
HETATM    1  N2  UNL     1      24.135   3.738  51.254  1.00  0.00    -0.130 NA
HETATM    2  N3  UNL     1      24.615   5.025  51.194  1.00  0.00    -0.312 N 
HETATM    3  C4  UNL     1      24.520   6.320  50.703  1.00  0.00     0.103 C 
HETATM    4  C5  UNL     1      25.270   6.771  49.723  1.00  0.00     0.018 C 
HETATM    5  C6  UNL     1      26.282   6.006  49.023  1.00  0.00     0.001 C 
HETATM    6  C7  UNL     1      26.828   4.809  48.989  1.00  0.00    -0.000 C 
HETATM    7  C8  UNL     1      26.844   3.467  49.562  1.00  0.00    -0.002 C 
HETATM    8  C9  UNL     1      26.242   2.738  50.486  1.00  0.00    -0.004 C 
HETATM    9  C10 UNL     1      25.190   2.786  51.521  1.00  0.00     0.126 C 
HETATM   10  H4  UNL     1      25.480   5.188  51.782  1.00  0.00     0.181 HD
ENDROOT
BRANCH   1  11
HETATM   11  N1  UNL     1      23.132   3.711  52.227  1.00  0.00    -0.279 N 
HETATM   12  H3  UNL     1      23.128   3.694  53.286  1.00  0.00     0.185 HD
BRANCH  11  13
HETATM   13  C3  UNL     1      21.705   3.700  51.906  1.00  0.00     0.185 A 
HETATM   14  S1  UNL     1      20.234   2.587  52.447  1.00  0.00    -0.059 SA
HETATM   15  C2  UNL     1      19.088   3.574  51.403  1.00  0.00     0.111 A 
HETATM   16  C1  UNL     1      19.946   4.555  50.825  1.00  0.00     0.171 A 
HETATM   17  N4  UNL     1      21.214   4.455  51.196  1.00  0.00    -0.199 NA
BRANCH  16  18
HETATM   18  O1  UNL     1      19.355   5.489  49.949  1.00  0.00    -0.344 OA
HETATM   19  H1  UNL     1      19.897   6.153  49.423  1.00  0.00     0.219 HD
ENDBRANCH  16  18
ENDBRANCH  11  13
ENDBRANCH   1  11
BRANCH   9  20
HETATM   20  C11 UNL     1      24.637   1.457  51.924  1.00  0.00     0.032 C 
BRANCH  20  21
HETATM   21  C12 UNL     1      24.902   1.070  53.348  1.00  0.00     0.040 C 
BRANCH  21  22
HETATM   22  C13 UNL     1      26.217   0.347  53.367  1.00  0.00    -0.058 A 
HETATM   23  C14 UNL     1      27.230   0.869  54.137  1.00  0.00     0.010 A 
HETATM   24  C15 UNL     1      28.477   0.285  54.225  1.00  0.00     0.043 A 
HETATM   25  C16 UNL     1      28.746  -0.863  53.528  1.00  0.00     0.116 A 
HETATM   26  F1  UNL     1      29.943  -1.490  53.565  1.00  0.00    -0.206 F 
HETATM   27  C17 UNL     1      27.714  -1.374  52.760  1.00  0.00     0.043 A 
HETATM   28  C18 UNL     1      26.462  -0.807  52.658  1.00  0.00     0.010 A 
ENDBRANCH  21  22
ENDBRANCH  20  21
ENDBRANCH   9  20
TORSDOF 6
ENDMDL
MODEL 8
REMARK VINA RESULT:      -8.0      3.607      6.725
REMARK  6 active torsions:
REMARK  status: ('A' for Active; 'I' for Inactive)
REMARK    1  A    between atoms: O1_1  and  C1_2 
REMARK    2  A    between atoms: C3_5  and  N1_6 
REMARK    3  A    between atoms: N1_6  and  N2_7 
REMARK    4  A    between atoms: C10_15  and  C11_16 
REMARK    5  A    between atoms: C11_16  and  C12_17 
REMARK    6  A    between atoms: C12_17  and  C13_18 
ROOT
HETATM    1  N2  UNL     1      24.713   1.968  52.548  1.00  0.00    -0.130 NA
HETATM    2  N3  UNL     1      25.650   2.052  51.545  1.00  0.00    -0.312 N 
HETATM    3  C4  UNL     1      26.732   2.701  50.965  1.00  0.00     0.103 C 
HETATM    4  C5  UNL     1      26.616   3.496  49.926  1.00  0.00     0.018 C 
HETATM    5  C6  UNL     1      25.375   3.813  49.248  1.00  0.00     0.001 C 
HETATM    6  C7  UNL     1      24.084   3.560  49.292  1.00  0.00    -0.000 C 
HETATM    7  C8  UNL     1      23.010   2.849  49.978  1.00  0.00    -0.002 C 
HETATM    8  C9  UNL     1      22.808   2.034  51.000  1.00  0.00    -0.004 C 
HETATM    9  C10 UNL     1      23.501   1.324  52.094  1.00  0.00     0.126 C 
HETATM   10  H4  UNL     1      25.576   1.282  50.824  1.00  0.00     0.181 HD
ENDROOT
BRANCH   1  11
HETATM   11  N1  UNL     1      25.306   1.295  53.619  1.00  0.00    -0.279 N 
HETATM   12  H3  UNL     1      24.948   0.893  54.531  1.00  0.00     0.185 HD
BRANCH  11  13
HETATM   13  C3  UNL     1      26.734   0.984  53.677  1.00  0.00     0.185 A 
HETATM   14  S1  UNL     1      27.783  -0.534  53.138  1.00  0.00    -0.059 SA
HETATM   15  C2  UNL     1      29.313   0.300  53.723  1.00  0.00     0.111 A 
HETATM   16  C1  UNL     1      28.829   1.547  54.218  1.00  0.00     0.171 A 
HETATM   17  N4  UNL     1      27.517   1.703  54.108  1.00  0.00    -0.199 NA
BRANCH  16  18
HETATM   18  O1  UNL     1      29.781   2.439  54.752  1.00  0.00    -0.344 OA
HETATM   19  H1  UNL     1      30.710   2.148  55.005  1.00  0.00     0.219 HD
ENDBRANCH  16  18
ENDBRANCH  11  13
ENDBRANCH   1  11
BRANCH   9  20
HETATM   20  C11 UNL     1      22.630   0.925  53.242  1.00  0.00     0.032 C 
BRANCH  20  21
HETATM   21  C12 UNL     1      22.296  -0.535  53.301  1.00  0.00     0.040 C 
BRANCH  21  22
HETATM   22  C13 UNL     1      20.812  -0.652  53.109  1.00  0.00    -0.058 A 
HETATM   23  C14 UNL     1      20.134  -1.574  53.870  1.00  0.00     0.010 A 
HETATM   24  C15 UNL     1      18.770  -1.763  53.773  1.00  0.00     0.043 A 
HETATM   25  C16 UNL     1      18.036  -1.014  52.891  1.00  0.00     0.116 A 
HETATM   26  F1  UNL     1      16.699  -1.145  52.741  1.00  0.00    -0.206 F 
HETATM   27  C17 UNL     1      18.737  -0.090  52.135  1.00  0.00     0.043 A 
HETATM   28  C18 UNL     1      20.097   0.114  52.216  1.00  0.00     0.010 A 
ENDBRANCH  21  22
ENDBRANCH  20  21
ENDBRANCH   9  20
TORSDOF 6
ENDMDL
MODEL 9
REMARK VINA RESULT:      -8.0      4.928      8.420
REMARK  6 active torsions:
REMARK  status: ('A' for Active; 'I' for Inactive)
REMARK    1  A    between atoms: O1_1  and  C1_2 
REMARK    2  A    between atoms: C3_5  and  N1_6 
REMARK    3  A    between atoms: N1_6  and  N2_7 
REMARK    4  A    between atoms: C10_15  and  C11_16 
REMARK    5  A    between atoms: C11_16  and  C12_17 
REMARK    6  A    between atoms: C12_17  and  C13_18 
ROOT
HETATM    1  N2  UNL     1      24.482   4.718  50.628  1.00  0.00    -0.130 NA
HETATM    2  N3  UNL     1      25.164   5.907  50.724  1.00  0.00    -0.312 N 
HETATM    3  C4  UNL     1      25.302   7.244  50.373  1.00  0.00     0.103 C 
HETATM    4  C5  UNL     1      26.164   7.662  49.475  1.00  0.00     0.018 C 
HETATM    5  C6  UNL     1      27.075   6.816  48.731  1.00  0.00     0.001 C 
HETATM    6  C7  UNL     1      27.425   5.556  48.588  1.00  0.00    -0.000 C 
HETATM    7  C8  UNL     1      27.197   4.178  49.012  1.00  0.00    -0.002 C 
HETATM    8  C9  UNL     1      26.440   3.468  49.830  1.00  0.00    -0.004 C 
HETATM    9  C10 UNL     1      25.356   3.583  50.827  1.00  0.00     0.126 C 
HETATM   10  H4  UNL     1      26.012   5.866  51.357  1.00  0.00     0.181 HD
ENDROOT
BRANCH   1  11
HETATM   11  N1  UNL     1      23.439   4.757  51.557  1.00  0.00    -0.279 N 
HETATM   12  H3  UNL     1      23.389   4.805  52.614  1.00  0.00     0.185 HD
BRANCH  11  13
HETATM   13  C3  UNL     1      22.026   4.735  51.176  1.00  0.00     0.185 A 
HETATM   14  S1  UNL     1      21.013   5.603  49.793  1.00  0.00    -0.059 SA
HETATM   15  C2  UNL     1      19.480   4.777  50.381  1.00  0.00     0.111 A 
HETATM   16  C1  UNL     1      19.938   4.001  51.486  1.00  0.00     0.171 A 
HETATM   17  N4  UNL     1      21.236   4.111  51.726  1.00  0.00    -0.199 NA
BRANCH  16  18
HETATM   18  O1  UNL     1      18.976   3.230  52.172  1.00  0.00    -0.344 OA
HETATM   19  H1  UNL     1      18.078   3.598  52.434  1.00  0.00     0.219 HD
ENDBRANCH  16  18
ENDBRANCH  11  13
ENDBRANCH   1  11
BRANCH   9  20
HETATM   20  C11 UNL     1      24.578   2.329  51.065  1.00  0.00     0.032 C 
BRANCH  20  21
HETATM   21  C12 UNL     1      25.277   1.305  51.908  1.00  0.00     0.040 C 
BRANCH  21  22
HETATM   22  C13 UNL     1      24.229   0.654  52.763  1.00  0.00    -0.058 A 
HETATM   23  C14 UNL     1      22.930   1.084  52.631  1.00  0.00     0.010 A 
HETATM   24  C15 UNL     1      21.890   0.555  53.368  1.00  0.00     0.043 A 
HETATM   25  C16 UNL     1      22.132  -0.441  54.276  1.00  0.00     0.116 A 
HETATM   26  F1  UNL     1      21.165  -1.006  55.033  1.00  0.00    -0.206 F 
HETATM   27  C17 UNL     1      23.446  -0.861  54.395  1.00  0.00     0.043 A 
HETATM   28  C18 UNL     1      24.498  -0.346  53.669  1.00  0.00     0.010 A 
ENDBRANCH  21  22
ENDBRANCH  20  21
ENDBRANCH   9  20
TORSDOF 6
ENDMDL
