MODEL 1
REMARK VINA RESULT:      -7.1      0.000      0.000
REMARK  6 active torsions:
REMARK  status: ('A' for Active; 'I' for Inactive)
REMARK    1  A    between atoms: O1_2  and  C2_3 
REMARK    2  A    between atoms: C9_11  and  O2_12 
REMARK    3  A    between atoms: O2_12  and  C10_13 
REMARK    4  A    between atoms: C10_13  and  O3_14 
REMARK    5  A    between atoms: C11_15  and  N2_16 
REMARK    6  A    between atoms: N2_16  and  C13_18 
ROOT
HETATM    1  C2  UNL     1      26.219   0.565  54.163  1.00  0.00     0.075 A 
HETATM    2  C3  UNL     1      25.273   1.364  53.553  1.00  0.00     0.053 A 
HETATM    3  C4  UNL     1      25.568   2.019  52.374  1.00  0.00     0.022 A 
HETATM    4  C5  UNL     1      26.818   1.875  51.797  1.00  0.00     0.067 A 
HETATM    5  C6  UNL     1      27.768   1.078  52.403  1.00  0.00     0.041 A 
HETATM    6  C7  UNL     1      27.483   0.416  53.585  1.00  0.00    -0.026 A 
HETATM    7  C8  UNL     1      28.569  -0.436  54.186  1.00  0.00     0.051 C 
HETATM    8  N1  UNL     1      26.926   2.542  50.720  1.00  0.00    -0.251 NA
HETATM    9  C9  UNL     1      25.678   3.235  50.461  1.00  0.00     0.299 A 
HETATM   10  C11 UNL     1      24.844   2.831  51.604  1.00  0.00     0.075 A 
ENDROOT
BRANCH  10  11
HETATM   11  N2  UNL     1      23.488   3.187  51.925  1.00  0.00    -0.350 N 
HETATM   12  C12 UNL     1      23.033   4.414  52.526  1.00  0.00     0.156 C 
BRANCH  11  13
HETATM   13  C13 UNL     1      22.496   2.215  51.609  1.00  0.00     0.034 A 
HETATM   14  C14 UNL     1      21.659   1.730  52.595  1.00  0.00     0.029 A 
HETATM   15  C15 UNL     1      20.686   0.796  52.355  1.00  0.00     0.002 A 
HETATM   16  C16 UNL     1      20.516   0.304  51.090  1.00  0.00     0.000 A 
HETATM   17  C17 UNL     1      21.328   0.759  50.077  1.00  0.00     0.002 A 
HETATM   18  C18 UNL     1      22.301   1.700  50.339  1.00  0.00     0.029 A 
ENDBRANCH  11  13
ENDBRANCH  10  11
BRANCH   9  19
HETATM   19  O2  UNL     1      25.842   4.609  50.331  1.00  0.00    -0.335 OA
BRANCH  19  20
HETATM   20  C10 UNL     1      26.551   4.807  49.147  1.00  0.00     0.337 C 
BRANCH  20  21
HETATM   21  O3  UNL     1      27.931   4.870  49.405  1.00  0.00    -0.377 OA
HETATM   22  H12 UNL     1      28.240   4.106  49.927  1.00  0.00     0.212 HD
ENDBRANCH  20  21
ENDBRANCH  19  20
ENDBRANCH   9  19
BRANCH   1  23
HETATM   23  O1  UNL     1      26.067  -0.151  55.344  1.00  0.00    -0.355 OA
HETATM   24  C1  UNL     1      24.943  -1.033  55.412  1.00  0.00     0.210 C 
ENDBRANCH   1  23
TORSDOF 6
ENDMDL
MODEL 2
REMARK VINA RESULT:      -7.1      2.453      4.468
REMARK  6 active torsions:
REMARK  status: ('A' for Active; 'I' for Inactive)
REMARK    1  A    between atoms: O1_2  and  C2_3 
REMARK    2  A    between atoms: C9_11  and  O2_12 
REMARK    3  A    between atoms: O2_12  and  C10_13 
REMARK    4  A    between atoms: C10_13  and  O3_14 
REMARK    5  A    between atoms: C11_15  and  N2_16 
REMARK    6  A    between atoms: N2_16  and  C13_18 
ROOT
HETATM    1  C2  UNL     1      26.689   1.116  52.755  1.00  0.00     0.075 A 
HETATM    2  C3  UNL     1      25.440   1.623  52.457  1.00  0.00     0.053 A 
HETATM    3  C4  UNL     1      24.302   0.995  52.924  1.00  0.00     0.022 A 
HETATM    4  C5  UNL     1      24.411  -0.149  53.695  1.00  0.00     0.067 A 
HETATM    5  C6  UNL     1      25.657  -0.661  53.996  1.00  0.00     0.041 A 
HETATM    6  C7  UNL     1      26.805  -0.039  53.534  1.00  0.00    -0.026 A 
HETATM    7  C8  UNL     1      28.127  -0.656  53.904  1.00  0.00     0.051 C 
HETATM    8  N1  UNL     1      23.274  -0.600  54.041  1.00  0.00    -0.251 NA
HETATM    9  C9  UNL     1      22.236   0.255  53.499  1.00  0.00     0.299 A 
HETATM   10  C11 UNL     1      23.009   1.279  52.778  1.00  0.00     0.075 A 
ENDROOT
BRANCH  10  11
HETATM   11  N2  UNL     1      22.552   2.416  52.025  1.00  0.00    -0.350 N 
HETATM   12  C12 UNL     1      22.196   3.713  52.540  1.00  0.00     0.156 C 
BRANCH  11  13
HETATM   13  C13 UNL     1      22.444   2.228  50.616  1.00  0.00     0.034 A 
HETATM   14  C14 UNL     1      23.193   3.002  49.753  1.00  0.00     0.029 A 
HETATM   15  C15 UNL     1      23.134   2.871  48.390  1.00  0.00     0.002 A 
HETATM   16  C16 UNL     1      22.302   1.937  47.835  1.00  0.00     0.000 A 
HETATM   17  C17 UNL     1      21.537   1.144  48.658  1.00  0.00     0.002 A 
HETATM   18  C18 UNL     1      21.611   1.292  50.027  1.00  0.00     0.029 A 
ENDBRANCH  11  13
ENDBRANCH  10  11
BRANCH   9  19
HETATM   19  O2  UNL     1      21.326  -0.435  52.709  1.00  0.00    -0.335 OA
BRANCH  19  20
HETATM   20  C10 UNL     1      20.149  -0.520  53.453  1.00  0.00     0.337 C 
BRANCH  20  21
HETATM   21  O3  UNL     1      20.357  -0.046  54.760  1.00  0.00    -0.377 OA
HETATM   22  H12 UNL     1      21.250   0.329  54.873  1.00  0.00     0.212 HD
ENDBRANCH  20  21
ENDBRANCH  19  20
ENDBRANCH   9  19
BRANCH   1  23
HETATM   23  O1  UNL     1      27.915   1.636  52.359  1.00  0.00    -0.355 OA
HETATM   24  C1  UNL     1      28.543   2.544  53.267  1.00  0.00     0.210 C 
ENDBRANCH   1  23
TORSDOF 6
ENDMDL
MODEL 3
REMARK VINA RESULT:      -7.0      2.125      5.187
REMARK  6 active torsions:
REMARK  status: ('A' for Active; 'I' for Inactive)
REMARK    1  A    between atoms: O1_2  and  C2_3 
REMARK    2  A    between atoms: C9_11  and  O2_12 
REMARK    3  A    between atoms: O2_12  and  C10_13 
REMARK    4  A    between atoms: C10_13  and  O3_14 
REMARK    5  A    between atoms: C11_15  and  N2_16 
REMARK    6  A    between atoms: N2_16  and  C13_18 
ROOT
HETATM    1  C2  UNL     1      22.054  -0.052  52.759  1.00  0.00     0.075 A 
HETATM    2  C3  UNL     1      23.355   0.169  53.160  1.00  0.00     0.053 A 
HETATM    3  C4  UNL     1      24.155   1.062  52.474  1.00  0.00     0.022 A 
HETATM    4  C5  UNL     1      23.650   1.742  51.378  1.00  0.00     0.067 A 
HETATM    5  C6  UNL     1      22.348   1.524  50.973  1.00  0.00     0.041 A 
HETATM    6  C7  UNL     1      21.538   0.631  51.654  1.00  0.00    -0.026 A 
HETATM    7  C8  UNL     1      20.130   0.447  51.153  1.00  0.00     0.051 C 
HETATM    8  N1  UNL     1      24.510   2.522  50.863  1.00  0.00    -0.251 NA
HETATM    9  C9  UNL     1      25.747   2.431  51.615  1.00  0.00     0.299 A 
HETATM   10  C11 UNL     1      25.418   1.445  52.656  1.00  0.00     0.075 A 
ENDROOT
BRANCH  10  11
HETATM   11  N2  UNL     1      26.233   0.922  53.719  1.00  0.00    -0.350 N 
HETATM   12  C12 UNL     1      26.314   1.412  55.072  1.00  0.00     0.156 C 
BRANCH  11  13
HETATM   13  C13 UNL     1      27.043  -0.203  53.390  1.00  0.00     0.034 A 
HETATM   14  C14 UNL     1      28.397  -0.187  53.661  1.00  0.00     0.029 A 
HETATM   15  C15 UNL     1      29.229  -1.236  53.368  1.00  0.00     0.002 A 
HETATM   16  C16 UNL     1      28.719  -2.361  52.780  1.00  0.00     0.000 A 
HETATM   17  C17 UNL     1      27.376  -2.419  52.491  1.00  0.00     0.002 A 
HETATM   18  C18 UNL     1      26.555  -1.353  52.794  1.00  0.00     0.029 A 
ENDBRANCH  11  13
ENDBRANCH  10  11
BRANCH   9  19
HETATM   19  O2  UNL     1      26.835   2.083  50.823  1.00  0.00    -0.335 OA
BRANCH  19  20
HETATM   20  C10 UNL     1      26.748   2.868  49.674  1.00  0.00     0.337 C 
BRANCH  20  21
HETATM   21  O3  UNL     1      27.280   4.148  49.910  1.00  0.00    -0.377 OA
HETATM   22  H12 UNL     1      28.237   4.184  49.726  1.00  0.00     0.212 HD
ENDBRANCH  20  21
ENDBRANCH  19  20
ENDBRANCH   9  19
BRANCH   1  23
HETATM   23  O1  UNL     1      21.137  -0.916  53.347  1.00  0.00    -0.355 OA
HETATM   24  C1  UNL     1      21.634  -1.751  54.396  1.00  0.00     0.210 C 
ENDBRANCH   1  23
TORSDOF 6
ENDMDL
MODEL 4
REMARK VINA RESULT:      -6.9      2.502      3.987
REMARK  6 active torsions:
REMARK  status: ('A' for Active; 'I' for Inactive)
REMARK    1  A    between atoms: O1_2  and  C2_3 
REMARK    2  A    between atoms: C9_11  and  O2_12 
REMARK    3  A    between atoms: O2_12  and  C10_13 
REMARK    4  A    between atoms: C10_13  and  O3_14 
REMARK    5  A    between atoms: C11_15  and  N2_16 
REMARK    6  A    between atoms: N2_16  and  C13_18 
ROOT
HETATM    1  C2  UNL     1      21.817   0.568  53.533  1.00  0.00     0.075 A 
HETATM    2  C3  UNL     1      22.283   1.568  52.704  1.00  0.00     0.053 A 
HETATM    3  C4  UNL     1      23.599   1.568  52.283  1.00  0.00     0.022 A 
HETATM    4  C5  UNL     1      24.456   0.561  52.691  1.00  0.00     0.067 A 
HETATM    5  C6  UNL     1      23.994  -0.442  53.520  1.00  0.00     0.041 A 
HETATM    6  C7  UNL     1      22.677  -0.452  53.948  1.00  0.00    -0.026 A 
HETATM    7  C8  UNL     1      22.248  -1.579  54.850  1.00  0.00     0.051 C 
HETATM    8  N1  UNL     1      25.625   0.708  52.216  1.00  0.00    -0.251 NA
HETATM    9  C9  UNL     1      25.659   1.903  51.395  1.00  0.00     0.299 A 
HETATM   10  C11 UNL     1      24.279   2.403  51.498  1.00  0.00     0.075 A 
ENDROOT
BRANCH  10  11
HETATM   11  N2  UNL     1      23.674   3.564  50.904  1.00  0.00    -0.350 N 
HETATM   12  C12 UNL     1      23.559   4.877  51.487  1.00  0.00     0.156 C 
BRANCH  11  13
HETATM   13  C13 UNL     1      23.134   3.388  49.598  1.00  0.00     0.034 A 
HETATM   14  C14 UNL     1      22.960   4.475  48.765  1.00  0.00     0.029 A 
HETATM   15  C15 UNL     1      22.446   4.371  47.499  1.00  0.00     0.002 A 
HETATM   16  C16 UNL     1      22.081   3.145  47.015  1.00  0.00     0.000 A 
HETATM   17  C17 UNL     1      22.237   2.033  47.811  1.00  0.00     0.002 A 
HETATM   18  C18 UNL     1      22.756   2.160  49.082  1.00  0.00     0.029 A 
ENDBRANCH  11  13
ENDBRANCH  10  11
BRANCH   9  19
HETATM   19  O2  UNL     1      26.628   2.811  51.803  1.00  0.00    -0.335 OA
BRANCH  19  20
HETATM   20  C10 UNL     1      27.463   2.122  52.682  1.00  0.00     0.337 C 
BRANCH  20  21
HETATM   21  O3  UNL     1      27.326   2.623  53.988  1.00  0.00    -0.377 OA
HETATM   22  H12 UNL     1      27.715   3.513  54.079  1.00  0.00     0.212 HD
ENDBRANCH  20  21
ENDBRANCH  19  20
ENDBRANCH   9  19
BRANCH   1  23
HETATM   23  O1  UNL     1      20.527   0.437  54.035  1.00  0.00    -0.355 OA
HETATM   24  C1  UNL     1      19.528   0.002  53.111  1.00  0.00     0.210 C 
ENDBRANCH   1  23
TORSDOF 6
ENDMDL
MODEL 5
REMARK VINA RESULT:      -6.8      2.459      5.281
REMARK  6 active torsions:
REMARK  status: ('A' for Active; 'I' for Inactive)
REMARK    1  A    between atoms: O1_2  and  C2_3 
REMARK    2  A    between atoms: C9_11  and  O2_12 
REMARK    3  A    between atoms: O2_12  and  C10_13 
REMARK    4  A    between atoms: C10_13  and  O3_14 
REMARK    5  A    between atoms: C11_15  and  N2_16 
REMARK    6  A    between atoms: N2_16  and  C13_18 
ROOT
HETATM    1  C2  UNL     1      21.645  -0.100  52.849  1.00  0.00     0.075 A 
HETATM    2  C3  UNL     1      22.837   0.520  52.529  1.00  0.00     0.053 A 
HETATM    3  C4  UNL     1      23.992   0.209  53.219  1.00  0.00     0.022 A 
HETATM    4  C5  UNL     1      23.959  -0.729  54.236  1.00  0.00     0.067 A 
HETATM    5  C6  UNL     1      22.770  -1.352  54.560  1.00  0.00     0.041 A 
HETATM    6  C7  UNL     1      21.605  -1.048  53.875  1.00  0.00    -0.026 A 
HETATM    7  C8  UNL     1      20.349  -1.768  54.285  1.00  0.00     0.051 C 
HETATM    8  N1  UNL     1      25.101  -0.898  54.767  1.00  0.00    -0.251 NA
HETATM    9  C9  UNL     1      26.064  -0.034  54.110  1.00  0.00     0.299 A 
HETATM   10  C11 UNL     1      25.242   0.657  53.105  1.00  0.00     0.075 A 
ENDROOT
BRANCH  10  11
HETATM   11  N2  UNL     1      25.617   1.648  52.133  1.00  0.00    -0.350 N 
HETATM   12  C12 UNL     1      26.737   1.595  51.228  1.00  0.00     0.156 C 
BRANCH  11  13
HETATM   13  C13 UNL     1      24.784   2.802  52.064  1.00  0.00     0.034 A 
HETATM   14  C14 UNL     1      24.324   3.255  50.843  1.00  0.00     0.029 A 
HETATM   15  C15 UNL     1      23.521   4.357  50.711  1.00  0.00     0.002 A 
HETATM   16  C16 UNL     1      23.144   5.058  51.823  1.00  0.00     0.000 A 
HETATM   17  C17 UNL     1      23.579   4.642  53.060  1.00  0.00     0.002 A 
HETATM   18  C18 UNL     1      24.387   3.530  53.172  1.00  0.00     0.029 A 
ENDBRANCH  11  13
ENDBRANCH  10  11
BRANCH   9  19
HETATM   19  O2  UNL     1      26.718   0.815  54.995  1.00  0.00    -0.335 OA
BRANCH  19  20
HETATM   20  C10 UNL     1      28.077   0.521  54.885  1.00  0.00     0.337 C 
BRANCH  20  21
HETATM   21  O3  UNL     1      28.261  -0.766  54.351  1.00  0.00    -0.377 OA
HETATM   22  H12 UNL     1      27.468  -1.080  53.877  1.00  0.00     0.212 HD
ENDBRANCH  20  21
ENDBRANCH  19  20
ENDBRANCH   9  19
BRANCH   1  23
HETATM   23  O1  UNL     1      20.411   0.110  52.246  1.00  0.00    -0.355 OA
HETATM   24  C1  UNL     1      20.435   0.593  50.901  1.00  0.00     0.210 C 
ENDBRANCH   1  23
TORSDOF 6
ENDMDL
MODEL 6
REMARK VINA RESULT:      -6.4      4.747      8.222
REMARK  6 active torsions:
REMARK  status: ('A' for Active; 'I' for Inactive)
REMARK    1  A    between atoms: O1_2  and  C2_3 
REMARK    2  A    between atoms: C9_11  and  O2_12 
REMARK    3  A    between atoms: O2_12  and  C10_13 
REMARK    4  A    between atoms: C10_13  and  O3_14 
REMARK    5  A    between atoms: C11_15  and  N2_16 
REMARK    6  A    between atoms: N2_16  and  C13_18 
ROOT
HETATM    1  C2  UNL     1      25.278   5.785  49.084  1.00  0.00     0.075 A 
HETATM    2  C3  UNL     1      26.130   6.791  48.676  1.00  0.00     0.053 A 
HETATM    3  C4  UNL     1      27.468   6.526  48.459  1.00  0.00     0.022 A 
HETATM    4  C5  UNL     1      27.960   5.246  48.651  1.00  0.00     0.067 A 
HETATM    5  C6  UNL     1      27.111   4.237  49.060  1.00  0.00     0.041 A 
HETATM    6  C7  UNL     1      25.768   4.491  49.279  1.00  0.00    -0.026 A 
HETATM    7  C8  UNL     1      24.906   3.340  49.723  1.00  0.00     0.051 C 
HETATM    8  N1  UNL     1      29.205   5.173  48.410  1.00  0.00    -0.251 NA
HETATM    9  C9  UNL     1      29.691   6.480  48.009  1.00  0.00     0.299 A 
HETATM   10  C11 UNL     1      28.476   7.307  48.071  1.00  0.00     0.075 A 
ENDROOT
BRANCH  10  11
HETATM   11  N2  UNL     1      28.299   8.705  47.786  1.00  0.00    -0.350 N 
HETATM   12  C12 UNL     1      28.713   9.816  48.604  1.00  0.00     0.156 C 
BRANCH  11  13
HETATM   13  C13 UNL     1      27.643   9.014  46.560  1.00  0.00     0.034 A 
HETATM   14  C14 UNL     1      26.623   9.944  46.532  1.00  0.00     0.029 A 
HETATM   15  C15 UNL     1      25.954  10.285  45.386  1.00  0.00     0.002 A 
HETATM   16  C16 UNL     1      26.294   9.690  44.202  1.00  0.00     0.000 A 
HETATM   17  C17 UNL     1      27.304   8.757  44.182  1.00  0.00     0.002 A 
HETATM   18  C18 UNL     1      27.966   8.429  45.347  1.00  0.00     0.029 A 
ENDBRANCH  11  13
ENDBRANCH  10  11
BRANCH   9  19
HETATM   19  O2  UNL     1      30.734   6.936  48.806  1.00  0.00    -0.335 OA
BRANCH  19  20
HETATM   20  C10 UNL     1      31.512   5.819  49.107  1.00  0.00     0.337 C 
BRANCH  20  21
HETATM   21  O3  UNL     1      31.311   5.423  50.440  1.00  0.00    -0.377 OA
HETATM   22  H12 UNL     1      31.991   4.790  50.739  1.00  0.00     0.212 HD
ENDBRANCH  20  21
ENDBRANCH  19  20
ENDBRANCH   9  19
BRANCH   1  23
HETATM   23  O1  UNL     1      23.916   5.901  49.340  1.00  0.00    -0.355 OA
HETATM   24  C1  UNL     1      23.544   6.772  50.410  1.00  0.00     0.210 C 
ENDBRANCH   1  23
TORSDOF 6
ENDMDL
MODEL 7
REMARK VINA RESULT:      -6.4      3.238      5.160
REMARK  6 active torsions:
REMARK  status: ('A' for Active; 'I' for Inactive)
REMARK    1  A    between atoms: O1_2  and  C2_3 
REMARK    2  A    between atoms: C9_11  and  O2_12 
REMARK    3  A    between atoms: O2_12  and  C10_13 
REMARK    4  A    between atoms: C10_13  and  O3_14 
REMARK    5  A    between atoms: C11_15  and  N2_16 
REMARK    6  A    between atoms: N2_16  and  C13_18 
ROOT
HETATM    1  C2  UNL     1      23.519   0.073  53.426  1.00  0.00     0.075 A 
HETATM    2  C3  UNL     1      23.407   1.183  52.615  1.00  0.00     0.053 A 
HETATM    3  C4  UNL     1      22.201   1.849  52.505  1.00  0.00     0.022 A 
HETATM    4  C5  UNL     1      21.099   1.402  53.213  1.00  0.00     0.067 A 
HETATM    5  C6  UNL     1      21.206   0.292  54.026  1.00  0.00     0.041 A 
HETATM    6  C7  UNL     1      22.410  -0.382  54.144  1.00  0.00    -0.026 A 
HETATM    7  C8  UNL     1      22.449  -1.583  55.050  1.00  0.00     0.051 C 
HETATM    8  N1  UNL     1      20.073   2.123  53.001  1.00  0.00    -0.251 NA
HETATM    9  C9  UNL     1      20.418   3.184  52.075  1.00  0.00     0.299 A 
HETATM   10  C11 UNL     1      21.841   2.922  51.803  1.00  0.00     0.075 A 
ENDROOT
BRANCH  10  11
HETATM   11  N2  UNL     1      22.761   3.631  50.955  1.00  0.00    -0.350 N 
HETATM   12  C12 UNL     1      23.831   4.500  51.371  1.00  0.00     0.156 C 
BRANCH  11  13
HETATM   13  C13 UNL     1      22.588   3.445  49.553  1.00  0.00     0.034 A 
HETATM   14  C14 UNL     1      22.429   4.535  48.721  1.00  0.00     0.029 A 
HETATM   15  C15 UNL     1      22.259   4.423  47.366  1.00  0.00     0.002 A 
HETATM   16  C16 UNL     1      22.241   3.184  46.787  1.00  0.00     0.000 A 
HETATM   17  C17 UNL     1      22.395   2.069  47.578  1.00  0.00     0.002 A 
HETATM   18  C18 UNL     1      22.565   2.204  48.940  1.00  0.00     0.029 A 
ENDBRANCH  11  13
ENDBRANCH  10  11
BRANCH   9  19
HETATM   19  O2  UNL     1      19.613   3.194  50.942  1.00  0.00    -0.335 OA
BRANCH  19  20
HETATM   20  C10 UNL     1      18.655   4.185  51.154  1.00  0.00     0.337 C 
BRANCH  20  21
HETATM   21  O3  UNL     1      17.644   3.717  52.012  1.00  0.00    -0.377 OA
HETATM   22  H12 UNL     1      17.765   2.776  52.237  1.00  0.00     0.212 HD
ENDBRANCH  20  21
ENDBRANCH  19  20
ENDBRANCH   9  19
BRANCH   1  23
HETATM   23  O1  UNL     1      24.660  -0.693  53.635  1.00  0.00    -0.355 OA
HETATM   24  C1  UNL     1      25.811  -0.340  52.865  1.00  0.00     0.210 C 
ENDBRANCH   1  23
TORSDOF 6
ENDMDL
MODEL 8
REMARK VINA RESULT:      -6.2      2.390      4.906
REMARK  6 active torsions:
REMARK  status: ('A' for Active; 'I' for Inactive)
REMARK    1  A    between atoms: O1_2  and  C2_3 
REMARK    2  A    between atoms: C9_11  and  O2_12 
REMARK    3  A    between atoms: O2_12  and  C10_13 
REMARK    4  A    between atoms: C10_13  and  O3_14 
REMARK    5  A    between atoms: C11_15  and  N2_16 
REMARK    6  A    between atoms: N2_16  and  C13_18 
ROOT
HETATM    1  C2  UNL     1      24.385   0.149  53.701  1.00  0.00     0.075 A 
HETATM    2  C3  UNL     1      24.725   1.094  52.754  1.00  0.00     0.053 A 
HETATM    3  C4  UNL     1      23.801   1.504  51.813  1.00  0.00     0.022 A 
HETATM    4  C5  UNL     1      22.525   0.966  51.818  1.00  0.00     0.067 A 
HETATM    5  C6  UNL     1      22.180   0.020  52.762  1.00  0.00     0.041 A 
HETATM    6  C7  UNL     1      23.099  -0.397  53.710  1.00  0.00    -0.026 A 
HETATM    7  C8  UNL     1      22.649  -1.431  54.707  1.00  0.00     0.051 C 
HETATM    8  N1  UNL     1      21.802   1.448  50.891  1.00  0.00    -0.251 NA
HETATM    9  C9  UNL     1      22.576   2.414  50.134  1.00  0.00     0.299 A 
HETATM   10  C11 UNL     1      23.880   2.383  50.815  1.00  0.00     0.075 A 
ENDROOT
BRANCH  10  11
HETATM   11  N2  UNL     1      25.081   3.123  50.536  1.00  0.00    -0.350 N 
HETATM   12  C12 UNL     1      26.405   2.588  50.347  1.00  0.00     0.156 C 
BRANCH  11  13
HETATM   13  C13 UNL     1      24.935   4.537  50.437  1.00  0.00     0.034 A 
HETATM   14  C14 UNL     1      25.588   5.235  49.441  1.00  0.00     0.029 A 
HETATM   15  C15 UNL     1      25.488   6.594  49.293  1.00  0.00     0.002 A 
HETATM   16  C16 UNL     1      24.712   7.314  50.159  1.00  0.00     0.000 A 
HETATM   17  C17 UNL     1      24.043   6.659  51.167  1.00  0.00     0.002 A 
HETATM   18  C18 UNL     1      24.156   5.291  51.299  1.00  0.00     0.029 A 
ENDBRANCH  11  13
ENDBRANCH  10  11
BRANCH   9  19
HETATM   19  O2  UNL     1      22.633   2.117  48.778  1.00  0.00    -0.335 OA
BRANCH  19  20
HETATM   20  C10 UNL     1      21.590   1.224  48.531  1.00  0.00     0.337 C 
BRANCH  20  21
HETATM   21  O3  UNL     1      20.421   1.918  48.175  1.00  0.00    -0.377 OA
HETATM   22  H12 UNL     1      19.797   1.987  48.922  1.00  0.00     0.212 HD
ENDBRANCH  20  21
ENDBRANCH  19  20
ENDBRANCH   9  19
BRANCH   1  23
HETATM   23  O1  UNL     1      25.204  -0.357  54.703  1.00  0.00    -0.355 OA
HETATM   24  C1  UNL     1      26.490   0.252  54.839  1.00  0.00     0.210 C 
ENDBRANCH   1  23
TORSDOF 6
ENDMDL
MODEL 9
REMARK VINA RESULT:      -6.2      2.552      4.859
REMARK  6 active torsions:
REMARK  status: ('A' for Active; 'I' for Inactive)
REMARK    1  A    between atoms: O1_2  and  C2_3 
REMARK    2  A    between atoms: C9_11  and  O2_12 
REMARK    3  A    between atoms: O2_12  and  C10_13 
REMARK    4  A    between atoms: C10_13  and  O3_14 
REMARK    5  A    between atoms: C11_15  and  N2_16 
REMARK    6  A    between atoms: N2_16  and  C13_18 
ROOT
HETATM    1  C2  UNL     1      26.094   1.417  53.040  1.00  0.00     0.075 A 
HETATM    2  C3  UNL     1      26.009   2.364  52.039  1.00  0.00     0.053 A 
HETATM    3  C4  UNL     1      24.871   2.459  51.263  1.00  0.00     0.022 A 
HETATM    4  C5  UNL     1      23.807   1.603  51.487  1.00  0.00     0.067 A 
HETATM    5  C6  UNL     1      23.886   0.654  52.487  1.00  0.00     0.041 A 
HETATM    6  C7  UNL     1      25.022   0.550  53.271  1.00  0.00    -0.026 A 
HETATM    7  C8  UNL     1      25.034  -0.509  54.341  1.00  0.00     0.051 C 
HETATM    8  N1  UNL     1      22.842   1.822  50.690  1.00  0.00    -0.251 NA
HETATM    9  C9  UNL     1      23.195   2.915  49.804  1.00  0.00     0.299 A 
HETATM   10  C11 UNL     1      24.549   3.271  50.256  1.00  0.00     0.075 A 
ENDROOT
BRANCH  10  11
HETATM   11  N2  UNL     1      25.444   4.286  49.771  1.00  0.00    -0.350 N 
HETATM   12  C12 UNL     1      26.788   4.099  49.287  1.00  0.00     0.156 C 
BRANCH  11  13
HETATM   13  C13 UNL     1      24.937   5.618  49.772  1.00  0.00     0.034 A 
HETATM   14  C14 UNL     1      24.889   6.344  48.599  1.00  0.00     0.029 A 
HETATM   15  C15 UNL     1      24.413   7.628  48.535  1.00  0.00     0.002 A 
HETATM   16  C16 UNL     1      23.959   8.239  49.671  1.00  0.00     0.000 A 
HETATM   17  C17 UNL     1      23.989   7.552  50.863  1.00  0.00     0.002 A 
HETATM   18  C18 UNL     1      24.471   6.261  50.906  1.00  0.00     0.029 A 
ENDBRANCH  11  13
ENDBRANCH  10  11
BRANCH   9  19
HETATM   19  O2  UNL     1      23.114   2.568  48.461  1.00  0.00    -0.335 OA
BRANCH  19  20
HETATM   20  C10 UNL     1      21.795   2.173  48.238  1.00  0.00     0.337 C 
BRANCH  20  21
HETATM   21  O3  UNL     1      21.681   0.774  48.305  1.00  0.00    -0.377 OA
HETATM   22  H12 UNL     1      21.444   0.471  49.201  1.00  0.00     0.212 HD
ENDBRANCH  20  21
ENDBRANCH  19  20
ENDBRANCH   9  19
BRANCH   1  23
HETATM   23  O1  UNL     1      27.168   1.204  53.896  1.00  0.00    -0.355 OA
HETATM   24  C1  UNL     1      28.404   1.820  53.528  1.00  0.00     0.210 C 
ENDBRANCH   1  23
TORSDOF 6
ENDMDL
