MODEL 1
REMARK VINA RESULT:      -6.3      0.000      0.000
REMARK  4 active torsions:
REMARK  status: ('A' for Active; 'I' for Inactive)
REMARK    1  A    between atoms: N1_1  and  C1_2 
REMARK    2  A    between atoms: C2_4  and  N3_5 
REMARK    3  A    between atoms: C9_14  and  C10_15 
REMARK    4  A    between atoms: C10_15  and  C11_16 
ROOT
HETATM    1  C1  UNL     1      35.824   6.667  48.966  1.00  0.00     0.713 C 
HETATM    2  N2  UNL     1      34.810   5.861  48.714  1.00  0.00    -0.050 NA
HETATM    3  C2  UNL     1      33.676   6.337  47.995  1.00  0.00     0.351 C 
HETATM    4  C8  UNL     1      32.336   5.968  48.351  1.00  0.00     0.073 C 
HETATM    5  C9  UNL     1      31.562   6.928  47.828  1.00  0.00     0.012 C 
HETATM    6  N4  UNL     1      32.299   8.102  47.393  1.00  0.00    -0.343 N 
HETATM    7  C12 UNL     1      33.667   7.778  47.746  1.00  0.00     0.192 C 
HETATM    8  N5  UNL     1      34.640   8.623  48.011  1.00  0.00    -0.141 NA
HETATM    9  N6  UNL     1      35.797   8.075  48.636  1.00  0.00    -0.106 N 
HETATM   10  H14 UNL     1      32.083   9.003  46.933  1.00  0.00     0.167 HD
HETATM   11  H15 UNL     1      36.612   8.687  48.850  1.00  0.00     0.208 HD
ENDROOT
BRANCH   3  12
HETATM   12  N3  UNL     1      33.959   5.722  46.607  1.00  0.00     0.151 N 
HETATM   13  C3  UNL     1      33.654   6.628  45.579  1.00  0.00     0.329 C 
HETATM   14  C4  UNL     1      34.081   5.971  44.263  1.00  0.00     0.036 C 
HETATM   15 CL1  UNL     1      35.047   6.708  43.002  1.00  0.00    -0.087 Cl
HETATM   16  C5  UNL     1      33.626   4.706  44.149  1.00  0.00    -0.003 C 
HETATM   17  C6  UNL     1      32.800   4.063  45.217  1.00  0.00     0.076 C 
HETATM   18  C7  UNL     1      33.243   4.492  46.595  1.00  0.00     0.302 C 
HETATM   19 BR1  UNL     1      34.344   3.130  47.397  1.00  0.00    -0.057 Br
ENDBRANCH   3  12
BRANCH   1  20
HETATM   20  N1  UNL     1      36.980   6.237  49.671  1.00  0.00    -0.232 N 
HETATM   21  H1  UNL     1      36.961   5.249  49.946  1.00  0.00     0.174 HD
HETATM   22  H2  UNL     1      37.624   7.053  49.759  1.00  0.00     0.174 HD
ENDBRANCH   1  20
BRANCH   5  23
HETATM   23  C10 UNL     1      30.083   6.974  47.902  1.00  0.00     0.072 C 
BRANCH  23  24
HETATM   24  C11 UNL     1      29.412   5.692  48.266  1.00  0.00     0.120 C 
HETATM   25 CL2  UNL     1      27.671   5.890  48.331  1.00  0.00    -0.130 Cl
ENDBRANCH  23  24
ENDBRANCH   5  23
TORSDOF 4
ENDMDL
MODEL 2
REMARK VINA RESULT:      -6.3     11.002     12.643
REMARK  4 active torsions:
REMARK  status: ('A' for Active; 'I' for Inactive)
REMARK    1  A    between atoms: N1_1  and  C1_2 
REMARK    2  A    between atoms: C2_4  and  N3_5 
REMARK    3  A    between atoms: C9_14  and  C10_15 
REMARK    4  A    between atoms: C10_15  and  C11_16 
ROOT
HETATM    1  C1  UNL     1      23.214   5.318  51.789  1.00  0.00     0.713 C 
HETATM    2  N2  UNL     1      23.393   4.225  51.072  1.00  0.00    -0.050 NA
HETATM    3  C2  UNL     1      23.902   3.042  51.682  1.00  0.00     0.351 C 
HETATM    4  C8  UNL     1      24.857   2.195  51.027  1.00  0.00     0.073 C 
HETATM    5  C9  UNL     1      25.451   1.515  52.015  1.00  0.00     0.012 C 
HETATM    6  N4  UNL     1      25.186   2.052  53.338  1.00  0.00    -0.343 N 
HETATM    7  C12 UNL     1      24.360   3.210  53.060  1.00  0.00     0.192 C 
HETATM    8  N5  UNL     1      24.231   4.290  53.800  1.00  0.00    -0.141 NA
HETATM    9  N6  UNL     1      23.619   5.413  53.174  1.00  0.00    -0.106 N 
HETATM   10  H14 UNL     1      25.424   1.809  54.315  1.00  0.00     0.167 HD
HETATM   11  H15 UNL     1      23.467   6.291  53.713  1.00  0.00     0.208 HD
ENDROOT
BRANCH   3  12
HETATM   12  N3  UNL     1      22.598   2.226  51.820  1.00  0.00     0.151 N 
HETATM   13  C3  UNL     1      22.679   1.315  52.884  1.00  0.00     0.329 C 
HETATM   14  C4  UNL     1      21.306   0.651  53.010  1.00  0.00     0.036 C 
HETATM   15 CL1  UNL     1      20.379   0.457  54.483  1.00  0.00    -0.087 Cl
HETATM   16  C5  UNL     1      20.841   0.202  51.825  1.00  0.00    -0.003 C 
HETATM   17  C6  UNL     1      21.620   0.361  50.559  1.00  0.00     0.076 C 
HETATM   18  C7  UNL     1      22.372   1.669  50.529  1.00  0.00     0.302 C 
HETATM   19 BR1  UNL     1      21.425   2.959  49.457  1.00  0.00    -0.057 Br
ENDBRANCH   3  12
BRANCH   1  20
HETATM   20  N1  UNL     1      22.701   6.518  51.228  1.00  0.00    -0.232 N 
HETATM   21  H1  UNL     1      21.754   6.430  50.842  1.00  0.00     0.174 HD
HETATM   22  H2  UNL     1      23.427   7.259  51.336  1.00  0.00     0.174 HD
ENDBRANCH   1  20
BRANCH   5  23
HETATM   23  C10 UNL     1      26.499   0.482  51.838  1.00  0.00     0.072 C 
BRANCH  23  24
HETATM   24  C11 UNL     1      26.581  -0.549  52.913  1.00  0.00     0.120 C 
HETATM   25 CL2  UNL     1      26.848  -2.144  52.235  1.00  0.00    -0.130 Cl
ENDBRANCH  23  24
ENDBRANCH   5  23
TORSDOF 4
ENDMDL
MODEL 3
REMARK VINA RESULT:      -6.2     10.249     12.386
REMARK  4 active torsions:
REMARK  status: ('A' for Active; 'I' for Inactive)
REMARK    1  A    between atoms: N1_1  and  C1_2 
REMARK    2  A    between atoms: C2_4  and  N3_5 
REMARK    3  A    between atoms: C9_14  and  C10_15 
REMARK    4  A    between atoms: C10_15  and  C11_16 
ROOT
HETATM    1  C1  UNL     1      23.457   2.344  50.716  1.00  0.00     0.713 C 
HETATM    2  N2  UNL     1      24.458   1.511  50.931  1.00  0.00    -0.050 NA
HETATM    3  C2  UNL     1      25.208   1.587  52.140  1.00  0.00     0.351 C 
HETATM    4  C8  UNL     1      26.633   1.425  52.167  1.00  0.00     0.073 C 
HETATM    5  C9  UNL     1      27.027   2.022  53.299  1.00  0.00     0.012 C 
HETATM    6  N4  UNL     1      26.005   2.853  53.911  1.00  0.00    -0.343 N 
HETATM    7  C12 UNL     1      24.895   2.739  52.985  1.00  0.00     0.192 C 
HETATM    8  N5  UNL     1      23.930   3.611  52.792  1.00  0.00    -0.141 NA
HETATM    9  N6  UNL     1      23.141   3.428  51.620  1.00  0.00    -0.106 N 
HETATM   10  H14 UNL     1      25.910   3.429  54.765  1.00  0.00     0.167 HD
HETATM   11  H15 UNL     1      22.346   4.071  51.422  1.00  0.00     0.208 HD
ENDROOT
BRANCH   3  12
HETATM   12  N3  UNL     1      24.605   0.390  52.908  1.00  0.00     0.151 N 
HETATM   13  C3  UNL     1      23.519   0.790  53.702  1.00  0.00     0.329 C 
HETATM   14  C4  UNL     1      22.925  -0.479  54.319  1.00  0.00     0.036 C 
HETATM   15 CL1  UNL     1      21.232  -0.928  54.335  1.00  0.00    -0.087 Cl
HETATM   16  C5  UNL     1      23.865  -1.267  54.881  1.00  0.00    -0.003 C 
HETATM   17  C6  UNL     1      25.314  -0.897  54.874  1.00  0.00     0.076 C 
HETATM   18  C7  UNL     1      25.704  -0.201  53.594  1.00  0.00     0.302 C 
HETATM   19 BR1  UNL     1      26.583  -1.435  52.403  1.00  0.00    -0.057 Br
ENDBRANCH   3  12
BRANCH   1  20
HETATM   20  N1  UNL     1      22.675   2.301  49.531  1.00  0.00    -0.232 N 
HETATM   21  H1  UNL     1      22.479   3.222  49.124  1.00  0.00     0.174 HD
HETATM   22  H2  UNL     1      22.461   1.301  49.324  1.00  0.00     0.174 HD
ENDBRANCH   1  20
BRANCH   5  23
HETATM   23  C10 UNL     1      28.423   2.093  53.791  1.00  0.00     0.072 C 
BRANCH  23  24
HETATM   24  C11 UNL     1      28.908   0.897  54.539  1.00  0.00     0.120 C 
HETATM   25 CL2  UNL     1      29.912  -0.118  53.520  1.00  0.00    -0.130 Cl
ENDBRANCH  23  24
ENDBRANCH   5  23
TORSDOF 4
ENDMDL
MODEL 4
REMARK VINA RESULT:      -6.2     10.918     12.507
REMARK  4 active torsions:
REMARK  status: ('A' for Active; 'I' for Inactive)
REMARK    1  A    between atoms: N1_1  and  C1_2 
REMARK    2  A    between atoms: C2_4  and  N3_5 
REMARK    3  A    between atoms: C9_14  and  C10_15 
REMARK    4  A    between atoms: C10_15  and  C11_16 
ROOT
HETATM    1  C1  UNL     1      23.685   5.700  50.390  1.00  0.00     0.713 C 
HETATM    2  N2  UNL     1      23.786   4.447  49.990  1.00  0.00    -0.050 NA
HETATM    3  C2  UNL     1      23.621   3.381  50.921  1.00  0.00     0.351 C 
HETATM    4  C8  UNL     1      24.445   2.207  50.891  1.00  0.00     0.073 C 
HETATM    5  C9  UNL     1      24.358   1.693  52.125  1.00  0.00     0.012 C 
HETATM    6  N4  UNL     1      23.771   2.598  53.097  1.00  0.00    -0.343 N 
HETATM    7  C12 UNL     1      23.523   3.796  52.319  1.00  0.00     0.192 C 
HETATM    8  N5  UNL     1      23.453   5.032  52.765  1.00  0.00    -0.141 NA
HETATM    9  N6  UNL     1      23.517   6.060  51.781  1.00  0.00    -0.106 N 
HETATM   10  H14 UNL     1      23.516   2.570  54.099  1.00  0.00     0.167 HD
HETATM   11  H15 UNL     1      23.442   7.059  52.067  1.00  0.00     0.208 HD
ENDROOT
BRANCH   3  12
HETATM   12  N3  UNL     1      22.186   2.933  50.566  1.00  0.00     0.151 N 
HETATM   13  C3  UNL     1      21.397   2.794  51.718  1.00  0.00     0.329 C 
HETATM   14  C4  UNL     1      19.976   2.469  51.251  1.00  0.00     0.036 C 
HETATM   15 CL1  UNL     1      18.504   3.252  51.786  1.00  0.00    -0.087 Cl
HETATM   16  C5  UNL     1      19.949   1.472  50.341  1.00  0.00    -0.003 C 
HETATM   17  C6  UNL     1      21.198   0.794  49.874  1.00  0.00     0.076 C 
HETATM   18  C7  UNL     1      22.350   1.763  49.771  1.00  0.00     0.302 C 
HETATM   19 BR1  UNL     1      22.614   2.294  47.938  1.00  0.00    -0.057 Br
ENDBRANCH   3  12
BRANCH   1  20
HETATM   20  N1  UNL     1      23.832   6.797  49.499  1.00  0.00    -0.232 N 
HETATM   21  H1  UNL     1      23.619   7.709  49.917  1.00  0.00     0.174 HD
HETATM   22  H2  UNL     1      24.137   6.420  48.575  1.00  0.00     0.174 HD
ENDBRANCH   1  20
BRANCH   5  23
HETATM   23  C10 UNL     1      25.017   0.448  52.584  1.00  0.00     0.072 C 
BRANCH  23  24
HETATM   24  C11 UNL     1      24.225  -0.393  53.529  1.00  0.00     0.120 C 
HETATM   25 CL2  UNL     1      22.581  -0.605  52.956  1.00  0.00    -0.130 Cl
ENDBRANCH  23  24
ENDBRANCH   5  23
TORSDOF 4
ENDMDL
MODEL 5
REMARK VINA RESULT:      -6.1      3.041      4.477
REMARK  4 active torsions:
REMARK  status: ('A' for Active; 'I' for Inactive)
REMARK    1  A    between atoms: N1_1  and  C1_2 
REMARK    2  A    between atoms: C2_4  and  N3_5 
REMARK    3  A    between atoms: C9_14  and  C10_15 
REMARK    4  A    between atoms: C10_15  and  C11_16 
ROOT
HETATM    1  C1  UNL     1      30.742   8.655  49.425  1.00  0.00     0.713 C 
HETATM    2  N2  UNL     1      31.916   8.157  49.087  1.00  0.00    -0.050 NA
HETATM    3  C2  UNL     1      31.994   6.999  48.261  1.00  0.00     0.351 C 
HETATM    4  C8  UNL     1      32.953   5.957  48.493  1.00  0.00     0.073 C 
HETATM    5  C9  UNL     1      32.442   4.876  47.891  1.00  0.00     0.012 C 
HETATM    6  N4  UNL     1      31.046   5.020  47.514  1.00  0.00    -0.343 N 
HETATM    7  C12 UNL     1      30.713   6.345  47.997  1.00  0.00     0.192 C 
HETATM    8  N5  UNL     1      29.524   6.789  48.343  1.00  0.00    -0.141 NA
HETATM    9  N6  UNL     1      29.496   8.008  49.079  1.00  0.00    -0.106 N 
HETATM   10  H14 UNL     1      30.332   4.452  47.027  1.00  0.00     0.167 HD
HETATM   11  H15 UNL     1      28.584   8.425  49.362  1.00  0.00     0.208 HD
ENDROOT
BRANCH   3  12
HETATM   12  N3  UNL     1      32.361   7.655  46.911  1.00  0.00     0.151 N 
HETATM   13  C3  UNL     1      31.387   7.389  45.936  1.00  0.00     0.329 C 
HETATM   14  C4  UNL     1      31.781   8.177  44.684  1.00  0.00     0.036 C 
HETATM   15 CL1  UNL     1      30.731   9.211  43.738  1.00  0.00    -0.087 Cl
HETATM   16  C5  UNL     1      33.076   8.000  44.351  1.00  0.00    -0.003 C 
HETATM   17  C6  UNL     1      33.985   7.120  45.149  1.00  0.00     0.076 C 
HETATM   18  C7  UNL     1      33.679   7.200  46.625  1.00  0.00     0.302 C 
HETATM   19 BR1  UNL     1      34.937   8.363  47.506  1.00  0.00    -0.057 Br
ENDBRANCH   3  12
BRANCH   1  20
HETATM   20  N1  UNL     1      30.614   9.812  50.238  1.00  0.00    -0.232 N 
HETATM   21  H1  UNL     1      29.928   9.719  50.996  1.00  0.00     0.174 HD
HETATM   22  H2  UNL     1      31.271  10.535  49.874  1.00  0.00     0.174 HD
ENDBRANCH   1  20
BRANCH   5  23
HETATM   23  C10 UNL     1      33.087   3.544  47.826  1.00  0.00     0.072 C 
BRANCH  23  24
HETATM   24  C11 UNL     1      34.575   3.549  47.720  1.00  0.00     0.120 C 
HETATM   25 CL2  UNL     1      35.087   3.546  46.043  1.00  0.00    -0.130 Cl
ENDBRANCH  23  24
ENDBRANCH   5  23
TORSDOF 4
ENDMDL
MODEL 6
REMARK VINA RESULT:      -6.1      9.965     11.517
REMARK  4 active torsions:
REMARK  status: ('A' for Active; 'I' for Inactive)
REMARK    1  A    between atoms: N1_1  and  C1_2 
REMARK    2  A    between atoms: C2_4  and  N3_5 
REMARK    3  A    between atoms: C9_14  and  C10_15 
REMARK    4  A    between atoms: C10_15  and  C11_16 
ROOT
HETATM    1  C1  UNL     1      23.956   5.899  51.734  1.00  0.00     0.713 C 
HETATM    2  N2  UNL     1      24.409   5.026  50.855  1.00  0.00    -0.050 NA
HETATM    3  C2  UNL     1      24.495   3.645  51.194  1.00  0.00     0.351 C 
HETATM    4  C8  UNL     1      25.605   2.828  50.795  1.00  0.00     0.073 C 
HETATM    5  C9  UNL     1      25.604   1.801  51.654  1.00  0.00     0.012 C 
HETATM    6  N4  UNL     1      24.751   2.005  52.812  1.00  0.00    -0.343 N 
HETATM    7  C12 UNL     1      24.225   3.339  52.598  1.00  0.00     0.192 C 
HETATM    8  N5  UNL     1      23.804   4.184  53.514  1.00  0.00    -0.141 NA
HETATM    9  N6  UNL     1      23.634   5.534  53.096  1.00  0.00    -0.106 N 
HETATM   10  H14 UNL     1      24.468   1.465  53.648  1.00  0.00     0.167 HD
HETATM   11  H15 UNL     1      23.280   6.247  53.768  1.00  0.00     0.208 HD
ENDROOT
BRANCH   3  12
HETATM   12  N3  UNL     1      23.252   3.107  50.451  1.00  0.00     0.151 N 
HETATM   13  C3  UNL     1      22.874   1.847  50.941  1.00  0.00     0.329 C 
HETATM   14  C4  UNL     1      21.574   1.462  50.229  1.00  0.00     0.036 C 
HETATM   15 CL1  UNL     1      20.112   0.871  50.991  1.00  0.00    -0.087 Cl
HETATM   16  C5  UNL     1      21.652   1.626  48.892  1.00  0.00    -0.003 C 
HETATM   17  C6  UNL     1      22.893   2.130  48.228  1.00  0.00     0.076 C 
HETATM   18  C7  UNL     1      23.590   3.170  49.070  1.00  0.00     0.302 C 
HETATM   19 BR1  UNL     1      23.187   4.937  48.417  1.00  0.00    -0.057 Br
ENDBRANCH   3  12
BRANCH   1  20
HETATM   20  N1  UNL     1      23.843   7.284  51.439  1.00  0.00    -0.232 N 
HETATM   21  H1  UNL     1      24.742   7.767  51.336  1.00  0.00     0.174 HD
HETATM   22  H2  UNL     1      22.828   7.520  51.390  1.00  0.00     0.174 HD
ENDBRANCH   1  20
BRANCH   5  23
HETATM   23  C10 UNL     1      26.552   0.662  51.632  1.00  0.00     0.072 C 
BRANCH  23  24
HETATM   24  C11 UNL     1      27.457   0.550  52.814  1.00  0.00     0.120 C 
HETATM   25 CL2  UNL     1      28.210   2.090  53.178  1.00  0.00    -0.130 Cl
ENDBRANCH  23  24
ENDBRANCH   5  23
TORSDOF 4
ENDMDL
MODEL 7
REMARK VINA RESULT:      -6.1      2.209      4.955
REMARK  4 active torsions:
REMARK  status: ('A' for Active; 'I' for Inactive)
REMARK    1  A    between atoms: N1_1  and  C1_2 
REMARK    2  A    between atoms: C2_4  and  N3_5 
REMARK    3  A    between atoms: C9_14  and  C10_15 
REMARK    4  A    between atoms: C10_15  and  C11_16 
ROOT
HETATM    1  C1  UNL     1      34.813   4.892  48.530  1.00  0.00     0.713 C 
HETATM    2  N2  UNL     1      34.550   5.848  47.660  1.00  0.00    -0.050 NA
HETATM    3  C2  UNL     1      33.677   5.599  46.562  1.00  0.00     0.351 C 
HETATM    4  C8  UNL     1      33.936   6.113  45.248  1.00  0.00     0.073 C 
HETATM    5  C9  UNL     1      33.241   5.319  44.423  1.00  0.00     0.012 C 
HETATM    6  N4  UNL     1      32.758   4.101  45.050  1.00  0.00    -0.343 N 
HETATM    7  C12 UNL     1      33.277   4.202  46.400  1.00  0.00     0.192 C 
HETATM    8  N5  UNL     1      33.544   3.212  47.224  1.00  0.00    -0.141 NA
HETATM    9  N6  UNL     1      34.334   3.537  48.364  1.00  0.00    -0.106 N 
HETATM   10  H14 UNL     1      32.187   3.284  44.775  1.00  0.00     0.167 HD
HETATM   11  H15 UNL     1      34.561   2.803  49.067  1.00  0.00     0.208 HD
ENDROOT
BRANCH   3  12
HETATM   12  N3  UNL     1      32.396   6.295  47.073  1.00  0.00     0.151 N 
HETATM   13  C3  UNL     1      31.263   5.495  46.859  1.00  0.00     0.329 C 
HETATM   14  C4  UNL     1      30.077   6.217  47.504  1.00  0.00     0.036 C 
HETATM   15 CL1  UNL     1      28.898   5.509  48.588  1.00  0.00    -0.087 Cl
HETATM   16  C5  UNL     1      30.011   7.517  47.148  1.00  0.00    -0.003 C 
HETATM   17  C6  UNL     1      31.011   8.136  46.224  1.00  0.00     0.076 C 
HETATM   18  C7  UNL     1      32.393   7.572  46.443  1.00  0.00     0.302 C 
HETATM   19 BR1  UNL     1      33.448   8.785  47.504  1.00  0.00    -0.057 Br
ENDBRANCH   3  12
BRANCH   1  20
HETATM   20  N1  UNL     1      35.669   5.094  49.645  1.00  0.00    -0.232 N 
HETATM   21  H1  UNL     1      36.668   4.999  49.431  1.00  0.00     0.174 HD
HETATM   22  H2  UNL     1      35.072   5.304  50.474  1.00  0.00     0.174 HD
ENDBRANCH   1  20
BRANCH   5  23
HETATM   23  C10 UNL     1      33.164   5.468  42.951  1.00  0.00     0.072 C 
BRANCH  23  24
HETATM   24  C11 UNL     1      33.963   4.488  42.158  1.00  0.00     0.120 C 
HETATM   25 CL2  UNL     1      32.953   3.640  41.003  1.00  0.00    -0.130 Cl
ENDBRANCH  23  24
ENDBRANCH   5  23
TORSDOF 4
ENDMDL
MODEL 8
REMARK VINA RESULT:      -6.0     11.542     14.097
REMARK  4 active torsions:
REMARK  status: ('A' for Active; 'I' for Inactive)
REMARK    1  A    between atoms: N1_1  and  C1_2 
REMARK    2  A    between atoms: C2_4  and  N3_5 
REMARK    3  A    between atoms: C9_14  and  C10_15 
REMARK    4  A    between atoms: C10_15  and  C11_16 
ROOT
HETATM    1  C1  UNL     1      18.719   2.881  51.571  1.00  0.00     0.713 C 
HETATM    2  N2  UNL     1      19.917   3.015  52.107  1.00  0.00    -0.050 NA
HETATM    3  C2  UNL     1      20.905   2.007  51.916  1.00  0.00     0.351 C 
HETATM    4  C8  UNL     1      21.788   1.593  52.969  1.00  0.00     0.073 C 
HETATM    5  C9  UNL     1      22.202   0.371  52.612  1.00  0.00     0.012 C 
HETATM    6  N4  UNL     1      21.431  -0.218  51.531  1.00  0.00    -0.343 N 
HETATM    7  C12 UNL     1      20.424   0.790  51.263  1.00  0.00     0.192 C 
HETATM    8  N5  UNL     1      19.230   0.602  50.745  1.00  0.00    -0.141 NA
HETATM    9  N6  UNL     1      18.311   1.683  50.870  1.00  0.00    -0.106 N 
HETATM   10  H14 UNL     1      21.450  -1.091  50.976  1.00  0.00     0.167 HD
HETATM   11  H15 UNL     1      17.357   1.605  50.460  1.00  0.00     0.208 HD
ENDROOT
BRANCH   3  12
HETATM   12  N3  UNL     1      21.778   2.686  50.838  1.00  0.00     0.151 N 
HETATM   13  C3  UNL     1      21.889   1.882  49.693  1.00  0.00     0.329 C 
HETATM   14  C4  UNL     1      22.665   2.691  48.651  1.00  0.00     0.036 C 
HETATM   15 CL1  UNL     1      22.208   2.935  46.977  1.00  0.00    -0.087 Cl
HETATM   16  C5  UNL     1      23.793   3.233  49.156  1.00  0.00    -0.003 C 
HETATM   17  C6  UNL     1      24.195   3.035  50.582  1.00  0.00     0.076 C 
HETATM   18  C7  UNL     1      22.997   3.010  51.499  1.00  0.00     0.302 C 
HETATM   19 BR1  UNL     1      22.789   4.715  52.373  1.00  0.00    -0.057 Br
ENDBRANCH   3  12
BRANCH   1  20
HETATM   20  N1  UNL     1      17.703   3.862  51.725  1.00  0.00    -0.232 N 
HETATM   21  H1  UNL     1      17.970   4.797  51.399  1.00  0.00     0.174 HD
HETATM   22  H2  UNL     1      16.873   3.400  52.154  1.00  0.00     0.174 HD
ENDBRANCH   1  20
BRANCH   5  23
HETATM   23  C10 UNL     1      23.161  -0.466  53.371  1.00  0.00     0.072 C 
BRANCH  23  24
HETATM   24  C11 UNL     1      22.675  -0.979  54.685  1.00  0.00     0.120 C 
HETATM   25 CL2  UNL     1      21.099  -1.730  54.523  1.00  0.00    -0.130 Cl
ENDBRANCH  23  24
ENDBRANCH   5  23
TORSDOF 4
ENDMDL
MODEL 9
REMARK VINA RESULT:      -6.0     10.628     12.049
REMARK  4 active torsions:
REMARK  status: ('A' for Active; 'I' for Inactive)
REMARK    1  A    between atoms: N1_1  and  C1_2 
REMARK    2  A    between atoms: C2_4  and  N3_5 
REMARK    3  A    between atoms: C9_14  and  C10_15 
REMARK    4  A    between atoms: C10_15  and  C11_16 
ROOT
HETATM    1  C1  UNL     1      26.024  -0.202  52.968  1.00  0.00     0.713 C 
HETATM    2  N2  UNL     1      24.962   0.446  53.408  1.00  0.00    -0.050 NA
HETATM    3  C2  UNL     1      24.494   1.605  52.725  1.00  0.00     0.351 C 
HETATM    4  C8  UNL     1      24.014   2.762  53.424  1.00  0.00     0.073 C 
HETATM    5  C9  UNL     1      24.131   3.768  52.548  1.00  0.00     0.012 C 
HETATM    6  N4  UNL     1      24.944   3.445  51.389  1.00  0.00    -0.343 N 
HETATM    7  C12 UNL     1      25.372   2.086  51.660  1.00  0.00     0.192 C 
HETATM    8  N5  UNL     1      26.456   1.491  51.212  1.00  0.00    -0.141 NA
HETATM    9  N6  UNL     1      26.823   0.278  51.862  1.00  0.00    -0.106 N 
HETATM   10  H14 UNL     1      25.238   3.915  50.516  1.00  0.00     0.167 HD
HETATM   11  H15 UNL     1      27.658  -0.254  51.539  1.00  0.00     0.208 HD
ENDROOT
BRANCH   3  12
HETATM   12  N3  UNL     1      23.288   1.004  51.969  1.00  0.00     0.151 N 
HETATM   13  C3  UNL     1      22.937   1.794  50.863  1.00  0.00     0.329 C 
HETATM   14  C4  UNL     1      21.822   1.053  50.121  1.00  0.00     0.036 C 
HETATM   15 CL1  UNL     1      21.758   0.731  48.401  1.00  0.00    -0.087 Cl
HETATM   16  C5  UNL     1      20.836   0.646  50.948  1.00  0.00    -0.003 C 
HETATM   17  C6  UNL     1      20.876   0.913  52.419  1.00  0.00     0.076 C 
HETATM   18  C7  UNL     1      22.282   0.825  52.960  1.00  0.00     0.302 C 
HETATM   19 BR1  UNL     1      22.561  -0.875  53.822  1.00  0.00    -0.057 Br
ENDBRANCH   3  12
BRANCH   1  20
HETATM   20  N1  UNL     1      26.524  -1.367  53.610  1.00  0.00    -0.232 N 
HETATM   21  H1  UNL     1      26.020  -2.227  53.369  1.00  0.00     0.174 HD
HETATM   22  H2  UNL     1      27.328  -1.083  54.210  1.00  0.00     0.174 HD
ENDBRANCH   1  20
BRANCH   5  23
HETATM   23  C10 UNL     1      23.731   5.173  52.796  1.00  0.00     0.072 C 
BRANCH  23  24
HETATM   24  C11 UNL     1      23.066   5.868  51.655  1.00  0.00     0.120 C 
HETATM   25 CL2  UNL     1      21.506   5.148  51.304  1.00  0.00    -0.130 Cl
ENDBRANCH  23  24
ENDBRANCH   5  23
TORSDOF 4
ENDMDL
