MODEL 1
REMARK VINA RESULT:      -8.3      0.000      0.000
REMARK  2 active torsions:
REMARK  status: ('A' for Active; 'I' for Inactive)
REMARK    1  A    between atoms: C1_2  and  C2_3 
REMARK    2  A    between atoms: N4_17  and  C13_18 
ROOT
HETATM    1  C2  UNL     1      22.640  -0.357  53.823  1.00  0.00     0.002 A 
HETATM    2  C3  UNL     1      23.998  -0.375  53.578  1.00  0.00     0.015 A 
HETATM    3  C4  UNL     1      24.516   0.671  52.805  1.00  0.00     0.015 A 
HETATM    4  C5  UNL     1      23.643   1.635  52.348  1.00  0.00     0.003 A 
HETATM    5  C6  UNL     1      22.279   1.649  52.596  1.00  0.00    -0.027 A 
HETATM    6  C7  UNL     1      21.758   0.604  53.369  1.00  0.00     0.024 A 
HETATM    7  C8  UNL     1      21.204   2.563  52.208  1.00  0.00     0.158 C 
HETATM    8  N1  UNL     1      21.600   3.917  51.918  1.00  0.00    -0.393 N 
HETATM    9  C9  UNL     1      22.742   4.433  51.248  1.00  0.00     0.117 C 
HETATM   10  C10 UNL     1      23.918   3.897  51.100  1.00  0.00     0.098 A 
HETATM   11  C11 UNL     1      24.417   2.612  51.572  1.00  0.00     0.098 A 
HETATM   12  N2  UNL     1      25.638   2.296  51.292  1.00  0.00    -0.237 NA
HETATM   13  C12 UNL     1      26.465   3.203  50.532  1.00  0.00     0.255 A 
HETATM   14  N3  UNL     1      26.035   4.343  50.108  1.00  0.00    -0.164 NA
HETATM   15  N4  UNL     1      24.713   4.807  50.350  1.00  0.00    -0.253 N 
HETATM   16  H7  UNL     1      20.919   4.660  52.263  1.00  0.00     0.159 HD
ENDROOT
BRANCH  15  17
HETATM   17  C13 UNL     1      24.374   6.097  49.823  1.00  0.00     0.157 A 
HETATM   18  C14 UNL     1      24.954   6.311  48.465  1.00  0.00     0.005 A 
HETATM   19  C15 UNL     1      25.884   7.264  48.434  1.00  0.00     0.017 A 
HETATM   20  C16 UNL     1      25.996   7.771  49.805  1.00  0.00     0.009 A 
HETATM   21 BR1  UNL     1      27.279   9.169  50.055  1.00  0.00    -0.051 Br
HETATM   22  C17 UNL     1      25.147   7.114  50.588  1.00  0.00     0.023 A 
ENDBRANCH  15  17
BRANCH   1  23
HETATM   23  C1  UNL     1      22.119  -1.459  54.632  1.00  0.00     0.269 C 
HETATM   24  O1  UNL     1      22.693  -1.755  55.717  1.00  0.00    -0.301 OA
ENDBRANCH   1  23
TORSDOF 2
ENDMDL
MODEL 2
REMARK VINA RESULT:      -7.9      4.740      6.087
REMARK  2 active torsions:
REMARK  status: ('A' for Active; 'I' for Inactive)
REMARK    1  A    between atoms: C1_2  and  C2_3 
REMARK    2  A    between atoms: N4_17  and  C13_18 
ROOT
HETATM    1  C2  UNL     1      17.488  -0.699  52.131  1.00  0.00     0.002 A 
HETATM    2  C3  UNL     1      17.950  -1.295  53.287  1.00  0.00     0.015 A 
HETATM    3  C4  UNL     1      19.311  -1.144  53.576  1.00  0.00     0.015 A 
HETATM    4  C5  UNL     1      20.085  -0.419  52.697  1.00  0.00     0.003 A 
HETATM    5  C6  UNL     1      19.617   0.178  51.536  1.00  0.00    -0.027 A 
HETATM    6  C7  UNL     1      18.256   0.028  51.244  1.00  0.00     0.024 A 
HETATM    7  C8  UNL     1      20.264   0.972  50.492  1.00  0.00     0.158 C 
HETATM    8  N1  UNL     1      21.460   1.675  50.882  1.00  0.00    -0.393 N 
HETATM    9  C9  UNL     1      22.533   1.294  51.732  1.00  0.00     0.117 C 
HETATM   10  C10 UNL     1      22.541   0.429  52.704  1.00  0.00     0.098 A 
HETATM   11  C11 UNL     1      21.460  -0.404  53.213  1.00  0.00     0.098 A 
HETATM   12  N2  UNL     1      21.719  -1.197  54.200  1.00  0.00    -0.237 NA
HETATM   13  C12 UNL     1      23.047  -1.241  54.764  1.00  0.00     0.255 A 
HETATM   14  N3  UNL     1      24.012  -0.509  54.323  1.00  0.00    -0.164 NA
HETATM   15  N4  UNL     1      23.857   0.404  53.244  1.00  0.00    -0.253 N 
HETATM   16  H7  UNL     1      21.557   2.649  50.460  1.00  0.00     0.159 HD
ENDROOT
BRANCH  15  17
HETATM   17  C13 UNL     1      25.016   1.157  52.861  1.00  0.00     0.157 A 
HETATM   18  C14 UNL     1      25.887   0.395  51.920  1.00  0.00     0.005 A 
HETATM   19  C15 UNL     1      27.070   0.073  52.439  1.00  0.00     0.017 A 
HETATM   20  C16 UNL     1      27.077   0.611  53.804  1.00  0.00     0.009 A 
HETATM   21 BR1  UNL     1      28.681   0.289  54.797  1.00  0.00    -0.051 Br
HETATM   22  C17 UNL     1      25.922   1.221  54.042  1.00  0.00     0.023 A 
ENDBRANCH  15  17
BRANCH   1  23
HETATM   23  C1  UNL     1      16.062  -0.869  51.847  1.00  0.00     0.269 C 
HETATM   24  O1  UNL     1      15.452   0.018  51.188  1.00  0.00    -0.301 OA
ENDBRANCH   1  23
TORSDOF 2
ENDMDL
MODEL 3
REMARK VINA RESULT:      -7.8      1.308      2.747
REMARK  2 active torsions:
REMARK  status: ('A' for Active; 'I' for Inactive)
REMARK    1  A    between atoms: C1_2  and  C2_3 
REMARK    2  A    between atoms: N4_17  and  C13_18 
ROOT
HETATM    1  C2  UNL     1      22.074  -0.420  53.715  1.00  0.00     0.002 A 
HETATM    2  C3  UNL     1      21.071   0.502  53.495  1.00  0.00     0.015 A 
HETATM    3  C4  UNL     1      21.447   1.718  52.912  1.00  0.00     0.015 A 
HETATM    4  C5  UNL     1      22.776   1.907  52.603  1.00  0.00     0.003 A 
HETATM    5  C6  UNL     1      23.781   0.978  52.827  1.00  0.00    -0.027 A 
HETATM    6  C7  UNL     1      23.408  -0.240  53.409  1.00  0.00     0.024 A 
HETATM    7  C8  UNL     1      25.222   0.987  52.576  1.00  0.00     0.158 C 
HETATM    8  N1  UNL     1      25.675   1.861  51.524  1.00  0.00    -0.393 N 
HETATM    9  C9  UNL     1      25.257   3.167  51.150  1.00  0.00     0.117 C 
HETATM   10  C10 UNL     1      24.111   3.749  51.348  1.00  0.00     0.098 A 
HETATM   11  C11 UNL     1      22.916   3.243  52.010  1.00  0.00     0.098 A 
HETATM   12  N2  UNL     1      21.888   4.023  52.085  1.00  0.00    -0.237 NA
HETATM   13  C12 UNL     1      21.946   5.352  51.526  1.00  0.00     0.255 A 
HETATM   14  N3  UNL     1      22.998   5.812  50.938  1.00  0.00    -0.164 NA
HETATM   15  N4  UNL     1      24.191   5.055  50.789  1.00  0.00    -0.253 N 
HETATM   16  H7  UNL     1      26.459   1.460  50.924  1.00  0.00     0.159 HD
ENDROOT
BRANCH  15  17
HETATM   17  C13 UNL     1      25.282   5.692  50.110  1.00  0.00     0.157 A 
HETATM   18  C14 UNL     1      25.392   7.136  50.471  1.00  0.00     0.005 A 
HETATM   19  C15 UNL     1      25.132   7.955  49.453  1.00  0.00     0.017 A 
HETATM   20  C16 UNL     1      24.821   7.095  48.306  1.00  0.00     0.009 A 
HETATM   21 BR1  UNL     1      24.402   8.021  46.684  1.00  0.00    -0.051 Br
HETATM   22  C17 UNL     1      24.905   5.822  48.675  1.00  0.00     0.023 A 
ENDBRANCH  15  17
BRANCH   1  23
HETATM   23  C1  UNL     1      21.660  -1.684  54.325  1.00  0.00     0.269 C 
HETATM   24  O1  UNL     1      22.207  -2.062  55.399  1.00  0.00    -0.301 OA
ENDBRANCH   1  23
TORSDOF 2
ENDMDL
MODEL 4
REMARK VINA RESULT:      -7.7      1.802      2.247
REMARK  2 active torsions:
REMARK  status: ('A' for Active; 'I' for Inactive)
REMARK    1  A    between atoms: C1_2  and  C2_3 
REMARK    2  A    between atoms: N4_17  and  C13_18 
ROOT
HETATM    1  C2  UNL     1      25.258   0.460  52.959  1.00  0.00     0.002 A 
HETATM    2  C3  UNL     1      26.443   0.591  52.262  1.00  0.00     0.015 A 
HETATM    3  C4  UNL     1      26.570   1.715  51.438  1.00  0.00     0.015 A 
HETATM    4  C5  UNL     1      25.517   2.601  51.380  1.00  0.00     0.003 A 
HETATM    5  C6  UNL     1      24.329   2.465  52.082  1.00  0.00    -0.027 A 
HETATM    6  C7  UNL     1      24.198   1.342  52.908  1.00  0.00     0.024 A 
HETATM    7  C8  UNL     1      23.115   3.279  52.155  1.00  0.00     0.158 C 
HETATM    8  N1  UNL     1      23.272   4.677  51.847  1.00  0.00    -0.393 N 
HETATM    9  C9  UNL     1      24.062   5.335  50.865  1.00  0.00     0.117 C 
HETATM   10  C10 UNL     1      25.152   4.928  50.283  1.00  0.00     0.098 A 
HETATM   11  C11 UNL     1      25.888   3.683  50.459  1.00  0.00     0.098 A 
HETATM   12  N2  UNL     1      26.957   3.506  49.754  1.00  0.00    -0.237 NA
HETATM   13  C12 UNL     1      27.388   4.522  48.825  1.00  0.00     0.255 A 
HETATM   14  N3  UNL     1      26.746   5.628  48.660  1.00  0.00    -0.164 NA
HETATM   15  N4  UNL     1      25.558   5.944  49.375  1.00  0.00    -0.253 N 
HETATM   16  H7  UNL     1      22.695   5.331  52.459  1.00  0.00     0.159 HD
ENDROOT
BRANCH  15  17
HETATM   17  C13 UNL     1      24.951   7.212  49.093  1.00  0.00     0.157 A 
HETATM   18  C14 UNL     1      25.038   7.559  47.644  1.00  0.00     0.005 A 
HETATM   19  C15 UNL     1      25.817   8.610  47.399  1.00  0.00     0.017 A 
HETATM   20  C16 UNL     1      26.322   9.057  48.701  1.00  0.00     0.009 A 
HETATM   21 BR1  UNL     1      27.485  10.576  48.647  1.00  0.00    -0.051 Br
HETATM   22  C17 UNL     1      25.836   8.271  49.655  1.00  0.00     0.023 A 
ENDBRANCH  15  17
BRANCH   1  23
HETATM   23  C1  UNL     1      25.145  -0.722  53.815  1.00  0.00     0.269 C 
HETATM   24  O1  UNL     1      25.785  -0.762  54.903  1.00  0.00    -0.301 OA
ENDBRANCH   1  23
TORSDOF 2
ENDMDL
MODEL 5
REMARK VINA RESULT:      -7.7      5.092      7.242
REMARK  2 active torsions:
REMARK  status: ('A' for Active; 'I' for Inactive)
REMARK    1  A    between atoms: C1_2  and  C2_3 
REMARK    2  A    between atoms: N4_17  and  C13_18 
ROOT
HETATM    1  C2  UNL     1      24.663   0.036  53.643  1.00  0.00     0.002 A 
HETATM    2  C3  UNL     1      24.575   0.838  52.523  1.00  0.00     0.015 A 
HETATM    3  C4  UNL     1      23.324   0.921  51.901  1.00  0.00     0.015 A 
HETATM    4  C5  UNL     1      22.280   0.205  52.444  1.00  0.00     0.003 A 
HETATM    5  C6  UNL     1      22.372  -0.599  53.570  1.00  0.00    -0.027 A 
HETATM    6  C7  UNL     1      23.623  -0.684  54.195  1.00  0.00     0.024 A 
HETATM    7  C8  UNL     1      21.401  -1.424  54.289  1.00  0.00     0.158 C 
HETATM    8  N1  UNL     1      20.020  -1.039  54.151  1.00  0.00    -0.393 N 
HETATM    9  C9  UNL     1      19.292  -0.558  53.029  1.00  0.00     0.117 C 
HETATM   10  C10 UNL     1      19.729   0.064  51.973  1.00  0.00     0.098 A 
HETATM   11  C11 UNL     1      21.088   0.453  51.623  1.00  0.00     0.098 A 
HETATM   12  N2  UNL     1      21.272   1.068  50.502  1.00  0.00    -0.237 NA
HETATM   13  C12 UNL     1      20.151   1.349  49.637  1.00  0.00     0.255 A 
HETATM   14  N3  UNL     1      18.944   1.010  49.936  1.00  0.00    -0.164 NA
HETATM   15  N4  UNL     1      18.609   0.330  51.139  1.00  0.00    -0.253 N 
HETATM   16  H7  UNL     1      19.445  -1.132  55.043  1.00  0.00     0.159 HD
ENDROOT
BRANCH  15  17
HETATM   17  C13 UNL     1      17.223   0.019  51.342  1.00  0.00     0.157 A 
HETATM   18  C14 UNL     1      16.564  -0.428  50.080  1.00  0.00     0.005 A 
HETATM   19  C15 UNL     1      15.638   0.421  49.640  1.00  0.00     0.017 A 
HETATM   20  C16 UNL     1      15.608   1.529  50.601  1.00  0.00     0.009 A 
HETATM   21 BR1  UNL     1      14.347   2.914  50.210  1.00  0.00    -0.051 Br
HETATM   22  C17 UNL     1      16.500   1.303  51.560  1.00  0.00     0.023 A 
ENDBRANCH  15  17
BRANCH   1  23
HETATM   23  C1  UNL     1      25.979  -0.037  54.279  1.00  0.00     0.269 C 
HETATM   24  O1  UNL     1      26.100  -0.628  55.388  1.00  0.00    -0.301 OA
ENDBRANCH   1  23
TORSDOF 2
ENDMDL
MODEL 6
REMARK VINA RESULT:      -7.6      4.332      6.554
REMARK  2 active torsions:
REMARK  status: ('A' for Active; 'I' for Inactive)
REMARK    1  A    between atoms: C1_2  and  C2_3 
REMARK    2  A    between atoms: N4_17  and  C13_18 
ROOT
HETATM    1  C2  UNL     1      27.598   0.940  53.913  1.00  0.00     0.002 A 
HETATM    2  C3  UNL     1      26.864  -0.030  54.565  1.00  0.00     0.015 A 
HETATM    3  C4  UNL     1      25.508  -0.129  54.233  1.00  0.00     0.015 A 
HETATM    4  C5  UNL     1      25.006   0.740  53.288  1.00  0.00     0.003 A 
HETATM    5  C6  UNL     1      25.747   1.714  52.636  1.00  0.00    -0.027 A 
HETATM    6  C7  UNL     1      27.104   1.814  52.966  1.00  0.00     0.024 A 
HETATM    7  C8  UNL     1      25.407   2.714  51.623  1.00  0.00     0.158 C 
HETATM    8  N1  UNL     1      24.272   2.410  50.790  1.00  0.00    -0.393 N 
HETATM    9  C9  UNL     1      23.025   1.799  51.095  1.00  0.00     0.117 C 
HETATM   10  C10 UNL     1      22.729   0.979  52.061  1.00  0.00     0.098 A 
HETATM   11  C11 UNL     1      23.579   0.442  53.115  1.00  0.00     0.098 A 
HETATM   12  N2  UNL     1      23.045  -0.364  53.972  1.00  0.00    -0.237 NA
HETATM   13  C12 UNL     1      21.647  -0.707  53.870  1.00  0.00     0.255 A 
HETATM   14  N3  UNL     1      20.884  -0.238  52.942  1.00  0.00    -0.164 NA
HETATM   15  N4  UNL     1      21.349   0.656  51.939  1.00  0.00    -0.253 N 
HETATM   16  H7  UNL     1      24.386   2.691  49.768  1.00  0.00     0.159 HD
ENDROOT
BRANCH  15  17
HETATM   17  C13 UNL     1      20.390   1.093  50.967  1.00  0.00     0.157 A 
HETATM   18  C14 UNL     1      19.776   2.400  51.342  1.00  0.00     0.005 A 
HETATM   19  C15 UNL     1      18.478   2.311  51.626  1.00  0.00     0.017 A 
HETATM   20  C16 UNL     1      18.119   0.899  51.456  1.00  0.00     0.009 A 
HETATM   21 BR1  UNL     1      16.285   0.477  51.803  1.00  0.00    -0.051 Br
HETATM   22  C17 UNL     1      19.194   0.213  51.085  1.00  0.00     0.023 A 
ENDBRANCH  15  17
BRANCH   1  23
HETATM   23  C1  UNL     1      29.013   1.026  54.275  1.00  0.00     0.269 C 
HETATM   24  O1  UNL     1      29.434   2.046  54.889  1.00  0.00    -0.301 OA
ENDBRANCH   1  23
TORSDOF 2
ENDMDL
MODEL 7
REMARK VINA RESULT:      -7.2      4.405      7.652
REMARK  2 active torsions:
REMARK  status: ('A' for Active; 'I' for Inactive)
REMARK    1  A    between atoms: C1_2  and  C2_3 
REMARK    2  A    between atoms: N4_17  and  C13_18 
ROOT
HETATM    1  C2  UNL     1      28.146   7.040  47.554  1.00  0.00     0.002 A 
HETATM    2  C3  UNL     1      28.789   5.949  48.103  1.00  0.00     0.015 A 
HETATM    3  C4  UNL     1      27.994   5.029  48.797  1.00  0.00     0.015 A 
HETATM    4  C5  UNL     1      26.641   5.275  48.882  1.00  0.00     0.003 A 
HETATM    5  C6  UNL     1      25.999   6.372  48.330  1.00  0.00    -0.027 A 
HETATM    6  C7  UNL     1      26.791   7.294  47.635  1.00  0.00     0.024 A 
HETATM    7  C8  UNL     1      24.602   6.806  48.311  1.00  0.00     0.158 C 
HETATM    8  N1  UNL     1      23.616   5.767  48.465  1.00  0.00    -0.393 N 
HETATM    9  C9  UNL     1      23.600   4.607  49.288  1.00  0.00     0.117 C 
HETATM   10  C10 UNL     1      24.602   3.941  49.784  1.00  0.00     0.098 A 
HETATM   11  C11 UNL     1      26.032   4.181  49.650  1.00  0.00     0.098 A 
HETATM   12  N2  UNL     1      26.841   3.370  50.248  1.00  0.00    -0.237 NA
HETATM   13  C12 UNL     1      26.321   2.268  51.023  1.00  0.00     0.255 A 
HETATM   14  N3  UNL     1      25.057   2.046  51.150  1.00  0.00    -0.164 NA
HETATM   15  N4  UNL     1      24.065   2.864  50.541  1.00  0.00    -0.253 N 
HETATM   16  H7  UNL     1      22.748   5.889  47.859  1.00  0.00     0.159 HD
ENDROOT
BRANCH  15  17
HETATM   17  C13 UNL     1      22.697   2.495  50.764  1.00  0.00     0.157 A 
HETATM   18  C14 UNL     1      22.187   3.019  52.065  1.00  0.00     0.005 A 
HETATM   19  C15 UNL     1      21.909   2.060  52.947  1.00  0.00     0.017 A 
HETATM   20  C16 UNL     1      22.222   0.790  52.282  1.00  0.00     0.009 A 
HETATM   21 BR1  UNL     1      21.912  -0.778  53.334  1.00  0.00    -0.051 Br
HETATM   22  C17 UNL     1      22.665   1.034  51.054  1.00  0.00     0.023 A 
ENDBRANCH  15  17
BRANCH   1  23
HETATM   23  C1  UNL     1      28.994   7.989  46.833  1.00  0.00     0.269 C 
HETATM   24  O1  UNL     1      28.728   9.223  46.886  1.00  0.00    -0.301 OA
ENDBRANCH   1  23
TORSDOF 2
ENDMDL
MODEL 8
REMARK VINA RESULT:      -7.1      7.023      9.563
REMARK  2 active torsions:
REMARK  status: ('A' for Active; 'I' for Inactive)
REMARK    1  A    between atoms: C1_2  and  C2_3 
REMARK    2  A    between atoms: N4_17  and  C13_18 
ROOT
HETATM    1  C2  UNL     1      33.779   4.311  46.909  1.00  0.00     0.002 A 
HETATM    2  C3  UNL     1      32.639   3.532  46.907  1.00  0.00     0.015 A 
HETATM    3  C4  UNL     1      31.447   4.154  47.295  1.00  0.00     0.015 A 
HETATM    4  C5  UNL     1      31.494   5.485  47.647  1.00  0.00     0.003 A 
HETATM    5  C6  UNL     1      32.641   6.264  47.648  1.00  0.00    -0.027 A 
HETATM    6  C7  UNL     1      33.836   5.644  47.260  1.00  0.00     0.024 A 
HETATM    7  C8  UNL     1      32.895   7.665  47.982  1.00  0.00     0.158 C 
HETATM    8  N1  UNL     1      31.773   8.559  47.856  1.00  0.00    -0.393 N 
HETATM    9  C9  UNL     1      30.397   8.380  48.166  1.00  0.00     0.117 C 
HETATM   10  C10 UNL     1      29.708   7.279  48.232  1.00  0.00     0.098 A 
HETATM   11  C11 UNL     1      30.134   5.904  48.010  1.00  0.00     0.098 A 
HETATM   12  N2  UNL     1      29.253   4.968  48.139  1.00  0.00    -0.237 NA
HETATM   13  C12 UNL     1      27.893   5.297  48.495  1.00  0.00     0.255 A 
HETATM   14  N3  UNL     1      27.503   6.510  48.694  1.00  0.00    -0.164 NA
HETATM   15  N4  UNL     1      28.375   7.628  48.582  1.00  0.00    -0.253 N 
HETATM   16  H7  UNL     1      32.015   9.520  47.464  1.00  0.00     0.159 HD
ENDROOT
BRANCH  15  17
HETATM   17  C13 UNL     1      27.803   8.921  48.827  1.00  0.00     0.157 A 
HETATM   18  C14 UNL     1      27.088   8.972  50.136  1.00  0.00     0.005 A 
HETATM   19  C15 UNL     1      25.772   9.133  50.012  1.00  0.00     0.017 A 
HETATM   20  C16 UNL     1      25.503   9.203  48.572  1.00  0.00     0.009 A 
HETATM   21 BR1  UNL     1      23.664   9.436  48.097  1.00  0.00    -0.051 Br
HETATM   22  C17 UNL     1      26.645   9.084  47.904  1.00  0.00     0.023 A 
ENDBRANCH  15  17
BRANCH   1  23
HETATM   23  C1  UNL     1      35.014   3.641  46.500  1.00  0.00     0.269 C 
HETATM   24  O1  UNL     1      35.442   3.795  45.323  1.00  0.00    -0.301 OA
ENDBRANCH   1  23
TORSDOF 2
ENDMDL
MODEL 9
REMARK VINA RESULT:      -7.0      4.081      6.098
REMARK  2 active torsions:
REMARK  status: ('A' for Active; 'I' for Inactive)
REMARK    1  A    between atoms: C1_2  and  C2_3 
REMARK    2  A    between atoms: N4_17  and  C13_18 
ROOT
HETATM    1  C2  UNL     1      25.779   0.781  53.786  1.00  0.00     0.002 A 
HETATM    2  C3  UNL     1      24.911  -0.291  53.745  1.00  0.00     0.015 A 
HETATM    3  C4  UNL     1      23.597  -0.026  53.343  1.00  0.00     0.015 A 
HETATM    4  C5  UNL     1      23.266   1.272  53.020  1.00  0.00     0.003 A 
HETATM    5  C6  UNL     1      24.141   2.346  53.064  1.00  0.00    -0.027 A 
HETATM    6  C7  UNL     1      25.457   2.084  53.465  1.00  0.00     0.024 A 
HETATM    7  C8  UNL     1      23.987   3.771  52.767  1.00  0.00     0.158 C 
HETATM    8  N1  UNL     1      22.934   4.115  51.847  1.00  0.00    -0.393 N 
HETATM    9  C9  UNL     1      21.621   3.593  51.692  1.00  0.00     0.117 C 
HETATM   10  C10 UNL     1      21.162   2.420  52.017  1.00  0.00     0.098 A 
HETATM   11  C11 UNL     1      21.849   1.293  52.634  1.00  0.00     0.098 A 
HETATM   12  N2  UNL     1      21.168   0.219  52.864  1.00  0.00    -0.237 NA
HETATM   13  C12 UNL     1      19.769   0.161  52.514  1.00  0.00     0.255 A 
HETATM   14  N3  UNL     1      19.149   1.151  51.967  1.00  0.00    -0.164 NA
HETATM   15  N4  UNL     1      19.785   2.386  51.662  1.00  0.00    -0.253 N 
HETATM   16  H7  UNL     1      23.181   4.896  51.166  1.00  0.00     0.159 HD
ENDROOT
BRANCH  15  17
HETATM   17  C13 UNL     1      18.973   3.398  51.051  1.00  0.00     0.157 A 
HETATM   18  C14 UNL     1      17.596   3.425  51.624  1.00  0.00     0.005 A 
HETATM   19  C15 UNL     1      16.655   3.064  50.753  1.00  0.00     0.017 A 
HETATM   20  C16 UNL     1      17.354   2.761  49.500  1.00  0.00     0.009 A 
HETATM   21 BR1  UNL     1      16.229   2.207  48.054  1.00  0.00    -0.051 Br
HETATM   22  C17 UNL     1      18.658   2.948  49.666  1.00  0.00     0.023 A 
ENDBRANCH  15  17
BRANCH   1  23
HETATM   23  C1  UNL     1      27.148   0.482  54.209  1.00  0.00     0.269 C 
HETATM   24  O1  UNL     1      27.553  -0.714  54.197  1.00  0.00    -0.301 OA
ENDBRANCH   1  23
TORSDOF 2
ENDMDL
