MODEL 1
REMARK VINA RESULT:      -9.5      0.000      0.000
REMARK  3 active torsions:
REMARK  status: ('A' for Active; 'I' for Inactive)
REMARK    1  A    between atoms: C2_2  and  N1_3 
REMARK    2  A    between atoms: C2_2  and  C18_19 
REMARK    3  A    between atoms: N1_3  and  C3_4 
ROOT
HETATM    1  C3  UNL     1      24.399  -0.267  53.704  1.00  0.00     0.040 A 
HETATM    2  C4  UNL     1      24.317  -1.027  54.849  1.00  0.00     0.030 A 
HETATM    3  C5  UNL     1      23.060  -1.324  55.393  1.00  0.00     0.003 A 
HETATM    4  C6  UNL     1      21.852  -0.893  54.842  1.00  0.00     0.012 A 
HETATM    5  C7  UNL     1      21.908  -0.137  53.713  1.00  0.00    -0.022 A 
HETATM    6  C8  UNL     1      23.180   0.134  53.218  1.00  0.00     0.012 A 
HETATM    7  C9  UNL     1      23.399   1.112  52.112  1.00  0.00    -0.013 A 
HETATM    8  C10 UNL     1      24.600   1.798  52.381  1.00  0.00     0.013 A 
HETATM    9  C11 UNL     1      24.928   2.714  51.358  1.00  0.00     0.001 A 
HETATM   10  C12 UNL     1      24.098   2.863  50.239  1.00  0.00     0.001 A 
HETATM   11  C13 UNL     1      22.932   2.147  50.062  1.00  0.00     0.012 A 
HETATM   12  C14 UNL     1      22.575   1.257  51.018  1.00  0.00    -0.024 A 
HETATM   13  C15 UNL     1      21.244   0.605  50.858  1.00  0.00     0.024 C 
HETATM   14  C16 UNL     1      20.448   0.279  51.801  1.00  0.00    -0.024 C 
HETATM   15  C17 UNL     1      20.605   0.211  53.071  1.00  0.00     0.024 C 
ENDROOT
BRANCH   1  16
HETATM   16  N1  UNL     1      25.638  -0.150  53.002  1.00  0.00    -0.381 N 
HETATM   17  H5  UNL     1      26.042   0.463  52.266  1.00  0.00     0.160 HD
BRANCH  16  18
HETATM   18  C2  UNL     1      26.650  -1.159  53.225  1.00  0.00     0.111 C 
HETATM   19  C1  UNL     1      26.694  -2.157  52.106  1.00  0.00     0.037 C 
BRANCH  18  20
HETATM   20  C18 UNL     1      27.994  -0.575  53.391  1.00  0.00    -0.036 A 
HETATM   21  C19 UNL     1      28.447   0.675  53.470  1.00  0.00     0.009 A 
HETATM   22  C20 UNL     1      29.805   0.137  53.612  1.00  0.00     0.001 A 
HETATM   23  C21 UNL     1      29.321  -1.103  53.530  1.00  0.00     0.009 A 
ENDBRANCH  18  20
ENDBRANCH  16  18
ENDBRANCH   1  16
TORSDOF 3
ENDMDL
MODEL 2
REMARK VINA RESULT:      -9.0      2.551      4.619
REMARK  3 active torsions:
REMARK  status: ('A' for Active; 'I' for Inactive)
REMARK    1  A    between atoms: C2_2  and  N1_3 
REMARK    2  A    between atoms: C2_2  and  C18_19 
REMARK    3  A    between atoms: N1_3  and  C3_4 
ROOT
HETATM    1  C3  UNL     1      25.723   2.301  51.934  1.00  0.00     0.040 A 
HETATM    2  C4  UNL     1      26.926   1.639  52.043  1.00  0.00     0.030 A 
HETATM    3  C5  UNL     1      26.955   0.346  52.579  1.00  0.00     0.003 A 
HETATM    4  C6  UNL     1      25.823  -0.340  53.022  1.00  0.00     0.012 A 
HETATM    5  C7  UNL     1      24.624   0.295  52.928  1.00  0.00    -0.022 A 
HETATM    6  C8  UNL     1      24.651   1.580  52.395  1.00  0.00     0.012 A 
HETATM    7  C9  UNL     1      23.449   2.465  52.420  1.00  0.00    -0.013 A 
HETATM    8  C10 UNL     1      23.893   3.782  52.652  1.00  0.00     0.013 A 
HETATM    9  C11 UNL     1      22.831   4.710  52.639  1.00  0.00     0.001 A 
HETATM   10  C12 UNL     1      21.513   4.287  52.417  1.00  0.00     0.001 A 
HETATM   11  C13 UNL     1      21.170   2.967  52.203  1.00  0.00     0.012 A 
HETATM   12  C14 UNL     1      22.156   2.039  52.207  1.00  0.00    -0.024 A 
HETATM   13  C15 UNL     1      21.731   0.614  52.108  1.00  0.00     0.024 C 
HETATM   14  C16 UNL     1      22.291  -0.379  52.684  1.00  0.00    -0.024 C 
HETATM   15  C17 UNL     1      23.412  -0.497  53.293  1.00  0.00     0.024 C 
ENDROOT
BRANCH   1  16
HETATM   16  N1  UNL     1      25.631   3.512  51.181  1.00  0.00    -0.381 N 
HETATM   17  H5  UNL     1      25.415   4.512  51.367  1.00  0.00     0.160 HD
BRANCH  16  18
HETATM   18  C2  UNL     1      25.764   3.436  49.742  1.00  0.00     0.111 C 
HETATM   19  C1  UNL     1      24.428   3.345  49.066  1.00  0.00     0.037 C 
BRANCH  18  20
HETATM   20  C18 UNL     1      26.496   4.590  49.187  1.00  0.00    -0.036 A 
HETATM   21  C19 UNL     1      26.191   5.875  49.021  1.00  0.00     0.009 A 
HETATM   22  C20 UNL     1      27.522   6.080  48.437  1.00  0.00     0.001 A 
HETATM   23  C21 UNL     1      27.798   4.787  48.616  1.00  0.00     0.009 A 
ENDBRANCH  18  20
ENDBRANCH  16  18
ENDBRANCH   1  16
TORSDOF 3
ENDMDL
MODEL 3
REMARK VINA RESULT:      -8.7      1.334      3.996
REMARK  3 active torsions:
REMARK  status: ('A' for Active; 'I' for Inactive)
REMARK    1  A    between atoms: C2_2  and  N1_3 
REMARK    2  A    between atoms: C2_2  and  C18_19 
REMARK    3  A    between atoms: N1_3  and  C3_4 
ROOT
HETATM    1  C3  UNL     1      25.862   2.050  51.584  1.00  0.00     0.040 A 
HETATM    2  C4  UNL     1      26.600   2.732  50.643  1.00  0.00     0.030 A 
HETATM    3  C5  UNL     1      25.943   3.394  49.597  1.00  0.00     0.003 A 
HETATM    4  C6  UNL     1      24.557   3.412  49.436  1.00  0.00     0.012 A 
HETATM    5  C7  UNL     1      23.807   2.742  50.351  1.00  0.00    -0.022 A 
HETATM    6  C8  UNL     1      24.508   2.097  51.365  1.00  0.00     0.012 A 
HETATM    7  C9  UNL     1      23.833   1.162  52.313  1.00  0.00    -0.013 A 
HETATM    8  C10 UNL     1      24.727   0.108  52.581  1.00  0.00     0.013 A 
HETATM    9  C11 UNL     1      24.201  -0.808  53.518  1.00  0.00     0.001 A 
HETATM   10  C12 UNL     1      22.926  -0.618  54.067  1.00  0.00     0.001 A 
HETATM   11  C13 UNL     1      22.114   0.449  53.738  1.00  0.00     0.012 A 
HETATM   12  C14 UNL     1      22.576   1.354  52.842  1.00  0.00    -0.024 A 
HETATM   13  C15 UNL     1      21.620   2.414  52.413  1.00  0.00     0.024 C 
HETATM   14  C16 UNL     1      21.544   2.931  51.247  1.00  0.00    -0.024 C 
HETATM   15  C17 UNL     1      22.324   2.874  50.232  1.00  0.00     0.024 C 
ENDROOT
BRANCH   1  16
HETATM   16  N1  UNL     1      26.480   1.572  52.780  1.00  0.00    -0.381 N 
HETATM   17  H5  UNL     1      26.176   1.263  53.725  1.00  0.00     0.160 HD
BRANCH  16  18
HETATM   18  C2  UNL     1      27.925   1.558  52.845  1.00  0.00     0.111 C 
HETATM   19  C1  UNL     1      28.442   2.498  53.893  1.00  0.00     0.037 C 
BRANCH  18  20
HETATM   20  C18 UNL     1      28.460   0.210  53.115  1.00  0.00    -0.036 A 
HETATM   21  C19 UNL     1      27.953  -1.017  52.997  1.00  0.00     0.009 A 
HETATM   22  C20 UNL     1      29.227  -1.552  53.493  1.00  0.00     0.001 A 
HETATM   23  C21 UNL     1      29.705  -0.311  53.600  1.00  0.00     0.009 A 
ENDBRANCH  18  20
ENDBRANCH  16  18
ENDBRANCH   1  16
TORSDOF 3
ENDMDL
MODEL 4
REMARK VINA RESULT:      -8.6      1.759      4.811
REMARK  3 active torsions:
REMARK  status: ('A' for Active; 'I' for Inactive)
REMARK    1  A    between atoms: C2_2  and  N1_3 
REMARK    2  A    between atoms: C2_2  and  C18_19 
REMARK    3  A    between atoms: N1_3  and  C3_4 
ROOT
HETATM    1  C3  UNL     1      23.243   1.677  51.560  1.00  0.00     0.040 A 
HETATM    2  C4  UNL     1      22.103   1.948  50.837  1.00  0.00     0.030 A 
HETATM    3  C5  UNL     1      20.978   1.127  50.990  1.00  0.00     0.003 A 
HETATM    4  C6  UNL     1      20.928   0.025  51.844  1.00  0.00     0.012 A 
HETATM    5  C7  UNL     1      22.044  -0.265  52.566  1.00  0.00    -0.022 A 
HETATM    6  C8  UNL     1      23.135   0.577  52.372  1.00  0.00     0.012 A 
HETATM    7  C9  UNL     1      24.479   0.261  52.940  1.00  0.00    -0.013 A 
HETATM    8  C10 UNL     1      25.445   0.670  51.999  1.00  0.00     0.013 A 
HETATM    9  C11 UNL     1      26.761   0.465  52.467  1.00  0.00     0.001 A 
HETATM   10  C12 UNL     1      26.992  -0.091  53.733  1.00  0.00     0.001 A 
HETATM   11  C13 UNL     1      25.976  -0.469  54.588  1.00  0.00     0.012 A 
HETATM   12  C14 UNL     1      24.697  -0.292  54.182  1.00  0.00    -0.024 A 
HETATM   13  C15 UNL     1      23.633  -0.835  55.074  1.00  0.00     0.024 C 
HETATM   14  C16 UNL     1      22.527  -1.351  54.697  1.00  0.00    -0.024 C 
HETATM   15  C17 UNL     1      21.932  -1.371  53.563  1.00  0.00     0.024 C 
ENDROOT
BRANCH   1  16
HETATM   16  N1  UNL     1      24.313   2.624  51.604  1.00  0.00    -0.381 N 
HETATM   17  H5  UNL     1      25.175   2.775  52.164  1.00  0.00     0.160 HD
BRANCH  16  18
HETATM   18  C2  UNL     1      24.236   3.785  50.745  1.00  0.00     0.111 C 
HETATM   19  C1  UNL     1      23.907   5.027  51.519  1.00  0.00     0.037 C 
BRANCH  18  20
HETATM   20  C18 UNL     1      25.487   4.011  49.997  1.00  0.00    -0.036 A 
HETATM   21  C19 UNL     1      26.513   3.227  49.671  1.00  0.00     0.009 A 
HETATM   22  C20 UNL     1      27.129   4.375  48.995  1.00  0.00     0.001 A 
HETATM   23  C21 UNL     1      26.087   5.134  49.337  1.00  0.00     0.009 A 
ENDBRANCH  18  20
ENDBRANCH  16  18
ENDBRANCH   1  16
TORSDOF 3
ENDMDL
MODEL 5
REMARK VINA RESULT:      -8.3      2.612      5.553
REMARK  3 active torsions:
REMARK  status: ('A' for Active; 'I' for Inactive)
REMARK    1  A    between atoms: C2_2  and  N1_3 
REMARK    2  A    between atoms: C2_2  and  C18_19 
REMARK    3  A    between atoms: N1_3  and  C3_4 
ROOT
HETATM    1  C3  UNL     1      23.612   3.306  49.857  1.00  0.00     0.040 A 
HETATM    2  C4  UNL     1      22.885   3.701  48.757  1.00  0.00     0.030 A 
HETATM    3  C5  UNL     1      21.776   2.946  48.356  1.00  0.00     0.003 A 
HETATM    4  C6  UNL     1      21.341   1.791  49.008  1.00  0.00     0.012 A 
HETATM    5  C7  UNL     1      22.046   1.379  50.095  1.00  0.00    -0.022 A 
HETATM    6  C8  UNL     1      23.143   2.160  50.448  1.00  0.00     0.012 A 
HETATM    7  C9  UNL     1      24.119   1.717  51.488  1.00  0.00    -0.013 A 
HETATM    8  C10 UNL     1      25.400   2.129  51.072  1.00  0.00     0.013 A 
HETATM    9  C11 UNL     1      26.394   1.805  52.020  1.00  0.00     0.001 A 
HETATM   10  C12 UNL     1      26.060   1.147  53.211  1.00  0.00     0.001 A 
HETATM   11  C13 UNL     1      24.771   0.775  53.532  1.00  0.00     0.012 A 
HETATM   12  C14 UNL     1      23.782   1.064  52.652  1.00  0.00    -0.024 A 
HETATM   13  C15 UNL     1      22.428   0.528  52.971  1.00  0.00     0.024 C 
HETATM   14  C16 UNL     1      21.565   0.113  52.126  1.00  0.00    -0.024 C 
HETATM   15  C17 UNL     1      21.497   0.213  50.851  1.00  0.00     0.024 C 
ENDROOT
BRANCH   1  16
HETATM   16  N1  UNL     1      24.593   4.176  50.426  1.00  0.00    -0.381 N 
HETATM   17  H5  UNL     1      25.152   4.226  51.301  1.00  0.00     0.160 HD
BRANCH  16  18
HETATM   18  C2  UNL     1      24.907   5.403  49.728  1.00  0.00     0.111 C 
HETATM   19  C1  UNL     1      24.780   6.599  50.625  1.00  0.00     0.037 C 
BRANCH  18  20
HETATM   20  C18 UNL     1      26.264   5.387  49.152  1.00  0.00    -0.036 A 
HETATM   21  C19 UNL     1      27.029   6.318  48.584  1.00  0.00     0.009 A 
HETATM   22  C20 UNL     1      28.070   5.300  48.400  1.00  0.00     0.001 A 
HETATM   23  C21 UNL     1      27.280   4.390  48.973  1.00  0.00     0.009 A 
ENDBRANCH  18  20
ENDBRANCH  16  18
ENDBRANCH   1  16
TORSDOF 3
ENDMDL
MODEL 6
REMARK VINA RESULT:      -8.2      1.614      4.259
REMARK  3 active torsions:
REMARK  status: ('A' for Active; 'I' for Inactive)
REMARK    1  A    between atoms: C2_2  and  N1_3 
REMARK    2  A    between atoms: C2_2  and  C18_19 
REMARK    3  A    between atoms: N1_3  and  C3_4 
ROOT
HETATM    1  C3  UNL     1      23.030   1.505  51.354  1.00  0.00     0.040 A 
HETATM    2  C4  UNL     1      23.606   2.218  50.326  1.00  0.00     0.030 A 
HETATM    3  C5  UNL     1      22.872   2.459  49.158  1.00  0.00     0.003 A 
HETATM    4  C6  UNL     1      21.563   2.018  48.955  1.00  0.00     0.012 A 
HETATM    5  C7  UNL     1      20.975   1.309  49.955  1.00  0.00    -0.022 A 
HETATM    6  C8  UNL     1      21.749   1.092  51.090  1.00  0.00     0.012 A 
HETATM    7  C9  UNL     1      21.309   0.164  52.174  1.00  0.00    -0.013 A 
HETATM    8  C10 UNL     1      22.453  -0.500  52.658  1.00  0.00     0.013 A 
HETATM    9  C11 UNL     1      22.150  -1.365  53.730  1.00  0.00     0.001 A 
HETATM   10  C12 UNL     1      20.835  -1.493  54.197  1.00  0.00     0.001 A 
HETATM   11  C13 UNL     1      19.770  -0.803  53.654  1.00  0.00     0.012 A 
HETATM   12  C14 UNL     1      20.012   0.040  52.621  1.00  0.00    -0.024 A 
HETATM   13  C15 UNL     1      18.822   0.662  51.976  1.00  0.00     0.024 C 
HETATM   14  C16 UNL     1      18.693   0.929  50.734  1.00  0.00    -0.024 C 
HETATM   15  C17 UNL     1      19.537   0.951  49.770  1.00  0.00     0.024 C 
ENDROOT
BRANCH   1  16
HETATM   16  N1  UNL     1      23.660   1.449  52.635  1.00  0.00    -0.381 N 
HETATM   17  H5  UNL     1      23.364   1.366  53.628  1.00  0.00     0.160 HD
BRANCH  16  18
HETATM   18  C2  UNL     1      25.092   1.643  52.704  1.00  0.00     0.111 C 
HETATM   19  C1  UNL     1      25.480   2.503  53.869  1.00  0.00     0.037 C 
BRANCH  18  20
HETATM   20  C18 UNL     1      25.825   0.366  52.794  1.00  0.00    -0.036 A 
HETATM   21  C19 UNL     1      25.926  -0.568  53.739  1.00  0.00     0.009 A 
HETATM   22  C20 UNL     1      26.823  -1.318  52.852  1.00  0.00     0.001 A 
HETATM   23  C21 UNL     1      26.702  -0.366  51.926  1.00  0.00     0.009 A 
ENDBRANCH  18  20
ENDBRANCH  16  18
ENDBRANCH   1  16
TORSDOF 3
ENDMDL
MODEL 7
REMARK VINA RESULT:      -8.1      1.737      5.186
REMARK  3 active torsions:
REMARK  status: ('A' for Active; 'I' for Inactive)
REMARK    1  A    between atoms: C2_2  and  N1_3 
REMARK    2  A    between atoms: C2_2  and  C18_19 
REMARK    3  A    between atoms: N1_3  and  C3_4 
ROOT
HETATM    1  C3  UNL     1      22.491   1.674  52.768  1.00  0.00     0.040 A 
HETATM    2  C4  UNL     1      21.131   1.875  52.698  1.00  0.00     0.030 A 
HETATM    3  C5  UNL     1      20.265   0.946  53.290  1.00  0.00     0.003 A 
HETATM    4  C6  UNL     1      20.692  -0.198  53.965  1.00  0.00     0.012 A 
HETATM    5  C7  UNL     1      22.032  -0.419  54.045  1.00  0.00    -0.022 A 
HETATM    6  C8  UNL     1      22.847   0.529  53.434  1.00  0.00     0.012 A 
HETATM    7  C9  UNL     1      24.315   0.310  53.269  1.00  0.00    -0.013 A 
HETATM    8  C10 UNL     1      24.689   0.855  52.024  1.00  0.00     0.013 A 
HETATM    9  C11 UNL     1      26.077   0.748  51.795  1.00  0.00     0.001 A 
HETATM   10  C12 UNL     1      26.916   0.152  52.746  1.00  0.00     0.001 A 
HETATM   11  C13 UNL     1      26.457  -0.362  53.942  1.00  0.00     0.012 A 
HETATM   12  C14 UNL     1      25.131  -0.283  54.206  1.00  0.00    -0.024 A 
HETATM   13  C15 UNL     1      24.656  -0.968  55.442  1.00  0.00     0.024 C 
HETATM   14  C16 UNL     1      23.536  -1.564  55.589  1.00  0.00    -0.024 C 
HETATM   15  C17 UNL     1      22.474  -1.581  54.873  1.00  0.00     0.024 C 
ENDROOT
BRANCH   1  16
HETATM   16  N1  UNL     1      23.395   2.712  52.387  1.00  0.00    -0.381 N 
HETATM   17  H5  UNL     1      24.356   3.019  52.640  1.00  0.00     0.160 HD
BRANCH  16  18
HETATM   18  C2  UNL     1      22.924   3.730  51.474  1.00  0.00     0.111 C 
HETATM   19  C1  UNL     1      23.744   4.982  51.567  1.00  0.00     0.037 C 
BRANCH  18  20
HETATM   20  C18 UNL     1      22.924   3.268  50.073  1.00  0.00    -0.036 A 
HETATM   21  C19 UNL     1      23.868   3.184  49.137  1.00  0.00     0.009 A 
HETATM   22  C20 UNL     1      22.859   2.641  48.219  1.00  0.00     0.001 A 
HETATM   23  C21 UNL     1      21.937   2.738  49.177  1.00  0.00     0.009 A 
ENDBRANCH  18  20
ENDBRANCH  16  18
ENDBRANCH   1  16
TORSDOF 3
ENDMDL
MODEL 8
REMARK VINA RESULT:      -8.0      2.126      5.992
REMARK  3 active torsions:
REMARK  status: ('A' for Active; 'I' for Inactive)
REMARK    1  A    between atoms: C2_2  and  N1_3 
REMARK    2  A    between atoms: C2_2  and  C18_19 
REMARK    3  A    between atoms: N1_3  and  C3_4 
ROOT
HETATM    1  C3  UNL     1      22.831   3.409  52.252  1.00  0.00     0.040 A 
HETATM    2  C4  UNL     1      21.799   4.315  52.148  1.00  0.00     0.030 A 
HETATM    3  C5  UNL     1      21.980   5.483  51.396  1.00  0.00     0.003 A 
HETATM    4  C6  UNL     1      23.162   5.804  50.726  1.00  0.00     0.012 A 
HETATM    5  C7  UNL     1      24.196   4.926  50.818  1.00  0.00    -0.022 A 
HETATM    6  C8  UNL     1      23.967   3.786  51.582  1.00  0.00     0.012 A 
HETATM    7  C9  UNL     1      25.071   2.843  51.934  1.00  0.00    -0.013 A 
HETATM    8  C10 UNL     1      24.835   2.383  53.244  1.00  0.00     0.013 A 
HETATM    9  C11 UNL     1      25.799   1.437  53.654  1.00  0.00     0.001 A 
HETATM   10  C12 UNL     1      26.840   1.057  52.796  1.00  0.00     0.001 A 
HETATM   11  C13 UNL     1      26.994   1.569  51.523  1.00  0.00     0.012 A 
HETATM   12  C14 UNL     1      26.094   2.481  51.086  1.00  0.00    -0.024 A 
HETATM   13  C15 UNL     1      26.370   3.109  49.763  1.00  0.00     0.024 C 
HETATM   14  C16 UNL     1      26.113   4.316  49.434  1.00  0.00    -0.024 C 
HETATM   15  C17 UNL     1      25.408   5.226  49.997  1.00  0.00     0.024 C 
ENDROOT
BRANCH   1  16
HETATM   16  N1  UNL     1      22.601   2.113  52.807  1.00  0.00    -0.381 N 
HETATM   17  H5  UNL     1      23.068   1.480  53.486  1.00  0.00     0.160 HD
BRANCH  16  18
HETATM   18  C2  UNL     1      21.498   1.333  52.291  1.00  0.00     0.111 C 
HETATM   19  C1  UNL     1      21.745   0.887  50.880  1.00  0.00     0.037 C 
BRANCH  18  20
HETATM   20  C18 UNL     1      21.217   0.145  53.119  1.00  0.00    -0.036 A 
HETATM   21  C19 UNL     1      20.101  -0.515  53.426  1.00  0.00     0.009 A 
HETATM   22  C20 UNL     1      20.910  -1.435  54.233  1.00  0.00     0.001 A 
HETATM   23  C21 UNL     1      22.009  -0.754  53.909  1.00  0.00     0.009 A 
ENDBRANCH  18  20
ENDBRANCH  16  18
ENDBRANCH   1  16
TORSDOF 3
ENDMDL
MODEL 9
REMARK VINA RESULT:      -7.9      2.531      5.892
REMARK  3 active torsions:
REMARK  status: ('A' for Active; 'I' for Inactive)
REMARK    1  A    between atoms: C2_2  and  N1_3 
REMARK    2  A    between atoms: C2_2  and  C18_19 
REMARK    3  A    between atoms: N1_3  and  C3_4 
ROOT
HETATM    1  C3  UNL     1      23.959   1.904  51.074  1.00  0.00     0.040 A 
HETATM    2  C4  UNL     1      24.856   1.340  51.954  1.00  0.00     0.030 A 
HETATM    3  C5  UNL     1      26.194   1.751  51.934  1.00  0.00     0.003 A 
HETATM    4  C6  UNL     1      26.699   2.719  51.064  1.00  0.00     0.012 A 
HETATM    5  C7  UNL     1      25.833   3.289  50.184  1.00  0.00    -0.022 A 
HETATM    6  C8  UNL     1      24.517   2.839  50.240  1.00  0.00     0.012 A 
HETATM    7  C9  UNL     1      23.512   3.226  49.206  1.00  0.00    -0.013 A 
HETATM    8  C10 UNL     1      22.682   2.110  48.981  1.00  0.00     0.013 A 
HETATM    9  C11 UNL     1      21.657   2.390  48.053  1.00  0.00     0.001 A 
HETATM   10  C12 UNL     1      21.549   3.659  47.467  1.00  0.00     0.001 A 
HETATM   11  C13 UNL     1      22.417   4.696  47.746  1.00  0.00     0.012 A 
HETATM   12  C14 UNL     1      23.418   4.473  48.630  1.00  0.00    -0.024 A 
HETATM   13  C15 UNL     1      24.411   5.571  48.802  1.00  0.00     0.024 C 
HETATM   14  C16 UNL     1      25.662   5.427  49.020  1.00  0.00    -0.024 C 
HETATM   15  C17 UNL     1      26.363   4.406  49.346  1.00  0.00     0.024 C 
ENDROOT
BRANCH   1  16
HETATM   16  N1  UNL     1      22.556   1.681  51.229  1.00  0.00    -0.381 N 
HETATM   17  H5  UNL     1      21.751   1.437  50.619  1.00  0.00     0.160 HD
BRANCH  16  18
HETATM   18  C2  UNL     1      21.964   1.919  52.528  1.00  0.00     0.111 C 
HETATM   19  C1  UNL     1      20.738   2.777  52.429  1.00  0.00     0.037 C 
BRANCH  18  20
HETATM   20  C18 UNL     1      21.609   0.665  53.218  1.00  0.00    -0.036 A 
HETATM   21  C19 UNL     1      20.760   0.370  54.201  1.00  0.00     0.009 A 
HETATM   22  C20 UNL     1      21.181  -1.032  54.096  1.00  0.00     0.001 A 
HETATM   23  C21 UNL     1      22.022  -0.705  53.114  1.00  0.00     0.009 A 
ENDBRANCH  18  20
ENDBRANCH  16  18
ENDBRANCH   1  16
TORSDOF 3
ENDMDL
