MODEL 1
REMARK VINA RESULT:      -6.9      0.000      0.000
REMARK  2 active torsions:
REMARK  status: ('A' for Active; 'I' for Inactive)
REMARK    1  A    between atoms: C4_4  and  C5_5 
REMARK    2  A    between atoms: N1_20  and  C16_21 
ROOT
HETATM    1  C1  UNL     1      22.107   0.286  52.623  1.00  0.00     0.016 C 
HETATM    2  C2  UNL     1      22.992   0.984  51.958  1.00  0.00     0.021 C 
HETATM    3  C3  UNL     1      23.864   1.826  51.117  1.00  0.00     0.041 C 
HETATM    4  C4  UNL     1      25.174   1.733  51.472  1.00  0.00     0.021 C 
HETATM    5  C7  UNL     1      26.417   2.380  50.860  1.00  0.00     0.123 C 
HETATM    6  C8  UNL     1      25.936   3.653  50.428  1.00  0.00     0.135 C 
HETATM    7  O2  UNL     1      25.443   3.209  49.367  1.00  0.00    -0.297 OA
HETATM    8  C9  UNL     1      25.467   4.949  50.027  1.00  0.00     0.120 C 
HETATM    9  C10 UNL     1      23.976   4.959  49.859  1.00  0.00    -0.014 C 
HETATM   10  C11 UNL     1      23.071   3.997  49.867  1.00  0.00     0.025 C 
HETATM   11  C12 UNL     1      21.610   3.953  49.698  1.00  0.00     0.093 C 
HETATM   12  P1  UNL     1      21.073   5.550  48.874  1.00  0.00    -0.100 P 
HETATM   13  C13 UNL     1      20.701   6.888  50.076  1.00  0.00     0.004 C 
HETATM   14  C14 UNL     1      21.555   7.852  50.519  1.00  0.00     0.002 C 
HETATM   15  C15 UNL     1      22.984   8.000  50.108  1.00  0.00     0.016 C 
HETATM   16  P2  UNL     1      24.144   6.791  49.786  1.00  0.00    -0.025 P 
HETATM   17  N1  UNL     1      22.995   2.553  50.141  1.00  0.00    -0.345 N 
HETATM   18  H13 UNL     1      20.012   5.403  47.917  1.00  0.00     0.062 HD
ENDROOT
BRANCH   4  19
HETATM   19  C5  UNL     1      25.452   0.856  52.583  1.00  0.00     0.154 C 
HETATM   20  C6  UNL     1      25.544   0.098  53.831  1.00  0.00     0.096 C 
HETATM   21  O1  UNL     1      26.405   0.134  52.090  1.00  0.00    -0.293 OA
ENDBRANCH   4  19
BRANCH  17  22
HETATM   22  C16 UNL     1      22.050   1.834  49.421  1.00  0.00     0.082 C 
HETATM   23  C17 UNL     1      22.341   1.732  47.893  1.00  0.00     0.032 C 
HETATM   24  C18 UNL     1      20.690   1.396  49.761  1.00  0.00     0.032 C 
ENDBRANCH  17  22
TORSDOF 2
ENDMDL
MODEL 2
REMARK VINA RESULT:      -6.9      1.517      2.064
REMARK  2 active torsions:
REMARK  status: ('A' for Active; 'I' for Inactive)
REMARK    1  A    between atoms: C4_4  and  C5_5 
REMARK    2  A    between atoms: N1_20  and  C16_21 
ROOT
HETATM    1  C1  UNL     1      19.588   0.041  52.840  1.00  0.00     0.016 C 
HETATM    2  C2  UNL     1      20.777   0.467  52.495  1.00  0.00     0.021 C 
HETATM    3  C3  UNL     1      22.042   1.025  51.981  1.00  0.00     0.041 C 
HETATM    4  C4  UNL     1      23.116   0.642  52.723  1.00  0.00     0.021 C 
HETATM    5  C7  UNL     1      24.605   0.935  52.538  1.00  0.00     0.123 C 
HETATM    6  C8  UNL     1      24.608   2.260  52.003  1.00  0.00     0.135 C 
HETATM    7  O2  UNL     1      24.368   1.884  50.833  1.00  0.00    -0.297 OA
HETATM    8  C9  UNL     1      24.617   3.604  51.501  1.00  0.00     0.120 C 
HETATM    9  C10 UNL     1      23.299   3.961  50.880  1.00  0.00    -0.014 C 
HETATM   10  C11 UNL     1      22.226   3.246  50.589  1.00  0.00     0.025 C 
HETATM   11  C12 UNL     1      20.923   3.543  49.976  1.00  0.00     0.093 C 
HETATM   12  P1  UNL     1      21.072   5.171  49.056  1.00  0.00    -0.100 P 
HETATM   13  C13 UNL     1      20.693   6.627  50.109  1.00  0.00     0.004 C 
HETATM   14  C14 UNL     1      21.580   7.383  50.813  1.00  0.00     0.002 C 
HETATM   15  C15 UNL     1      23.057   7.160  50.868  1.00  0.00     0.016 C 
HETATM   16  P2  UNL     1      23.925   5.691  50.898  1.00  0.00    -0.025 P 
HETATM   17  N1  UNL     1      21.718   1.880  50.799  1.00  0.00    -0.345 N 
HETATM   18  H13 UNL     1      20.351   5.227  47.815  1.00  0.00     0.062 HD
ENDROOT
BRANCH   4  19
HETATM   19  C5  UNL     1      22.818  -0.209  53.849  1.00  0.00     0.154 C 
HETATM   20  C6  UNL     1      22.268  -1.008  54.944  1.00  0.00     0.096 C 
HETATM   21  O1  UNL     1      24.006  -0.605  54.174  1.00  0.00    -0.293 OA
ENDBRANCH   4  19
BRANCH  17  22
HETATM   22  C16 UNL     1      20.891   1.368  49.808  1.00  0.00     0.082 C 
HETATM   23  C17 UNL     1      21.633   0.930  48.509  1.00  0.00     0.032 C 
HETATM   24  C18 UNL     1      19.434   1.420  49.629  1.00  0.00     0.032 C 
ENDBRANCH  17  22
TORSDOF 2
ENDMDL
MODEL 3
REMARK VINA RESULT:      -6.8      2.611      4.702
REMARK  2 active torsions:
REMARK  status: ('A' for Active; 'I' for Inactive)
REMARK    1  A    between atoms: C4_4  and  C5_5 
REMARK    2  A    between atoms: N1_20  and  C16_21 
ROOT
HETATM    1  C1  UNL     1      26.758   1.725  51.039  1.00  0.00     0.016 C 
HETATM    2  C2  UNL     1      25.674   1.407  51.702  1.00  0.00     0.021 C 
HETATM    3  C3  UNL     1      24.391   1.192  52.396  1.00  0.00     0.041 C 
HETATM    4  C4  UNL     1      24.363   0.017  53.082  1.00  0.00     0.021 C 
HETATM    5  C7  UNL     1      23.275  -0.588  53.969  1.00  0.00     0.123 C 
HETATM    6  C8  UNL     1      22.068  -0.163  53.334  1.00  0.00     0.135 C 
HETATM    7  O2  UNL     1      22.090   0.976  53.854  1.00  0.00    -0.297 OA
HETATM    8  C9  UNL     1      20.854   0.231  52.678  1.00  0.00     0.120 C 
HETATM    9  C10 UNL     1      21.074   1.426  51.799  1.00  0.00    -0.014 C 
HETATM   10  C11 UNL     1      22.103   2.240  51.640  1.00  0.00     0.025 C 
HETATM   11  C12 UNL     1      22.363   3.423  50.805  1.00  0.00     0.093 C 
HETATM   12  P1  UNL     1      20.713   4.097  50.222  1.00  0.00    -0.100 P 
HETATM   13  C13 UNL     1      20.148   3.346  48.644  1.00  0.00     0.004 C 
HETATM   14  C14 UNL     1      19.327   2.270  48.496  1.00  0.00     0.002 C 
HETATM   15  C15 UNL     1      18.726   1.478  49.612  1.00  0.00     0.016 C 
HETATM   16  P2  UNL     1      19.406   1.048  51.118  1.00  0.00    -0.025 P 
HETATM   17  N1  UNL     1      23.502   2.353  52.084  1.00  0.00    -0.345 N 
HETATM   18  H13 UNL     1      20.635   5.530  50.172  1.00  0.00     0.062 HD
ENDROOT
BRANCH   4  19
HETATM   19  C5  UNL     1      25.563  -0.778  52.994  1.00  0.00     0.154 C 
HETATM   20  C6  UNL     1      26.746  -1.564  52.647  1.00  0.00     0.096 C 
HETATM   21  O1  UNL     1      25.832  -0.950  54.247  1.00  0.00    -0.293 OA
ENDBRANCH   4  19
BRANCH  17  22
HETATM   22  C16 UNL     1      24.005   3.639  52.227  1.00  0.00     0.082 C 
HETATM   23  C17 UNL     1      23.738   4.286  53.619  1.00  0.00     0.032 C 
HETATM   24  C18 UNL     1      24.485   4.615  51.240  1.00  0.00     0.032 C 
ENDBRANCH  17  22
TORSDOF 2
ENDMDL
MODEL 4
REMARK VINA RESULT:      -6.6      5.699      7.757
REMARK  2 active torsions:
REMARK  status: ('A' for Active; 'I' for Inactive)
REMARK    1  A    between atoms: C4_4  and  C5_5 
REMARK    2  A    between atoms: N1_20  and  C16_21 
ROOT
HETATM    1  C1  UNL     1      24.134   7.182  48.191  1.00  0.00     0.016 C 
HETATM    2  C2  UNL     1      25.430   7.117  48.018  1.00  0.00     0.021 C 
HETATM    3  C3  UNL     1      26.878   7.184  47.740  1.00  0.00     0.041 C 
HETATM    4  C4  UNL     1      27.553   6.119  48.250  1.00  0.00     0.021 C 
HETATM    5  C7  UNL     1      29.036   5.753  48.166  1.00  0.00     0.123 C 
HETATM    6  C8  UNL     1      29.684   7.025  48.197  1.00  0.00     0.135 C 
HETATM    7  O2  UNL     1      29.501   7.248  46.978  1.00  0.00    -0.297 OA
HETATM    8  C9  UNL     1      30.341   8.299  48.265  1.00  0.00     0.120 C 
HETATM    9  C10 UNL     1      29.417   9.409  47.861  1.00  0.00    -0.014 C 
HETATM   10  C11 UNL     1      28.205   9.415  47.333  1.00  0.00     0.025 C 
HETATM   11  C12 UNL     1      27.268  10.468  46.912  1.00  0.00     0.093 C 
HETATM   12  P1  UNL     1      28.238  12.060  46.705  1.00  0.00    -0.100 P 
HETATM   13  C13 UNL     1      28.344  13.041  48.254  1.00  0.00     0.004 C 
HETATM   14  C14 UNL     1      29.340  13.004  49.181  1.00  0.00     0.002 C 
HETATM   15  C15 UNL     1      30.554  12.135  49.114  1.00  0.00     0.016 C 
HETATM   16  P2  UNL     1      30.704  10.532  48.546  1.00  0.00    -0.025 P 
HETATM   17  N1  UNL     1      27.142   8.454  46.997  1.00  0.00    -0.345 N 
HETATM   18  H13 UNL     1      27.819  12.877  45.601  1.00  0.00     0.062 HD
ENDROOT
BRANCH   4  19
HETATM   19  C5  UNL     1      26.746   5.155  48.955  1.00  0.00     0.154 C 
HETATM   20  C6  UNL     1      25.747   4.364  49.674  1.00  0.00     0.096 C 
HETATM   21  O1  UNL     1      27.554   4.145  48.995  1.00  0.00    -0.293 OA
ENDBRANCH   4  19
BRANCH  17  22
HETATM   22  C16 UNL     1      26.348   8.766  45.901  1.00  0.00     0.082 C 
HETATM   23  C17 UNL     1      26.992   8.433  44.521  1.00  0.00     0.032 C 
HETATM   24  C18 UNL     1      25.150   9.606  45.771  1.00  0.00     0.032 C 
ENDBRANCH  17  22
TORSDOF 2
ENDMDL
MODEL 5
REMARK VINA RESULT:      -6.4     25.483     27.369
REMARK  2 active torsions:
REMARK  status: ('A' for Active; 'I' for Inactive)
REMARK    1  A    between atoms: C4_4  and  C5_5 
REMARK    2  A    between atoms: N1_20  and  C16_21 
ROOT
HETATM    1  C1  UNL     1      44.176   7.774  67.182  1.00  0.00     0.016 C 
HETATM    2  C2  UNL     1      44.129   6.575  67.706  1.00  0.00     0.021 C 
HETATM    3  C3  UNL     1      44.007   5.294  68.429  1.00  0.00     0.041 C 
HETATM    4  C4  UNL     1      44.499   4.247  67.713  1.00  0.00     0.021 C 
HETATM    5  C7  UNL     1      44.622   2.767  68.078  1.00  0.00     0.123 C 
HETATM    6  C8  UNL     1      43.463   2.536  68.880  1.00  0.00     0.135 C 
HETATM    7  O2  UNL     1      43.978   3.005  69.920  1.00  0.00    -0.297 OA
HETATM    8  C9  UNL     1      42.280   2.290  69.654  1.00  0.00     0.120 C 
HETATM    9  C10 UNL     1      41.731   3.563  70.226  1.00  0.00    -0.014 C 
HETATM   10  C11 UNL     1      42.200   4.798  70.270  1.00  0.00     0.025 C 
HETATM   11  C12 UNL     1      41.709   6.069  70.823  1.00  0.00     0.093 C 
HETATM   12  P1  UNL     1      40.369   5.678  72.076  1.00  0.00    -0.100 P 
HETATM   13  C13 UNL     1      38.694   5.579  71.328  1.00  0.00     0.004 C 
HETATM   14  C14 UNL     1      38.064   4.460  70.875  1.00  0.00     0.002 C 
HETATM   15  C15 UNL     1      38.631   3.077  70.896  1.00  0.00     0.016 C 
HETATM   16  P2  UNL     1      40.237   2.566  70.627  1.00  0.00    -0.025 P 
HETATM   17  N1  UNL     1      43.334   5.569  69.735  1.00  0.00    -0.345 N 
HETATM   18  H13 UNL     1      40.368   6.524  73.237  1.00  0.00     0.062 HD
ENDROOT
BRANCH   4  19
HETATM   19  C5  UNL     1      45.026   4.580  66.412  1.00  0.00     0.154 C 
HETATM   20  C6  UNL     1      45.702   5.094  65.221  1.00  0.00     0.096 C 
HETATM   21  O1  UNL     1      44.378   3.743  65.668  1.00  0.00    -0.293 OA
ENDBRANCH   4  19
BRANCH  17  22
HETATM   22  C16 UNL     1      43.801   6.612  70.523  1.00  0.00     0.082 C 
HETATM   23  C17 UNL     1      44.828   6.187  71.615  1.00  0.00     0.032 C 
HETATM   24  C18 UNL     1      43.309   7.982  70.721  1.00  0.00     0.032 C 
ENDBRANCH  17  22
TORSDOF 2
ENDMDL
MODEL 6
REMARK VINA RESULT:      -6.4      3.160      6.160
REMARK  2 active torsions:
REMARK  status: ('A' for Active; 'I' for Inactive)
REMARK    1  A    between atoms: C4_4  and  C5_5 
REMARK    2  A    between atoms: N1_20  and  C16_21 
ROOT
HETATM    1  C1  UNL     1      21.186   5.810  50.559  1.00  0.00     0.016 C 
HETATM    2  C2  UNL     1      21.138   4.505  50.659  1.00  0.00     0.021 C 
HETATM    3  C3  UNL     1      21.244   3.036  50.737  1.00  0.00     0.041 C 
HETATM    4  C4  UNL     1      20.053   2.444  51.020  1.00  0.00     0.021 C 
HETATM    5  C7  UNL     1      19.685   0.965  51.149  1.00  0.00     0.123 C 
HETATM    6  C8  UNL     1      20.862   0.389  51.716  1.00  0.00     0.135 C 
HETATM    7  O2  UNL     1      21.463   0.314  50.620  1.00  0.00    -0.297 OA
HETATM    8  C9  UNL     1      22.029  -0.187  52.321  1.00  0.00     0.120 C 
HETATM    9  C10 UNL     1      23.238   0.671  52.095  1.00  0.00    -0.014 C 
HETATM   10  C11 UNL     1      23.447   1.740  51.347  1.00  0.00     0.025 C 
HETATM   11  C12 UNL     1      24.608   2.606  51.085  1.00  0.00     0.093 C 
HETATM   12  P1  UNL     1      26.153   1.678  51.604  1.00  0.00    -0.100 P 
HETATM   13  C13 UNL     1      26.593   1.946  53.366  1.00  0.00     0.004 C 
HETATM   14  C14 UNL     1      26.236   1.171  54.427  1.00  0.00     0.002 C 
HETATM   15  C15 UNL     1      25.394  -0.062  54.356  1.00  0.00     0.016 C 
HETATM   16  P2  UNL     1      24.048  -0.393  53.360  1.00  0.00    -0.025 P 
HETATM   17  N1  UNL     1      22.675   2.668  50.505  1.00  0.00    -0.345 N 
HETATM   18  H13 UNL     1      27.289   1.881  50.749  1.00  0.00     0.062 HD
ENDROOT
BRANCH   4  19
HETATM   19  C5  UNL     1      18.940   3.346  51.195  1.00  0.00     0.154 C 
HETATM   20  C6  UNL     1      17.881   4.352  51.137  1.00  0.00     0.096 C 
HETATM   21  O1  UNL     1      18.506   2.973  52.355  1.00  0.00    -0.293 OA
ENDBRANCH   4  19
BRANCH  17  22
HETATM   22  C16 UNL     1      23.340   3.219  49.418  1.00  0.00     0.082 C 
HETATM   23  C17 UNL     1      23.033   2.529  48.055  1.00  0.00     0.032 C 
HETATM   24  C18 UNL     1      24.487   4.133  49.337  1.00  0.00     0.032 C 
ENDBRANCH  17  22
TORSDOF 2
ENDMDL
MODEL 7
REMARK VINA RESULT:      -6.4      3.028      5.607
REMARK  2 active torsions:
REMARK  status: ('A' for Active; 'I' for Inactive)
REMARK    1  A    between atoms: C4_4  and  C5_5 
REMARK    2  A    between atoms: N1_20  and  C16_21 
ROOT
HETATM    1  C1  UNL     1      26.606   8.489  47.223  1.00  0.00     0.016 C 
HETATM    2  C2  UNL     1      26.234   7.432  47.901  1.00  0.00     0.021 C 
HETATM    3  C3  UNL     1      25.665   6.310  48.670  1.00  0.00     0.041 C 
HETATM    4  C4  UNL     1      26.588   5.348  48.943  1.00  0.00     0.021 C 
HETATM    5  C7  UNL     1      26.462   4.050  49.741  1.00  0.00     0.123 C 
HETATM    6  C8  UNL     1      25.127   3.627  49.458  1.00  0.00     0.135 C 
HETATM    7  O2  UNL     1      24.609   4.391  50.304  1.00  0.00    -0.297 OA
HETATM    8  C9  UNL     1      23.800   3.178  49.147  1.00  0.00     0.120 C 
HETATM    9  C10 UNL     1      22.941   4.312  48.671  1.00  0.00    -0.014 C 
HETATM   10  C11 UNL     1      23.130   5.619  48.631  1.00  0.00     0.025 C 
HETATM   11  C12 UNL     1      22.322   6.766  48.187  1.00  0.00     0.093 C 
HETATM   12  P1  UNL     1      20.531   6.214  48.098  1.00  0.00    -0.100 P 
HETATM   13  C13 UNL     1      20.079   5.509  46.463  1.00  0.00     0.004 C 
HETATM   14  C14 UNL     1      20.102   4.196  46.102  1.00  0.00     0.002 C 
HETATM   15  C15 UNL     1      20.515   3.062  46.984  1.00  0.00     0.016 C 
HETATM   16  P2  UNL     1      21.753   3.003  48.157  1.00  0.00    -0.025 P 
HETATM   17  N1  UNL     1      24.211   6.588  48.878  1.00  0.00    -0.345 N 
HETATM   18  H13 UNL     1      19.578   7.202  48.518  1.00  0.00     0.062 HD
ENDROOT
BRANCH   4  19
HETATM   19  C5  UNL     1      27.912   5.600  48.431  1.00  0.00     0.154 C 
HETATM   20  C6  UNL     1      29.178   6.103  47.897  1.00  0.00     0.096 C 
HETATM   21  O1  UNL     1      28.416   4.409  48.466  1.00  0.00    -0.293 OA
ENDBRANCH   4  19
BRANCH  17  22
HETATM   22  C16 UNL     1      23.828   7.837  49.347  1.00  0.00     0.082 C 
HETATM   23  C17 UNL     1      23.661   7.923  50.894  1.00  0.00     0.032 C 
HETATM   24  C18 UNL     1      23.275   9.011  48.659  1.00  0.00     0.032 C 
ENDBRANCH  17  22
TORSDOF 2
ENDMDL
MODEL 8
REMARK VINA RESULT:      -6.3      2.140      4.254
REMARK  2 active torsions:
REMARK  status: ('A' for Active; 'I' for Inactive)
REMARK    1  A    between atoms: C4_4  and  C5_5 
REMARK    2  A    between atoms: N1_20  and  C16_21 
ROOT
HETATM    1  C1  UNL     1      26.790   3.554  49.334  1.00  0.00     0.016 C 
HETATM    2  C2  UNL     1      25.705   3.479  50.063  1.00  0.00     0.021 C 
HETATM    3  C3  UNL     1      24.422   3.517  50.790  1.00  0.00     0.041 C 
HETATM    4  C4  UNL     1      24.372   2.608  51.801  1.00  0.00     0.021 C 
HETATM    5  C7  UNL     1      23.277   2.328  52.831  1.00  0.00     0.123 C 
HETATM    6  C8  UNL     1      22.076   2.570  52.097  1.00  0.00     0.135 C 
HETATM    7  O2  UNL     1      22.128   3.812  52.246  1.00  0.00    -0.297 OA
HETATM    8  C9  UNL     1      20.866   2.775  51.353  1.00  0.00     0.120 C 
HETATM    9  C10 UNL     1      21.107   3.641  50.152  1.00  0.00    -0.014 C 
HETATM   10  C11 UNL     1      22.153   4.341  49.752  1.00  0.00     0.025 C 
HETATM   11  C12 UNL     1      22.435   5.208  48.597  1.00  0.00     0.093 C 
HETATM   12  P1  UNL     1      20.796   5.714  47.837  1.00  0.00    -0.100 P 
HETATM   13  C13 UNL     1      20.201   4.532  46.563  1.00  0.00     0.004 C 
HETATM   14  C14 UNL     1      19.354   3.483  46.750  1.00  0.00     0.002 C 
HETATM   15  C15 UNL     1      18.744   3.083  48.054  1.00  0.00     0.016 C 
HETATM   16  P2  UNL     1      19.426   3.115  49.618  1.00  0.00    -0.025 P 
HETATM   17  N1  UNL     1      23.558   4.550  50.140  1.00  0.00    -0.345 N 
HETATM   18  H13 UNL     1      20.751   7.065  47.353  1.00  0.00     0.062 HD
ENDROOT
BRANCH   4  19
HETATM   19  C5  UNL     1      25.552   1.793  51.958  1.00  0.00     0.154 C 
HETATM   20  C6  UNL     1      26.710   0.904  51.868  1.00  0.00     0.096 C 
HETATM   21  O1  UNL     1      25.849   2.033  53.194  1.00  0.00    -0.293 OA
ENDBRANCH   4  19
BRANCH  17  22
HETATM   22  C16 UNL     1      24.092   5.806  49.884  1.00  0.00     0.082 C 
HETATM   23  C17 UNL     1      23.815   6.864  50.995  1.00  0.00     0.032 C 
HETATM   24  C18 UNL     1      24.617   6.411  48.654  1.00  0.00     0.032 C 
ENDBRANCH  17  22
TORSDOF 2
ENDMDL
MODEL 9
REMARK VINA RESULT:      -6.3      6.685      8.477
REMARK  2 active torsions:
REMARK  status: ('A' for Active; 'I' for Inactive)
REMARK    1  A    between atoms: C4_4  and  C5_5 
REMARK    2  A    between atoms: N1_20  and  C16_21 
ROOT
HETATM    1  C1  UNL     1      17.821  -2.571  53.707  1.00  0.00     0.016 C 
HETATM    2  C2  UNL     1      17.698  -1.457  53.030  1.00  0.00     0.021 C 
HETATM    3  C3  UNL     1      17.398  -0.238  52.254  1.00  0.00     0.041 C 
HETATM    4  C4  UNL     1      18.506   0.519  52.031  1.00  0.00     0.021 C 
HETATM    5  C7  UNL     1      18.677   1.820  51.246  1.00  0.00     0.123 C 
HETATM    6  C8  UNL     1      17.444   2.502  51.483  1.00  0.00     0.135 C 
HETATM    7  O2  UNL     1      16.818   1.864  50.608  1.00  0.00    -0.297 OA
HETATM    8  C9  UNL     1      16.223   3.208  51.750  1.00  0.00     0.120 C 
HETATM    9  C10 UNL     1      15.135   2.268  52.176  1.00  0.00    -0.014 C 
HETATM   10  C11 UNL     1      15.055   0.949  52.206  1.00  0.00     0.025 C 
HETATM   11  C12 UNL     1      14.015  -0.013  52.602  1.00  0.00     0.093 C 
HETATM   12  P1  UNL     1      12.370   0.888  52.631  1.00  0.00    -0.100 P 
HETATM   13  C13 UNL     1      12.004   1.661  54.256  1.00  0.00     0.004 C 
HETATM   14  C14 UNL     1      12.276   2.940  54.635  1.00  0.00     0.002 C 
HETATM   15  C15 UNL     1      12.945   3.973  53.786  1.00  0.00     0.016 C 
HETATM   16  P2  UNL     1      14.216   3.787  52.662  1.00  0.00    -0.025 P 
HETATM   17  N1  UNL     1      15.928  -0.216  51.987  1.00  0.00    -0.345 N 
HETATM   18  H13 UNL     1      11.255   0.116  52.161  1.00  0.00     0.062 HD
ENDROOT
BRANCH   4  19
HETATM   19  C5  UNL     1      19.731   0.002  52.589  1.00  0.00     0.154 C 
HETATM   20  C6  UNL     1      20.833  -0.557  53.372  1.00  0.00     0.096 C 
HETATM   21  O1  UNL     1      20.529   0.124  51.578  1.00  0.00    -0.293 OA
ENDBRANCH   4  19
BRANCH  17  22
HETATM   22  C16 UNL     1      15.320  -1.360  51.487  1.00  0.00     0.082 C 
HETATM   23  C17 UNL     1      15.180  -1.390  49.935  1.00  0.00     0.032 C 
HETATM   24  C18 UNL     1      14.530  -2.412  52.140  1.00  0.00     0.032 C 
ENDBRANCH  17  22
TORSDOF 2
ENDMDL
