MODEL 1
REMARK VINA RESULT:      -7.7      0.000      0.000
REMARK  8 active torsions:
REMARK  status: ('A' for Active; 'I' for Inactive)
REMARK    1  A    between atoms: C2_2  and  C3_3 
REMARK    2  A    between atoms: C8_8  and  C9_9 
REMARK    3  A    between atoms: C9_9  and  O1_10 
REMARK    4  A    between atoms: C10_12  and  O2_13 
REMARK    5  A    between atoms: N2_14  and  C11_15 
REMARK    6  A    between atoms: C15_19  and  O3_20 
REMARK    7  A    between atoms: O3_20  and  O4_21 
REMARK    8  A    between atoms: C16_22  and  O5_23 
ROOT
HETATM    1  C3  UNL     1      26.635   5.278  48.984  1.00  0.00    -0.030 A 
HETATM    2  C4  UNL     1      26.944   4.054  49.530  1.00  0.00     0.027 A 
HETATM    3  C5  UNL     1      25.997   3.357  50.250  1.00  0.00     0.009 A 
HETATM    4  C6  UNL     1      24.749   3.925  50.399  1.00  0.00     0.068 A 
HETATM    5  C7  UNL     1      24.464   5.174  49.832  1.00  0.00     0.042 A 
HETATM    6  C8  UNL     1      25.411   5.889  49.102  1.00  0.00    -0.023 A 
HETATM    7  N1  UNL     1      23.757   3.416  51.045  1.00  0.00    -0.238 NA
HETATM    8  C10 UNL     1      23.896   2.147  51.689  1.00  0.00     0.352 A 
HETATM    9  N2  UNL     1      25.221   1.548  51.503  1.00  0.00    -0.332 N 
HETATM   10  C18 UNL     1      26.269   2.183  50.780  1.00  0.00     0.104 A 
ENDROOT
BRANCH   9  11
HETATM   11  C11 UNL     1      25.489   0.260  52.069  1.00  0.00     0.171 A 
HETATM   12  C12 UNL     1      26.937  -0.048  52.156  1.00  0.00     0.015 A 
HETATM   13  C13 UNL     1      27.353  -0.330  53.381  1.00  0.00    -0.024 A 
HETATM   14  C14 UNL     1      28.729  -0.680  53.820  1.00  0.00     0.051 C 
HETATM   15  C15 UNL     1      26.148  -0.222  54.223  1.00  0.00     0.143 A 
HETATM   16  C16 UNL     1      25.085   0.114  53.481  1.00  0.00     0.109 A 
BRANCH  15  17
HETATM   17  O3  UNL     1      26.120  -0.442  55.614  1.00  0.00    -0.197 OA
BRANCH  17  18
HETATM   18  O4  UNL     1      25.231  -1.320  56.143  1.00  0.00    -0.245 OA
HETATM   19  H16 UNL     1      24.318  -1.051  55.853  1.00  0.00     0.254 HD
ENDBRANCH  17  18
ENDBRANCH  15  17
BRANCH  16  20
HETATM   20  O5  UNL     1      23.793   0.301  53.936  1.00  0.00    -0.355 OA
HETATM   21  C17 UNL     1      22.804  -0.713  53.884  1.00  0.00     0.209 C 
ENDBRANCH  16  20
ENDBRANCH   9  11
BRANCH   8  22
HETATM   22  O2  UNL     1      22.986   1.260  51.110  1.00  0.00    -0.358 OA
HETATM   23  H10 UNL     1      23.027   1.468  50.127  1.00  0.00     0.214 HD
ENDBRANCH   8  22
BRANCH   1  24
HETATM   24  C2  UNL     1      27.629   6.018  48.224  1.00  0.00    -0.014 C 
HETATM   25  C1  UNL     1      28.930   6.186  48.111  1.00  0.00     0.032 C 
ENDBRANCH   1  24
BRANCH   6  26
HETATM   26  C9  UNL     1      25.066   7.202  48.521  1.00  0.00     0.203 C 
BRANCH  26  27
HETATM   27  O1  UNL     1      24.213   7.101  47.415  1.00  0.00    -0.396 OA
HETATM   28  H8  UNL     1      24.106   6.187  47.079  1.00  0.00     0.209 HD
ENDBRANCH  26  27
ENDBRANCH   6  26
TORSDOF 8
ENDMDL
MODEL 2
REMARK VINA RESULT:      -7.2      4.057      7.002
REMARK  8 active torsions:
REMARK  status: ('A' for Active; 'I' for Inactive)
REMARK    1  A    between atoms: C2_2  and  C3_3 
REMARK    2  A    between atoms: C8_8  and  C9_9 
REMARK    3  A    between atoms: C9_9  and  O1_10 
REMARK    4  A    between atoms: C10_12  and  O2_13 
REMARK    5  A    between atoms: N2_14  and  C11_15 
REMARK    6  A    between atoms: C15_19  and  O3_20 
REMARK    7  A    between atoms: O3_20  and  O4_21 
REMARK    8  A    between atoms: C16_22  and  O5_23 
ROOT
HETATM    1  C3  UNL     1      26.319   1.188  52.982  1.00  0.00    -0.030 A 
HETATM    2  C4  UNL     1      25.117   1.841  52.843  1.00  0.00     0.027 A 
HETATM    3  C5  UNL     1      23.932   1.154  53.004  1.00  0.00     0.009 A 
HETATM    4  C6  UNL     1      23.999  -0.190  53.305  1.00  0.00     0.068 A 
HETATM    5  C7  UNL     1      25.239  -0.829  53.440  1.00  0.00     0.042 A 
HETATM    6  C8  UNL     1      26.444  -0.147  53.281  1.00  0.00    -0.023 A 
HETATM    7  N1  UNL     1      22.995  -0.978  53.479  1.00  0.00    -0.238 NA
HETATM    8  C10 UNL     1      21.661  -0.477  53.363  1.00  0.00     0.352 A 
HETATM    9  N2  UNL     1      21.608   0.958  53.065  1.00  0.00    -0.332 N 
HETATM   10  C18 UNL     1      22.769   1.758  52.877  1.00  0.00     0.104 A 
ENDROOT
BRANCH   9  11
HETATM   11  C11 UNL     1      20.333   1.600  52.953  1.00  0.00     0.171 A 
HETATM   12  C12 UNL     1      20.423   2.988  52.440  1.00  0.00     0.015 A 
HETATM   13  C13 UNL     1      19.711   3.203  51.344  1.00  0.00    -0.024 A 
HETATM   14  C14 UNL     1      19.578   4.467  50.575  1.00  0.00     0.051 C 
HETATM   15  C15 UNL     1      19.073   1.907  51.050  1.00  0.00     0.143 A 
HETATM   16  C16 UNL     1      19.424   0.992  51.961  1.00  0.00     0.109 A 
BRANCH  15  17
HETATM   17  O3  UNL     1      18.213   1.667  49.960  1.00  0.00    -0.197 OA
BRANCH  17  18
HETATM   18  O4  UNL     1      17.998   0.398  49.534  1.00  0.00    -0.245 OA
HETATM   19  H16 UNL     1      18.733   0.150  48.910  1.00  0.00     0.254 HD
ENDBRANCH  17  18
ENDBRANCH  15  17
BRANCH  16  20
HETATM   20  O5  UNL     1      19.015  -0.328  51.999  1.00  0.00    -0.355 OA
HETATM   21  C17 UNL     1      17.952  -0.781  52.820  1.00  0.00     0.209 C 
ENDBRANCH  16  20
ENDBRANCH   9  11
BRANCH   8  22
HETATM   22  O2  UNL     1      21.024  -0.638  54.597  1.00  0.00    -0.358 OA
HETATM   23  H10 UNL     1      21.155  -1.610  54.818  1.00  0.00     0.214 HD
ENDBRANCH   8  22
BRANCH   1  24
HETATM   24  C2  UNL     1      27.572   1.907  52.814  1.00  0.00    -0.014 C 
HETATM   25  C1  UNL     1      28.553   2.452  53.503  1.00  0.00     0.032 C 
ENDBRANCH   1  24
BRANCH   6  26
HETATM   26  C9  UNL     1      27.728  -0.860  53.433  1.00  0.00     0.203 C 
BRANCH  26  27
HETATM   27  O1  UNL     1      27.646  -2.210  53.073  1.00  0.00    -0.396 OA
HETATM   28  H8  UNL     1      27.100  -2.751  53.680  1.00  0.00     0.209 HD
ENDBRANCH  26  27
ENDBRANCH   6  26
TORSDOF 8
ENDMDL
MODEL 3
REMARK VINA RESULT:      -7.1      2.176      7.722
REMARK  8 active torsions:
REMARK  status: ('A' for Active; 'I' for Inactive)
REMARK    1  A    between atoms: C2_2  and  C3_3 
REMARK    2  A    between atoms: C8_8  and  C9_9 
REMARK    3  A    between atoms: C9_9  and  O1_10 
REMARK    4  A    between atoms: C10_12  and  O2_13 
REMARK    5  A    between atoms: N2_14  and  C11_15 
REMARK    6  A    between atoms: C15_19  and  O3_20 
REMARK    7  A    between atoms: O3_20  and  O4_21 
REMARK    8  A    between atoms: C16_22  and  O5_23 
ROOT
HETATM    1  C3  UNL     1      23.574   0.118  53.252  1.00  0.00    -0.030 A 
HETATM    2  C4  UNL     1      23.146   1.081  52.370  1.00  0.00     0.027 A 
HETATM    3  C5  UNL     1      24.061   1.878  51.714  1.00  0.00     0.009 A 
HETATM    4  C6  UNL     1      25.400   1.674  51.973  1.00  0.00     0.068 A 
HETATM    5  C7  UNL     1      25.807   0.684  52.878  1.00  0.00     0.042 A 
HETATM    6  C8  UNL     1      24.894  -0.128  53.547  1.00  0.00    -0.023 A 
HETATM    7  N1  UNL     1      26.380   2.330  51.456  1.00  0.00    -0.238 NA
HETATM    8  C10 UNL     1      26.125   3.381  50.520  1.00  0.00     0.352 A 
HETATM    9  N2  UNL     1      24.698   3.570  50.241  1.00  0.00    -0.332 N 
HETATM   10  C18 UNL     1      23.674   2.805  50.864  1.00  0.00     0.104 A 
ENDROOT
BRANCH   9  11
HETATM   11  C11 UNL     1      24.300   4.570  49.295  1.00  0.00     0.171 A 
HETATM   12  C12 UNL     1      23.103   4.184  48.509  1.00  0.00     0.015 A 
HETATM   13  C13 UNL     1      22.100   5.043  48.604  1.00  0.00    -0.024 A 
HETATM   14  C14 UNL     1      20.767   4.965  47.953  1.00  0.00     0.051 C 
HETATM   15  C15 UNL     1      22.594   6.103  49.501  1.00  0.00     0.143 A 
HETATM   16  C16 UNL     1      23.845   5.838  49.898  1.00  0.00     0.109 A 
BRANCH  15  17
HETATM   17  O3  UNL     1      21.852   7.236  49.888  1.00  0.00    -0.197 OA
BRANCH  17  18
HETATM   18  O4  UNL     1      21.707   7.534  51.203  1.00  0.00    -0.245 OA
HETATM   19  H16 UNL     1      21.694   8.525  51.298  1.00  0.00     0.254 HD
ENDBRANCH  17  18
ENDBRANCH  15  17
BRANCH  16  20
HETATM   20  O5  UNL     1      24.621   6.613  50.739  1.00  0.00    -0.355 OA
HETATM   21  C17 UNL     1      25.654   7.461  50.270  1.00  0.00     0.209 C 
ENDBRANCH  16  20
ENDBRANCH   9  11
BRANCH   8  22
HETATM   22  O2  UNL     1      26.715   3.035  49.302  1.00  0.00    -0.358 OA
HETATM   23  H10 UNL     1      26.411   2.091  49.139  1.00  0.00     0.214 HD
ENDBRANCH   8  22
BRANCH   1  24
HETATM   24  C2  UNL     1      22.615  -0.725  53.947  1.00  0.00    -0.014 C 
HETATM   25  C1  UNL     1      21.553  -0.661  54.724  1.00  0.00     0.032 C 
ENDBRANCH   1  24
BRANCH   6  26
HETATM   26  C9  UNL     1      25.367  -1.159  54.492  1.00  0.00     0.203 C 
BRANCH  26  27
HETATM   27  O1  UNL     1      26.072  -0.621  55.576  1.00  0.00    -0.396 OA
HETATM   28  H8  UNL     1      25.911   0.335  55.719  1.00  0.00     0.209 HD
ENDBRANCH  26  27
ENDBRANCH   6  26
TORSDOF 8
ENDMDL
MODEL 4
REMARK VINA RESULT:      -7.0      2.012      7.828
REMARK  8 active torsions:
REMARK  status: ('A' for Active; 'I' for Inactive)
REMARK    1  A    between atoms: C2_2  and  C3_3 
REMARK    2  A    between atoms: C8_8  and  C9_9 
REMARK    3  A    between atoms: C9_9  and  O1_10 
REMARK    4  A    between atoms: C10_12  and  O2_13 
REMARK    5  A    between atoms: N2_14  and  C11_15 
REMARK    6  A    between atoms: C15_19  and  O3_20 
REMARK    7  A    between atoms: O3_20  and  O4_21 
REMARK    8  A    between atoms: C16_22  and  O5_23 
ROOT
HETATM    1  C3  UNL     1      24.051   0.559  52.950  1.00  0.00    -0.030 A 
HETATM    2  C4  UNL     1      23.597   1.605  52.182  1.00  0.00     0.027 A 
HETATM    3  C5  UNL     1      24.490   2.404  51.500  1.00  0.00     0.009 A 
HETATM    4  C6  UNL     1      25.833   2.119  51.616  1.00  0.00     0.068 A 
HETATM    5  C7  UNL     1      26.268   1.046  52.407  1.00  0.00     0.042 A 
HETATM    6  C8  UNL     1      25.377   0.230  53.101  1.00  0.00    -0.023 A 
HETATM    7  N1  UNL     1      26.796   2.766  51.056  1.00  0.00    -0.238 NA
HETATM    8  C10 UNL     1      26.514   3.894  50.224  1.00  0.00     0.352 A 
HETATM    9  N2  UNL     1      25.080   4.170  50.095  1.00  0.00    -0.332 N 
HETATM   10  C18 UNL     1      24.077   3.410  50.757  1.00  0.00     0.104 A 
ENDROOT
BRANCH   9  11
HETATM   11  C11 UNL     1      24.652   5.256  49.264  1.00  0.00     0.171 A 
HETATM   12  C12 UNL     1      23.267   5.698  49.553  1.00  0.00     0.015 A 
HETATM   13  C13 UNL     1      23.168   6.980  49.872  1.00  0.00    -0.024 A 
HETATM   14  C14 UNL     1      21.942   7.744  50.216  1.00  0.00     0.051 C 
HETATM   15  C15 UNL     1      24.550   7.491  49.809  1.00  0.00     0.143 A 
HETATM   16  C16 UNL     1      25.397   6.514  49.465  1.00  0.00     0.109 A 
BRANCH  15  17
HETATM   17  O3  UNL     1      24.924   8.823  50.075  1.00  0.00    -0.197 OA
BRANCH  17  18
HETATM   18  O4  UNL     1      26.064   9.080  50.764  1.00  0.00    -0.245 OA
HETATM   19  H16 UNL     1      26.276   8.285  51.324  1.00  0.00     0.254 HD
ENDBRANCH  17  18
ENDBRANCH  15  17
BRANCH  16  20
HETATM   20  O5  UNL     1      26.766   6.631  49.309  1.00  0.00    -0.355 OA
HETATM   21  C17 UNL     1      27.370   7.046  48.097  1.00  0.00     0.209 C 
ENDBRANCH  16  20
ENDBRANCH   9  11
BRANCH   8  22
HETATM   22  O2  UNL     1      26.971   3.613  48.935  1.00  0.00    -0.358 OA
HETATM   23  H10 UNL     1      27.758   3.003  49.078  1.00  0.00     0.214 HD
ENDBRANCH   8  22
BRANCH   1  24
HETATM   24  C2  UNL     1      23.115  -0.287  53.672  1.00  0.00    -0.014 C 
HETATM   25  C1  UNL     1      21.942  -0.874  53.548  1.00  0.00     0.032 C 
ENDBRANCH   1  24
BRANCH   6  26
HETATM   26  C9  UNL     1      25.878  -0.890  53.922  1.00  0.00     0.203 C 
BRANCH  26  27
HETATM   27  O1  UNL     1      26.435  -0.468  55.135  1.00  0.00    -0.396 OA
HETATM   28  H8  UNL     1      26.279   0.479  55.336  1.00  0.00     0.209 HD
ENDBRANCH  26  27
ENDBRANCH   6  26
TORSDOF 8
ENDMDL
MODEL 5
REMARK VINA RESULT:      -6.9      4.397      8.045
REMARK  8 active torsions:
REMARK  status: ('A' for Active; 'I' for Inactive)
REMARK    1  A    between atoms: C2_2  and  C3_3 
REMARK    2  A    between atoms: C8_8  and  C9_9 
REMARK    3  A    between atoms: C9_9  and  O1_10 
REMARK    4  A    between atoms: C10_12  and  O2_13 
REMARK    5  A    between atoms: N2_14  and  C11_15 
REMARK    6  A    between atoms: C15_19  and  O3_20 
REMARK    7  A    between atoms: O3_20  and  O4_21 
REMARK    8  A    between atoms: C16_22  and  O5_23 
ROOT
HETATM    1  C3  UNL     1      17.728  -0.131  50.865  1.00  0.00    -0.030 A 
HETATM    2  C4  UNL     1      18.823   0.510  50.337  1.00  0.00     0.027 A 
HETATM    3  C5  UNL     1      19.976   0.644  51.081  1.00  0.00     0.009 A 
HETATM    4  C6  UNL     1      19.988   0.118  52.356  1.00  0.00     0.068 A 
HETATM    5  C7  UNL     1      18.856  -0.531  52.868  1.00  0.00     0.042 A 
HETATM    6  C8  UNL     1      17.685  -0.673  52.127  1.00  0.00    -0.023 A 
HETATM    7  N1  UNL     1      20.973   0.162  53.184  1.00  0.00    -0.238 NA
HETATM    8  C10 UNL     1      22.197   0.800  52.811  1.00  0.00     0.352 A 
HETATM    9  N2  UNL     1      22.174   1.335  51.446  1.00  0.00    -0.332 N 
HETATM   10  C18 UNL     1      21.037   1.253  50.595  1.00  0.00     0.104 A 
ENDROOT
BRANCH   9  11
HETATM   11  C11 UNL     1      23.347   1.975  50.929  1.00  0.00     0.171 A 
HETATM   12  C12 UNL     1      23.128   2.612  49.608  1.00  0.00     0.015 A 
HETATM   13  C13 UNL     1      23.408   3.906  49.584  1.00  0.00    -0.024 A 
HETATM   14  C14 UNL     1      23.302   4.842  48.435  1.00  0.00     0.051 C 
HETATM   15  C15 UNL     1      23.853   4.221  50.953  1.00  0.00     0.143 A 
HETATM   16  C16 UNL     1      23.819   3.126  51.722  1.00  0.00     0.109 A 
BRANCH  15  17
HETATM   17  O3  UNL     1      24.257   5.498  51.391  1.00  0.00    -0.197 OA
BRANCH  17  18
HETATM   18  O4  UNL     1      24.031   5.877  52.673  1.00  0.00    -0.245 OA
HETATM   19  H16 UNL     1      23.405   5.222  53.086  1.00  0.00     0.254 HD
ENDBRANCH  17  18
ENDBRANCH  15  17
BRANCH  16  20
HETATM   20  O5  UNL     1      24.169   3.049  53.058  1.00  0.00    -0.355 OA
HETATM   21  C17 UNL     1      25.401   2.507  53.501  1.00  0.00     0.209 C 
ENDBRANCH  16  20
ENDBRANCH   9  11
BRANCH   8  22
HETATM   22  O2  UNL     1      23.215  -0.156  52.834  1.00  0.00    -0.358 OA
HETATM   23  H10 UNL     1      24.061   0.383  52.885  1.00  0.00     0.214 HD
ENDBRANCH   8  22
BRANCH   1  24
HETATM   24  C2  UNL     1      16.510  -0.275  50.085  1.00  0.00    -0.014 C 
HETATM   25  C1  UNL     1      16.045  -0.833  48.986  1.00  0.00     0.032 C 
ENDBRANCH   1  24
BRANCH   6  26
HETATM   26  C9  UNL     1      16.517  -1.365  52.707  1.00  0.00     0.203 C 
BRANCH  26  27
HETATM   27  O1  UNL     1      15.716  -0.521  53.485  1.00  0.00    -0.396 OA
HETATM   28  H8  UNL     1      16.007  -0.446  54.418  1.00  0.00     0.209 HD
ENDBRANCH  26  27
ENDBRANCH   6  26
TORSDOF 8
ENDMDL
MODEL 6
REMARK VINA RESULT:      -6.9      5.760      9.939
REMARK  8 active torsions:
REMARK  status: ('A' for Active; 'I' for Inactive)
REMARK    1  A    between atoms: C2_2  and  C3_3 
REMARK    2  A    between atoms: C8_8  and  C9_9 
REMARK    3  A    between atoms: C9_9  and  O1_10 
REMARK    4  A    between atoms: C10_12  and  O2_13 
REMARK    5  A    between atoms: N2_14  and  C11_15 
REMARK    6  A    between atoms: C15_19  and  O3_20 
REMARK    7  A    between atoms: O3_20  and  O4_21 
REMARK    8  A    between atoms: C16_22  and  O5_23 
ROOT
HETATM    1  C3  UNL     1      27.739   5.511  48.669  1.00  0.00    -0.030 A 
HETATM    2  C4  UNL     1      28.975   5.197  48.153  1.00  0.00     0.027 A 
HETATM    3  C5  UNL     1      29.873   6.196  47.845  1.00  0.00     0.009 A 
HETATM    4  C6  UNL     1      29.491   7.502  48.071  1.00  0.00     0.068 A 
HETATM    5  C7  UNL     1      28.225   7.792  48.598  1.00  0.00     0.042 A 
HETATM    6  C8  UNL     1      27.308   6.792  48.913  1.00  0.00    -0.023 A 
HETATM    7  N1  UNL     1      30.201   8.551  47.834  1.00  0.00    -0.238 NA
HETATM    8  C10 UNL     1      31.515   8.419  47.285  1.00  0.00     0.352 A 
HETATM    9  N2  UNL     1      31.912   7.024  47.071  1.00  0.00    -0.332 N 
HETATM   10  C18 UNL     1      31.062   5.919  47.353  1.00  0.00     0.104 A 
ENDROOT
BRANCH   9  11
HETATM   11  C11 UNL     1      33.218   6.743  46.555  1.00  0.00     0.171 A 
HETATM   12  C12 UNL     1      33.867   5.583  47.212  1.00  0.00     0.015 A 
HETATM   13  C13 UNL     1      34.225   4.622  46.374  1.00  0.00    -0.024 A 
HETATM   14  C14 UNL     1      34.891   3.334  46.693  1.00  0.00     0.051 C 
HETATM   15  C15 UNL     1      33.815   5.110  45.045  1.00  0.00     0.143 A 
HETATM   16  C16 UNL     1      33.242   6.316  45.143  1.00  0.00     0.109 A 
BRANCH  15  17
HETATM   17  O3  UNL     1      34.001   4.404  43.840  1.00  0.00    -0.197 OA
BRANCH  17  18
HETATM   18  O4  UNL     1      33.300   4.757  42.734  1.00  0.00    -0.245 OA
HETATM   19  H16 UNL     1      33.879   5.338  42.170  1.00  0.00     0.254 HD
ENDBRANCH  17  18
ENDBRANCH  15  17
BRANCH  16  20
HETATM   20  O5  UNL     1      32.740   7.073  44.100  1.00  0.00    -0.355 OA
HETATM   21  C17 UNL     1      33.358   8.265  43.648  1.00  0.00     0.209 C 
ENDBRANCH  16  20
ENDBRANCH   9  11
BRANCH   8  22
HETATM   22  O2  UNL     1      32.427   8.944  48.203  1.00  0.00    -0.358 OA
HETATM   23  H10 UNL     1      32.554   9.897  47.909  1.00  0.00     0.214 HD
ENDBRANCH   8  22
BRANCH   1  24
HETATM   24  C2  UNL     1      26.787   4.461  48.995  1.00  0.00    -0.014 C 
HETATM   25  C1  UNL     1      26.642   3.397  49.756  1.00  0.00     0.032 C 
ENDBRANCH   1  24
BRANCH   6  26
HETATM   26  C9  UNL     1      25.985   7.144  49.466  1.00  0.00     0.203 C 
BRANCH  26  27
HETATM   27  O1  UNL     1      26.017   7.376  50.847  1.00  0.00    -0.396 OA
HETATM   28  H8  UNL     1      25.131   7.418  51.263  1.00  0.00     0.209 HD
ENDBRANCH  26  27
ENDBRANCH   6  26
TORSDOF 8
ENDMDL
MODEL 7
REMARK VINA RESULT:      -6.8      5.889      9.978
REMARK  8 active torsions:
REMARK  status: ('A' for Active; 'I' for Inactive)
REMARK    1  A    between atoms: C2_2  and  C3_3 
REMARK    2  A    between atoms: C8_8  and  C9_9 
REMARK    3  A    between atoms: C9_9  and  O1_10 
REMARK    4  A    between atoms: C10_12  and  O2_13 
REMARK    5  A    between atoms: N2_14  and  C11_15 
REMARK    6  A    between atoms: C15_19  and  O3_20 
REMARK    7  A    between atoms: O3_20  and  O4_21 
REMARK    8  A    between atoms: C16_22  and  O5_23 
ROOT
HETATM    1  C3  UNL     1      27.238   7.279  47.849  1.00  0.00    -0.030 A 
HETATM    2  C4  UNL     1      28.448   7.695  47.345  1.00  0.00     0.027 A 
HETATM    3  C5  UNL     1      29.555   6.878  47.431  1.00  0.00     0.009 A 
HETATM    4  C6  UNL     1      29.404   5.646  48.032  1.00  0.00     0.068 A 
HETATM    5  C7  UNL     1      28.158   5.248  48.537  1.00  0.00     0.042 A 
HETATM    6  C8  UNL     1      27.032   6.064  48.456  1.00  0.00    -0.023 A 
HETATM    7  N1  UNL     1      30.331   4.767  48.202  1.00  0.00    -0.238 NA
HETATM    8  C10 UNL     1      31.661   5.031  47.749  1.00  0.00     0.352 A 
HETATM    9  N2  UNL     1      31.798   6.335  47.094  1.00  0.00    -0.332 N 
HETATM   10  C18 UNL     1      30.722   7.255  46.955  1.00  0.00     0.104 A 
ENDROOT
BRANCH   9  11
HETATM   11  C11 UNL     1      33.073   6.717  46.563  1.00  0.00     0.171 A 
HETATM   12  C12 UNL     1      32.992   7.861  45.622  1.00  0.00     0.015 A 
HETATM   13  C13 UNL     1      33.744   8.895  45.969  1.00  0.00    -0.024 A 
HETATM   14  C14 UNL     1      33.898  10.191  45.260  1.00  0.00     0.051 C 
HETATM   15  C15 UNL     1      34.403   8.478  47.221  1.00  0.00     0.143 A 
HETATM   16  C16 UNL     1      34.023   7.241  47.563  1.00  0.00     0.109 A 
BRANCH  15  17
HETATM   17  O3  UNL     1      35.305   9.274  47.954  1.00  0.00    -0.197 OA
BRANCH  17  18
HETATM   18  O4  UNL     1      36.371   8.700  48.565  1.00  0.00    -0.245 OA
HETATM   19  H16 UNL     1      37.018   9.418  48.802  1.00  0.00     0.254 HD
ENDBRANCH  17  18
ENDBRANCH  15  17
BRANCH  16  20
HETATM   20  O5  UNL     1      34.440   6.532  48.674  1.00  0.00    -0.355 OA
HETATM   21  C17 UNL     1      35.187   5.331  48.586  1.00  0.00     0.209 C 
ENDBRANCH  16  20
ENDBRANCH   9  11
BRANCH   8  22
HETATM   22  O2  UNL     1      31.992   4.077  46.783  1.00  0.00    -0.358 OA
HETATM   23  H10 UNL     1      31.615   3.218  47.144  1.00  0.00     0.214 HD
ENDBRANCH   8  22
BRANCH   1  24
HETATM   24  C2  UNL     1      26.068   8.136  47.761  1.00  0.00    -0.014 C 
HETATM   25  C1  UNL     1      25.707   9.367  47.460  1.00  0.00     0.032 C 
ENDBRANCH   1  24
BRANCH   6  26
HETATM   26  C9  UNL     1      25.739   5.603  49.001  1.00  0.00     0.203 C 
BRANCH  26  27
HETATM   27  O1  UNL     1      25.696   5.635  50.400  1.00  0.00    -0.396 OA
HETATM   28  H8  UNL     1      26.137   6.416  50.793  1.00  0.00     0.209 HD
ENDBRANCH  26  27
ENDBRANCH   6  26
TORSDOF 8
ENDMDL
MODEL 8
REMARK VINA RESULT:      -6.7      3.172      4.759
REMARK  8 active torsions:
REMARK  status: ('A' for Active; 'I' for Inactive)
REMARK    1  A    between atoms: C2_2  and  C3_3 
REMARK    2  A    between atoms: C8_8  and  C9_9 
REMARK    3  A    between atoms: C9_9  and  O1_10 
REMARK    4  A    between atoms: C10_12  and  O2_13 
REMARK    5  A    between atoms: N2_14  and  C11_15 
REMARK    6  A    between atoms: C15_19  and  O3_20 
REMARK    7  A    between atoms: O3_20  and  O4_21 
REMARK    8  A    between atoms: C16_22  and  O5_23 
ROOT
HETATM    1  C3  UNL     1      27.710   6.553  48.579  1.00  0.00    -0.030 A 
HETATM    2  C4  UNL     1      26.718   5.609  48.710  1.00  0.00     0.027 A 
HETATM    3  C5  UNL     1      25.570   5.901  49.416  1.00  0.00     0.009 A 
HETATM    4  C6  UNL     1      25.457   7.156  49.976  1.00  0.00     0.068 A 
HETATM    5  C7  UNL     1      26.483   8.098  49.826  1.00  0.00     0.042 A 
HETATM    6  C8  UNL     1      27.649   7.816  49.116  1.00  0.00    -0.023 A 
HETATM    7  N1  UNL     1      24.461   7.588  50.669  1.00  0.00    -0.238 NA
HETATM    8  C10 UNL     1      23.337   6.739  50.918  1.00  0.00     0.352 A 
HETATM    9  N2  UNL     1      23.466   5.417  50.298  1.00  0.00    -0.332 N 
HETATM   10  C18 UNL     1      24.608   5.013  49.552  1.00  0.00     0.104 A 
ENDROOT
BRANCH   9  11
HETATM   11  C11 UNL     1      22.397   4.474  50.440  1.00  0.00     0.171 A 
HETATM   12  C12 UNL     1      22.067   3.773  49.176  1.00  0.00     0.015 A 
HETATM   13  C13 UNL     1      22.148   2.454  49.257  1.00  0.00    -0.024 A 
HETATM   14  C14 UNL     1      21.887   1.455  48.188  1.00  0.00     0.051 C 
HETATM   15  C15 UNL     1      22.556   2.186  50.648  1.00  0.00     0.143 A 
HETATM   16  C16 UNL     1      22.699   3.332  51.324  1.00  0.00     0.109 A 
BRANCH  15  17
HETATM   17  O3  UNL     1      22.765   0.902  51.188  1.00  0.00    -0.197 OA
BRANCH  17  18
HETATM   18  O4  UNL     1      22.238   0.581  52.396  1.00  0.00    -0.245 OA
HETATM   19  H16 UNL     1      21.326   0.211  52.249  1.00  0.00     0.254 HD
ENDBRANCH  17  18
ENDBRANCH  15  17
BRANCH  16  20
HETATM   20  O5  UNL     1      23.070   3.462  52.650  1.00  0.00    -0.355 OA
HETATM   21  C17 UNL     1      24.389   3.222  53.108  1.00  0.00     0.209 C 
ENDBRANCH  16  20
ENDBRANCH   9  11
BRANCH   8  22
HETATM   22  O2  UNL     1      22.208   7.328  50.344  1.00  0.00    -0.358 OA
HETATM   23  H10 UNL     1      22.576   7.901  49.605  1.00  0.00     0.214 HD
ENDBRANCH   8  22
BRANCH   1  24
HETATM   24  C2  UNL     1      28.922   6.251  47.837  1.00  0.00    -0.014 C 
HETATM   25  C1  UNL     1      30.011   5.512  47.890  1.00  0.00     0.032 C 
ENDBRANCH   1  24
BRANCH   6  26
HETATM   26  C9  UNL     1      28.705   8.839  48.983  1.00  0.00     0.203 C 
BRANCH  26  27
HETATM   27  O1  UNL     1      29.015   9.462  50.198  1.00  0.00    -0.396 OA
HETATM   28  H8  UNL     1      28.365  10.141  50.474  1.00  0.00     0.209 HD
ENDBRANCH  26  27
ENDBRANCH   6  26
TORSDOF 8
ENDMDL
MODEL 9
REMARK VINA RESULT:      -6.6      5.143      9.770
REMARK  8 active torsions:
REMARK  status: ('A' for Active; 'I' for Inactive)
REMARK    1  A    between atoms: C2_2  and  C3_3 
REMARK    2  A    between atoms: C8_8  and  C9_9 
REMARK    3  A    between atoms: C9_9  and  O1_10 
REMARK    4  A    between atoms: C10_12  and  O2_13 
REMARK    5  A    between atoms: N2_14  and  C11_15 
REMARK    6  A    between atoms: C15_19  and  O3_20 
REMARK    7  A    between atoms: O3_20  and  O4_21 
REMARK    8  A    between atoms: C16_22  and  O5_23 
ROOT
HETATM    1  C3  UNL     1      25.978   6.104  49.222  1.00  0.00    -0.030 A 
HETATM    2  C4  UNL     1      27.181   6.132  48.557  1.00  0.00     0.027 A 
HETATM    3  C5  UNL     1      28.005   7.233  48.659  1.00  0.00     0.009 A 
HETATM    4  C6  UNL     1      27.583   8.287  49.441  1.00  0.00     0.068 A 
HETATM    5  C7  UNL     1      26.351   8.230  50.107  1.00  0.00     0.042 A 
HETATM    6  C8  UNL     1      25.509   7.124  50.013  1.00  0.00    -0.023 A 
HETATM    7  N1  UNL     1      28.222   9.389  49.637  1.00  0.00    -0.238 NA
HETATM    8  C10 UNL     1      29.492   9.602  49.016  1.00  0.00     0.352 A 
HETATM    9  N2  UNL     1      29.935   8.463  48.206  1.00  0.00    -0.332 N 
HETATM   10  C18 UNL     1      29.162   7.282  48.032  1.00  0.00     0.104 A 
ENDROOT
BRANCH   9  11
HETATM   11  C11 UNL     1      31.207   8.528  47.550  1.00  0.00     0.171 A 
HETATM   12  C12 UNL     1      31.840   7.198  47.376  1.00  0.00     0.015 A 
HETATM   13  C13 UNL     1      32.126   6.900  46.117  1.00  0.00    -0.024 A 
HETATM   14  C14 UNL     1      32.757   5.663  45.592  1.00  0.00     0.051 C 
HETATM   15  C15 UNL     1      31.678   8.072  45.342  1.00  0.00     0.143 A 
HETATM   16  C16 UNL     1      31.155   9.000  46.153  1.00  0.00     0.109 A 
BRANCH  15  17
HETATM   17  O3  UNL     1      31.787   8.196  43.943  1.00  0.00    -0.197 OA
BRANCH  17  18
HETATM   18  O4  UNL     1      30.750   8.694  43.225  1.00  0.00    -0.245 OA
HETATM   19  H16 UNL     1      31.102   9.403  42.620  1.00  0.00     0.254 HD
ENDBRANCH  17  18
ENDBRANCH  15  17
BRANCH  16  20
HETATM   20  O5  UNL     1      30.637  10.224  45.773  1.00  0.00    -0.355 OA
HETATM   21  C17 UNL     1      31.231  11.458  46.138  1.00  0.00     0.209 C 
ENDBRANCH  16  20
ENDBRANCH   9  11
BRANCH   8  22
HETATM   22  O2  UNL     1      30.450   9.757  50.021  1.00  0.00    -0.358 OA
HETATM   23  H10 UNL     1      31.254   9.263  49.675  1.00  0.00     0.214 HD
ENDBRANCH   8  22
BRANCH   1  24
HETATM   24  C2  UNL     1      25.105   4.946  49.118  1.00  0.00    -0.014 C 
HETATM   25  C1  UNL     1      25.065   3.655  49.373  1.00  0.00     0.032 C 
ENDBRANCH   1  24
BRANCH   6  26
HETATM   26  C9  UNL     1      24.220   7.107  50.733  1.00  0.00     0.203 C 
BRANCH  26  27
HETATM   27  O1  UNL     1      24.365   6.848  52.101  1.00  0.00    -0.396 OA
HETATM   28  H8  UNL     1      24.322   5.896  52.332  1.00  0.00     0.209 HD
ENDBRANCH  26  27
ENDBRANCH   6  26
TORSDOF 8
ENDMDL
