MODEL 1
REMARK VINA RESULT:      -7.9      0.000      0.000
REMARK  4 active torsions:
REMARK  status: ('A' for Active; 'I' for Inactive)
REMARK    1  A    between atoms: C5_5  and  S1_6 
REMARK    2  A    between atoms: S1_6  and  N1_9 
REMARK       I    between atoms: N1_9  and  C6_10 
REMARK    3  A    between atoms: C6_10  and  C7_12 
REMARK    4  A    between atoms: C7_12  and  C8_13 
ROOT
HETATM    1  N1  UNL     1      23.179   1.661  51.308  1.00  0.00    -0.250 N 
HETATM    2  C6  UNL     1      23.745   1.841  52.601  1.00  0.00     0.235 C 
HETATM    3  O3  UNL     1      24.038   3.015  52.984  1.00  0.00    -0.272 OA
HETATM    4  H6  UNL     1      22.912   0.705  50.928  1.00  0.00     0.181 HD
ENDROOT
BRANCH   1   5
HETATM    5  S1  UNL     1      22.967   3.130  50.413  1.00  0.00     0.265 S 
HETATM    6  O1  UNL     1      22.051   2.822  49.262  1.00  0.00    -0.200 OA
HETATM    7  O2  UNL     1      22.328   4.098  51.378  1.00  0.00    -0.200 OA
BRANCH   5   8
HETATM    8  C5  UNL     1      24.481   3.790  49.852  1.00  0.00     0.080 A 
HETATM    9  C4  UNL     1      25.644   3.012  49.867  1.00  0.00     0.026 A 
HETATM   10  C3  UNL     1      26.825   3.569  49.415  1.00  0.00     0.008 A 
HETATM   11  C2  UNL     1      26.826   4.872  48.963  1.00  0.00    -0.062 A 
HETATM   12  C1  UNL     1      28.124   5.455  48.476  1.00  0.00     0.048 C 
HETATM   13  C15 UNL     1      25.691   5.664  48.937  1.00  0.00     0.008 A 
HETATM   14  C14 UNL     1      24.517   5.087  49.395  1.00  0.00     0.026 A 
ENDBRANCH   5   8
ENDBRANCH   1   5
BRANCH   2  15
HETATM   15  C7  UNL     1      23.957   0.615  53.433  1.00  0.00     0.142 C 
BRANCH  15  16
HETATM   16  C8  UNL     1      25.392   0.268  53.517  1.00  0.00    -0.049 A 
HETATM   17  C9  UNL     1      26.243   0.786  54.494  1.00  0.00     0.009 A 
HETATM   18  C10 UNL     1      27.586   0.453  54.563  1.00  0.00     0.019 A 
HETATM   19  C11 UNL     1      28.064  -0.429  53.610  1.00  0.00     0.011 A 
HETATM   20 BR1  UNL     1      29.890  -0.936  53.635  1.00  0.00    -0.051 Br
HETATM   21  C12 UNL     1      27.247  -0.972  52.614  1.00  0.00     0.019 A 
HETATM   22  C13 UNL     1      25.911  -0.620  52.573  1.00  0.00     0.009 A 
ENDBRANCH  15  16
ENDBRANCH   2  15
TORSDOF 4
ENDMDL
MODEL 2
REMARK VINA RESULT:      -7.9      0.414      1.130
REMARK  4 active torsions:
REMARK  status: ('A' for Active; 'I' for Inactive)
REMARK    1  A    between atoms: C5_5  and  S1_6 
REMARK    2  A    between atoms: S1_6  and  N1_9 
REMARK       I    between atoms: N1_9  and  C6_10 
REMARK    3  A    between atoms: C6_10  and  C7_12 
REMARK    4  A    between atoms: C7_12  and  C8_13 
ROOT
HETATM    1  N1  UNL     1      23.180   2.146  51.361  1.00  0.00    -0.250 N 
HETATM    2  C6  UNL     1      23.826   2.179  52.628  1.00  0.00     0.235 C 
HETATM    3  O3  UNL     1      24.256   3.289  53.068  1.00  0.00    -0.272 OA
HETATM    4  H6  UNL     1      22.798   1.250  50.936  1.00  0.00     0.181 HD
ENDROOT
BRANCH   1   5
HETATM    5  S1  UNL     1      23.074   3.687  50.576  1.00  0.00     0.265 S 
HETATM    6  O1  UNL     1      22.038   3.566  49.494  1.00  0.00    -0.200 OA
HETATM    7  O2  UNL     1      22.637   4.654  51.648  1.00  0.00    -0.200 OA
BRANCH   5   8
HETATM    8  C5  UNL     1      24.605   4.206  49.922  1.00  0.00     0.080 A 
HETATM    9  C4  UNL     1      24.780   5.523  49.481  1.00  0.00     0.026 A 
HETATM   10  C3  UNL     1      26.007   5.899  48.969  1.00  0.00     0.008 A 
HETATM   11  C2  UNL     1      27.024   4.969  48.907  1.00  0.00    -0.062 A 
HETATM   12  C1  UNL     1      28.351   5.402  48.346  1.00  0.00     0.048 C 
HETATM   13  C15 UNL     1      26.879   3.660  49.336  1.00  0.00     0.008 A 
HETATM   14  C14 UNL     1      25.641   3.305  49.845  1.00  0.00     0.026 A 
ENDBRANCH   5   8
ENDBRANCH   1   5
BRANCH   2  15
HETATM   15  C7  UNL     1      23.953   0.883  53.365  1.00  0.00     0.142 C 
BRANCH  15  16
HETATM   16  C8  UNL     1      25.368   0.464  53.471  1.00  0.00    -0.049 A 
HETATM   17  C9  UNL     1      26.123   0.625  54.633  1.00  0.00     0.009 A 
HETATM   18  C10 UNL     1      27.448   0.229  54.720  1.00  0.00     0.019 A 
HETATM   19  C11 UNL     1      28.007  -0.344  53.592  1.00  0.00     0.011 A 
HETATM   20 BR1  UNL     1      29.815  -0.913  53.628  1.00  0.00    -0.051 Br
HETATM   21  C12 UNL     1      27.287  -0.524  52.407  1.00  0.00     0.019 A 
HETATM   22  C13 UNL     1      25.967  -0.118  52.353  1.00  0.00     0.009 A 
ENDBRANCH  15  16
ENDBRANCH   2  15
TORSDOF 4
ENDMDL
MODEL 3
REMARK VINA RESULT:      -7.7      3.210      6.765
REMARK  4 active torsions:
REMARK  status: ('A' for Active; 'I' for Inactive)
REMARK    1  A    between atoms: C5_5  and  S1_6 
REMARK    2  A    between atoms: S1_6  and  N1_9 
REMARK       I    between atoms: N1_9  and  C6_10 
REMARK    3  A    between atoms: C6_10  and  C7_12 
REMARK    4  A    between atoms: C7_12  and  C8_13 
ROOT
HETATM    1  N1  UNL     1      24.942   2.163  51.351  1.00  0.00    -0.250 N 
HETATM    2  C6  UNL     1      26.092   2.748  50.750  1.00  0.00     0.235 C 
HETATM    3  O3  UNL     1      27.160   2.838  51.430  1.00  0.00    -0.272 OA
HETATM    4  H6  UNL     1      24.018   2.059  50.837  1.00  0.00     0.181 HD
ENDROOT
BRANCH   1   5
HETATM    5  S1  UNL     1      25.181   1.642  52.987  1.00  0.00     0.265 S 
HETATM    6  O1  UNL     1      25.422   2.873  53.815  1.00  0.00    -0.200 OA
HETATM    7  O2  UNL     1      23.895   0.959  53.381  1.00  0.00    -0.200 OA
BRANCH   5   8
HETATM    8  C5  UNL     1      26.503   0.515  53.138  1.00  0.00     0.080 A 
HETATM    9  C4  UNL     1      27.629   0.839  53.904  1.00  0.00     0.026 A 
HETATM   10  C3  UNL     1      28.657  -0.078  54.001  1.00  0.00     0.008 A 
HETATM   11  C2  UNL     1      28.546  -1.286  53.344  1.00  0.00    -0.062 A 
HETATM   12  C1  UNL     1      29.678  -2.269  53.465  1.00  0.00     0.048 C 
HETATM   13  C15 UNL     1      27.445  -1.633  52.581  1.00  0.00     0.008 A 
HETATM   14  C14 UNL     1      26.426  -0.699  52.496  1.00  0.00     0.026 A 
ENDBRANCH   5   8
ENDBRANCH   1   5
BRANCH   2  15
HETATM   15  C7  UNL     1      25.959   3.222  49.336  1.00  0.00     0.142 C 
BRANCH  15  16
HETATM   16  C8  UNL     1      26.428   4.617  49.194  1.00  0.00    -0.049 A 
HETATM   17  C9  UNL     1      27.628   4.955  48.566  1.00  0.00     0.009 A 
HETATM   18  C10 UNL     1      28.056   6.267  48.439  1.00  0.00     0.019 A 
HETATM   19  C11 UNL     1      27.237   7.249  48.965  1.00  0.00     0.011 A 
HETATM   20 BR1  UNL     1      27.751   9.068  48.832  1.00  0.00    -0.051 Br
HETATM   21  C12 UNL     1      26.027   6.954  49.601  1.00  0.00     0.019 A 
HETATM   22  C13 UNL     1      25.628   5.636  49.713  1.00  0.00     0.009 A 
ENDBRANCH  15  16
ENDBRANCH   2  15
TORSDOF 4
ENDMDL
MODEL 4
REMARK VINA RESULT:      -7.2      2.940      6.509
REMARK  4 active torsions:
REMARK  status: ('A' for Active; 'I' for Inactive)
REMARK    1  A    between atoms: C5_5  and  S1_6 
REMARK    2  A    between atoms: S1_6  and  N1_9 
REMARK       I    between atoms: N1_9  and  C6_10 
REMARK    3  A    between atoms: C6_10  and  C7_12 
REMARK    4  A    between atoms: C7_12  and  C8_13 
ROOT
HETATM    1  N1  UNL     1      25.128   2.797  50.879  1.00  0.00    -0.250 N 
HETATM    2  C6  UNL     1      23.946   3.471  50.463  1.00  0.00     0.235 C 
HETATM    3  O3  UNL     1      22.895   3.356  51.165  1.00  0.00    -0.272 OA
HETATM    4  H6  UNL     1      26.040   2.852  50.337  1.00  0.00     0.181 HD
ENDROOT
BRANCH   1   5
HETATM    5  S1  UNL     1      24.947   1.880  52.339  1.00  0.00     0.265 S 
HETATM    6  O1  UNL     1      24.586   2.848  53.431  1.00  0.00    -0.200 OA
HETATM    7  O2  UNL     1      23.821   0.913  52.068  1.00  0.00    -0.200 OA
BRANCH   5   8
HETATM    8  C5  UNL     1      26.389   0.987  52.745  1.00  0.00     0.080 A 
HETATM    9  C4  UNL     1      26.408  -0.410  52.655  1.00  0.00     0.026 A 
HETATM   10  C3  UNL     1      27.568  -1.084  52.985  1.00  0.00     0.008 A 
HETATM   11  C2  UNL     1      28.673  -0.366  53.392  1.00  0.00    -0.062 A 
HETATM   12  C1  UNL     1      29.924  -1.123  53.745  1.00  0.00     0.048 C 
HETATM   13  C15 UNL     1      28.682   1.015  53.490  1.00  0.00     0.008 A 
HETATM   14  C14 UNL     1      27.509   1.672  53.155  1.00  0.00     0.026 A 
ENDBRANCH   5   8
ENDBRANCH   1   5
BRANCH   2  15
HETATM   15  C7  UNL     1      24.027   4.284  49.209  1.00  0.00     0.142 C 
BRANCH  15  16
HETATM   16  C8  UNL     1      24.834   5.506  49.415  1.00  0.00    -0.049 A 
HETATM   17  C9  UNL     1      24.431   6.551  50.248  1.00  0.00     0.009 A 
HETATM   18  C10 UNL     1      25.196   7.691  50.433  1.00  0.00     0.019 A 
HETATM   19  C11 UNL     1      26.398   7.759  49.751  1.00  0.00     0.011 A 
HETATM   20 BR1  UNL     1      27.503   9.285  49.951  1.00  0.00    -0.051 Br
HETATM   21  C12 UNL     1      26.840   6.735  48.908  1.00  0.00     0.019 A 
HETATM   22  C13 UNL     1      26.054   5.611  48.744  1.00  0.00     0.009 A 
ENDBRANCH  15  16
ENDBRANCH   2  15
TORSDOF 4
ENDMDL
MODEL 5
REMARK VINA RESULT:      -7.2      1.710      2.496
REMARK  4 active torsions:
REMARK  status: ('A' for Active; 'I' for Inactive)
REMARK    1  A    between atoms: C5_5  and  S1_6 
REMARK    2  A    between atoms: S1_6  and  N1_9 
REMARK       I    between atoms: N1_9  and  C6_10 
REMARK    3  A    between atoms: C6_10  and  C7_12 
REMARK    4  A    between atoms: C7_12  and  C8_13 
ROOT
HETATM    1  N1  UNL     1      23.273   3.603  50.735  1.00  0.00    -0.250 N 
HETATM    2  C6  UNL     1      23.680   4.249  51.935  1.00  0.00     0.235 C 
HETATM    3  O3  UNL     1      24.059   5.459  51.883  1.00  0.00    -0.272 OA
HETATM    4  H6  UNL     1      22.946   2.592  50.711  1.00  0.00     0.181 HD
ENDROOT
BRANCH   1   5
HETATM    5  S1  UNL     1      23.361   4.605  49.323  1.00  0.00     0.265 S 
HETATM    6  O1  UNL     1      22.784   3.816  48.181  1.00  0.00    -0.200 OA
HETATM    7  O2  UNL     1      22.515   5.814  49.637  1.00  0.00    -0.200 OA
BRANCH   5   8
HETATM    8  C5  UNL     1      24.990   5.117  48.972  1.00  0.00     0.080 A 
HETATM    9  C4  UNL     1      25.243   6.410  48.500  1.00  0.00     0.026 A 
HETATM   10  C3  UNL     1      26.546   6.781  48.232  1.00  0.00     0.008 A 
HETATM   11  C2  UNL     1      27.561   5.870  48.438  1.00  0.00    -0.062 A 
HETATM   12  C1  UNL     1      28.972   6.298  48.140  1.00  0.00     0.048 C 
HETATM   13  C15 UNL     1      27.341   4.586  48.905  1.00  0.00     0.008 A 
HETATM   14  C14 UNL     1      26.027   4.234  49.166  1.00  0.00     0.026 A 
ENDBRANCH   5   8
ENDBRANCH   1   5
BRANCH   2  15
HETATM   15  C7  UNL     1      23.630   3.444  53.197  1.00  0.00     0.142 C 
BRANCH  15  16
HETATM   16  C8  UNL     1      24.377   2.177  53.052  1.00  0.00    -0.049 A 
HETATM   17  C9  UNL     1      23.787   0.923  53.222  1.00  0.00     0.009 A 
HETATM   18  C10 UNL     1      24.498  -0.258  53.083  1.00  0.00     0.019 A 
HETATM   19  C11 UNL     1      25.840  -0.150  52.763  1.00  0.00     0.011 A 
HETATM   20 BR1  UNL     1      26.882  -1.719  52.555  1.00  0.00    -0.051 Br
HETATM   21  C12 UNL     1      26.470   1.085  52.583  1.00  0.00     0.019 A 
HETATM   22  C13 UNL     1      25.734   2.245  52.729  1.00  0.00     0.009 A 
ENDBRANCH  15  16
ENDBRANCH   2  15
TORSDOF 4
ENDMDL
MODEL 6
REMARK VINA RESULT:      -7.2      3.470      7.234
REMARK  4 active torsions:
REMARK  status: ('A' for Active; 'I' for Inactive)
REMARK    1  A    between atoms: C5_5  and  S1_6 
REMARK    2  A    between atoms: S1_6  and  N1_9 
REMARK       I    between atoms: N1_9  and  C6_10 
REMARK    3  A    between atoms: C6_10  and  C7_12 
REMARK    4  A    between atoms: C7_12  and  C8_13 
ROOT
HETATM    1  N1  UNL     1      24.754   2.703  50.905  1.00  0.00    -0.250 N 
HETATM    2  C6  UNL     1      25.786   3.409  50.226  1.00  0.00     0.235 C 
HETATM    3  O3  UNL     1      26.988   3.247  50.599  1.00  0.00    -0.272 OA
HETATM    4  H6  UNL     1      23.728   2.795  50.642  1.00  0.00     0.181 HD
ENDROOT
BRANCH   1   5
HETATM    5  S1  UNL     1      25.315   1.687  52.193  1.00  0.00     0.265 S 
HETATM    6  O1  UNL     1      26.443   0.858  51.646  1.00  0.00    -0.200 OA
HETATM    7  O2  UNL     1      25.799   2.632  53.266  1.00  0.00    -0.200 OA
BRANCH   5   8
HETATM    8  C5  UNL     1      24.050   0.678  52.842  1.00  0.00     0.080 A 
HETATM    9  C4  UNL     1      24.321  -0.222  53.879  1.00  0.00     0.026 A 
HETATM   10  C3  UNL     1      23.294  -1.007  54.368  1.00  0.00     0.008 A 
HETATM   11  C2  UNL     1      22.033  -0.882  53.823  1.00  0.00    -0.062 A 
HETATM   12  C1  UNL     1      20.931  -1.746  54.372  1.00  0.00     0.048 C 
HETATM   13  C15 UNL     1      21.737  -0.000  52.797  1.00  0.00     0.008 A 
HETATM   14  C14 UNL     1      22.781   0.776  52.321  1.00  0.00     0.026 A 
ENDBRANCH   5   8
ENDBRANCH   1   5
BRANCH   2  15
HETATM   15  C7  UNL     1      25.375   4.307  49.101  1.00  0.00     0.142 C 
BRANCH  15  16
HETATM   16  C8  UNL     1      26.086   5.602  49.164  1.00  0.00    -0.049 A 
HETATM   17  C9  UNL     1      27.244   5.870  48.433  1.00  0.00     0.009 A 
HETATM   18  C10 UNL     1      27.901   7.089  48.501  1.00  0.00     0.019 A 
HETATM   19  C11 UNL     1      27.357   8.050  49.334  1.00  0.00     0.011 A 
HETATM   20 BR1  UNL     1      28.195   9.743  49.483  1.00  0.00    -0.051 Br
HETATM   21  C12 UNL     1      26.199   7.823  50.084  1.00  0.00     0.019 A 
HETATM   22  C13 UNL     1      25.567   6.597  49.994  1.00  0.00     0.009 A 
ENDBRANCH  15  16
ENDBRANCH   2  15
TORSDOF 4
ENDMDL
MODEL 7
REMARK VINA RESULT:      -7.1      3.142      4.122
REMARK  4 active torsions:
REMARK  status: ('A' for Active; 'I' for Inactive)
REMARK    1  A    between atoms: C5_5  and  S1_6 
REMARK    2  A    between atoms: S1_6  and  N1_9 
REMARK       I    between atoms: N1_9  and  C6_10 
REMARK    3  A    between atoms: C6_10  and  C7_12 
REMARK    4  A    between atoms: C7_12  and  C8_13 
ROOT
HETATM    1  N1  UNL     1      24.042   3.690  49.210  1.00  0.00    -0.250 N 
HETATM    2  C6  UNL     1      22.708   3.376  49.593  1.00  0.00     0.235 C 
HETATM    3  O3  UNL     1      21.963   4.303  50.036  1.00  0.00    -0.272 OA
HETATM    4  H6  UNL     1      24.716   2.961  48.833  1.00  0.00     0.181 HD
ENDROOT
BRANCH   1   5
HETATM    5  S1  UNL     1      24.468   5.358  49.416  1.00  0.00     0.265 S 
HETATM    6  O1  UNL     1      23.457   6.172  48.658  1.00  0.00    -0.200 OA
HETATM    7  O2  UNL     1      24.376   5.614  50.900  1.00  0.00    -0.200 OA
BRANCH   5   8
HETATM    8  C5  UNL     1      26.088   5.702  48.871  1.00  0.00     0.080 A 
HETATM    9  C4  UNL     1      27.078   4.713  48.914  1.00  0.00     0.026 A 
HETATM   10  C3  UNL     1      28.350   5.022  48.474  1.00  0.00     0.008 A 
HETATM   11  C2  UNL     1      28.611   6.292  48.004  1.00  0.00    -0.062 A 
HETATM   12  C1  UNL     1      30.003   6.604  47.530  1.00  0.00     0.048 C 
HETATM   13  C15 UNL     1      27.651   7.289  47.949  1.00  0.00     0.008 A 
HETATM   14  C14 UNL     1      26.382   6.959  48.396  1.00  0.00     0.026 A 
ENDBRANCH   5   8
ENDBRANCH   1   5
BRANCH   2  15
HETATM   15  C7  UNL     1      22.270   1.953  49.442  1.00  0.00     0.142 C 
BRANCH  15  16
HETATM   16  C8  UNL     1      22.226   1.266  50.751  1.00  0.00    -0.049 A 
HETATM   17  C9  UNL     1      23.270   1.325  51.675  1.00  0.00     0.009 A 
HETATM   18  C10 UNL     1      23.217   0.676  52.898  1.00  0.00     0.019 A 
HETATM   19  C11 UNL     1      22.070  -0.044  53.178  1.00  0.00     0.011 A 
HETATM   20 BR1  UNL     1      21.918  -0.960  54.830  1.00  0.00    -0.051 Br
HETATM   21  C12 UNL     1      21.000  -0.129  52.281  1.00  0.00     0.019 A 
HETATM   22  C13 UNL     1      21.084   0.529  51.069  1.00  0.00     0.009 A 
ENDBRANCH  15  16
ENDBRANCH   2  15
TORSDOF 4
ENDMDL
MODEL 8
REMARK VINA RESULT:      -7.0      2.780      3.698
REMARK  4 active torsions:
REMARK  status: ('A' for Active; 'I' for Inactive)
REMARK    1  A    between atoms: C5_5  and  S1_6 
REMARK    2  A    between atoms: S1_6  and  N1_9 
REMARK       I    between atoms: N1_9  and  C6_10 
REMARK    3  A    between atoms: C6_10  and  C7_12 
REMARK    4  A    between atoms: C7_12  and  C8_13 
ROOT
HETATM    1  N1  UNL     1      25.903   4.132  50.995  1.00  0.00    -0.250 N 
HETATM    2  C6  UNL     1      26.311   2.835  50.575  1.00  0.00     0.235 C 
HETATM    3  O3  UNL     1      26.270   2.550  49.339  1.00  0.00    -0.272 OA
HETATM    4  H6  UNL     1      25.913   4.434  52.014  1.00  0.00     0.181 HD
ENDROOT
BRANCH   1   5
HETATM    5  S1  UNL     1      25.389   5.169  49.705  1.00  0.00     0.265 S 
HETATM    6  O1  UNL     1      24.508   4.352  48.801  1.00  0.00    -0.200 OA
HETATM    7  O2  UNL     1      24.613   6.280  50.368  1.00  0.00    -0.200 OA
BRANCH   5   8
HETATM    8  C5  UNL     1      26.731   5.849  48.824  1.00  0.00     0.080 A 
HETATM    9  C4  UNL     1      27.927   5.134  48.688  1.00  0.00     0.026 A 
HETATM   10  C3  UNL     1      28.970   5.705  47.984  1.00  0.00     0.008 A 
HETATM   11  C2  UNL     1      28.805   6.959  47.435  1.00  0.00    -0.062 A 
HETATM   12  C1  UNL     1      29.954   7.559  46.672  1.00  0.00     0.048 C 
HETATM   13  C15 UNL     1      27.634   7.688  47.554  1.00  0.00     0.008 A 
HETATM   14  C14 UNL     1      26.601   7.098  48.264  1.00  0.00     0.026 A 
ENDBRANCH   5   8
ENDBRANCH   1   5
BRANCH   2  15
HETATM   15  C7  UNL     1      26.768   1.884  51.637  1.00  0.00     0.142 C 
BRANCH  15  16
HETATM   16  C8  UNL     1      25.623   1.183  52.256  1.00  0.00    -0.049 A 
HETATM   17  C9  UNL     1      24.297   1.426  51.893  1.00  0.00     0.009 A 
HETATM   18  C10 UNL     1      23.233   0.762  52.481  1.00  0.00     0.019 A 
HETATM   19  C11 UNL     1      23.535  -0.170  53.458  1.00  0.00     0.011 A 
HETATM   20 BR1  UNL     1      22.135  -1.121  54.310  1.00  0.00    -0.051 Br
HETATM   21  C12 UNL     1      24.849  -0.444  53.851  1.00  0.00     0.019 A 
HETATM   22  C13 UNL     1      25.889   0.235  53.246  1.00  0.00     0.009 A 
ENDBRANCH  15  16
ENDBRANCH   2  15
TORSDOF 4
ENDMDL
MODEL 9
REMARK VINA RESULT:      -6.8      3.540      4.518
REMARK  4 active torsions:
REMARK  status: ('A' for Active; 'I' for Inactive)
REMARK    1  A    between atoms: C5_5  and  S1_6 
REMARK    2  A    between atoms: S1_6  and  N1_9 
REMARK       I    between atoms: N1_9  and  C6_10 
REMARK    3  A    between atoms: C6_10  and  C7_12 
REMARK    4  A    between atoms: C7_12  and  C8_13 
ROOT
HETATM    1  N1  UNL     1      23.297   3.653  51.974  1.00  0.00    -0.250 N 
HETATM    2  C6  UNL     1      23.264   2.242  51.791  1.00  0.00     0.235 C 
HETATM    3  O3  UNL     1      23.210   1.779  50.611  1.00  0.00    -0.272 OA
HETATM    4  H6  UNL     1      23.342   4.104  52.935  1.00  0.00     0.181 HD
ENDROOT
BRANCH   1   5
HETATM    5  S1  UNL     1      23.255   4.563  50.500  1.00  0.00     0.265 S 
HETATM    6  O1  UNL     1      22.371   3.817  49.541  1.00  0.00    -0.200 OA
HETATM    7  O2  UNL     1      22.657   5.898  50.871  1.00  0.00    -0.200 OA
BRANCH   5   8
HETATM    8  C5  UNL     1      24.844   4.810  49.826  1.00  0.00     0.080 A 
HETATM    9  C4  UNL     1      25.212   6.060  49.312  1.00  0.00     0.026 A 
HETATM   10  C3  UNL     1      26.479   6.218  48.786  1.00  0.00     0.008 A 
HETATM   11  C2  UNL     1      27.346   5.146  48.783  1.00  0.00    -0.062 A 
HETATM   12  C1  UNL     1      28.721   5.343  48.205  1.00  0.00     0.048 C 
HETATM   13  C15 UNL     1      27.010   3.900  49.285  1.00  0.00     0.008 A 
HETATM   14  C14 UNL     1      25.734   3.762  49.807  1.00  0.00     0.026 A 
ENDBRANCH   5   8
ENDBRANCH   1   5
BRANCH   2  15
HETATM   15  C7  UNL     1      23.297   1.391  53.021  1.00  0.00     0.142 C 
BRANCH  15  16
HETATM   16  C8  UNL     1      22.050   0.610  53.165  1.00  0.00    -0.049 A 
HETATM   17  C9  UNL     1      21.976  -0.575  53.899  1.00  0.00     0.009 A 
HETATM   18  C10 UNL     1      20.801  -1.298  54.026  1.00  0.00     0.019 A 
HETATM   19  C11 UNL     1      19.681  -0.795  53.389  1.00  0.00     0.011 A 
HETATM   20 BR1  UNL     1      18.035  -1.725  53.514  1.00  0.00    -0.051 Br
HETATM   21  C12 UNL     1      19.711   0.388  52.644  1.00  0.00     0.019 A 
HETATM   22  C13 UNL     1      20.898   1.086  52.536  1.00  0.00     0.009 A 
ENDBRANCH  15  16
ENDBRANCH   2  15
TORSDOF 4
ENDMDL
