MODEL 1
REMARK VINA RESULT:      -6.9      0.000      0.000
REMARK  4 active torsions:
REMARK  status: ('A' for Active; 'I' for Inactive)
REMARK    1  A    between atoms: N1_1  and  C1_2 
REMARK    2  A    between atoms: C1_2  and  O1_3 
REMARK    3  A    between atoms: O1_3  and  C2_4 
REMARK    4  A    between atoms: C4_6  and  C5_7 
ROOT
HETATM    1  C2  UNL     1      23.956   4.454  50.941  1.00  0.00     0.072 C 
HETATM    2  C3  UNL     1      23.764   3.328  50.229  1.00  0.00     0.051 C 
HETATM    3  C4  UNL     1      22.691   2.441  50.652  1.00  0.00     0.132 A 
HETATM    4  N2  UNL     1      22.403   1.568  49.493  1.00  0.00    -0.258 NA
HETATM    5  C11 UNL     1      21.263   1.383  48.989  1.00  0.00     0.228 A 
HETATM    6  N3  UNL     1      20.025   1.958  49.396  1.00  0.00    -0.254 NA
HETATM    7  C12 UNL     1      20.110   2.779  50.397  1.00  0.00     0.130 A 
HETATM    8  C13 UNL     1      21.422   3.074  51.026  1.00  0.00     0.020 A 
HETATM    9  C14 UNL     1      21.142   4.055  51.907  1.00  0.00     0.147 C 
HETATM   10  O2  UNL     1      22.232   4.590  52.605  1.00  0.00    -0.356 OA
HETATM   11  C15 UNL     1      23.415   5.195  52.116  1.00  0.00     0.238 C 
ENDROOT
BRANCH   3  12
HETATM   12  C5  UNL     1      23.172   1.450  51.688  1.00  0.00    -0.018 A 
HETATM   13  C6  UNL     1      24.546   1.259  51.898  1.00  0.00     0.010 A 
HETATM   14  C7  UNL     1      25.147   0.408  52.798  1.00  0.00     0.002 A 
HETATM   15  C8  UNL     1      24.281  -0.333  53.574  1.00  0.00     0.019 A 
HETATM   16  C9  UNL     1      22.923  -0.214  53.440  1.00  0.00     0.011 A 
HETATM   17 BR1  UNL     1      21.741  -1.243  54.517  1.00  0.00    -0.051 Br
HETATM   18  C10 UNL     1      22.417   0.659  52.516  1.00  0.00     0.029 A 
ENDBRANCH   3  12
BRANCH   1  19
HETATM   19  O1  UNL     1      25.011   5.232  50.451  1.00  0.00    -0.324 OA
BRANCH  19  20
HETATM   20  C1  UNL     1      24.943   6.612  50.221  1.00  0.00     0.441 C 
BRANCH  20  21
HETATM   21  N1  UNL     1      26.072   7.340  50.811  1.00  0.00     0.101 N 
HETATM   22  H1  UNL     1      25.823   7.809  51.695  1.00  0.00     0.315 HD
HETATM   23  H2  UNL     1      26.481   8.008  50.099  1.00  0.00     0.315 HD
ENDBRANCH  20  21
ENDBRANCH  19  20
ENDBRANCH   1  19
TORSDOF 4
ENDMDL
MODEL 2
REMARK VINA RESULT:      -6.4      2.134      2.642
REMARK  4 active torsions:
REMARK  status: ('A' for Active; 'I' for Inactive)
REMARK    1  A    between atoms: N1_1  and  C1_2 
REMARK    2  A    between atoms: C1_2  and  O1_3 
REMARK    3  A    between atoms: O1_3  and  C2_4 
REMARK    4  A    between atoms: C4_6  and  C5_7 
ROOT
HETATM    1  C2  UNL     1      24.176   2.765  51.839  1.00  0.00     0.072 C 
HETATM    2  C3  UNL     1      23.668   1.805  51.043  1.00  0.00     0.051 C 
HETATM    3  C4  UNL     1      22.219   1.714  50.942  1.00  0.00     0.132 A 
HETATM    4  N2  UNL     1      21.945   0.935  49.715  1.00  0.00    -0.258 NA
HETATM    5  C11 UNL     1      21.175   1.295  48.783  1.00  0.00     0.228 A 
HETATM    6  N3  UNL     1      20.422   2.500  48.690  1.00  0.00    -0.254 NA
HETATM    7  C12 UNL     1      20.574   3.315  49.689  1.00  0.00     0.130 A 
HETATM    8  C13 UNL     1      21.487   2.977  50.810  1.00  0.00     0.020 A 
HETATM    9  C14 UNL     1      21.499   4.096  51.562  1.00  0.00     0.147 C 
HETATM   10  O2  UNL     1      22.354   4.087  52.671  1.00  0.00    -0.356 OA
HETATM   11  C15 UNL     1      23.752   3.876  52.739  1.00  0.00     0.238 C 
ENDROOT
BRANCH   3  12
HETATM   12  C5  UNL     1      21.648   0.822  52.022  1.00  0.00    -0.018 A 
HETATM   13  C6  UNL     1      22.451   0.411  53.097  1.00  0.00     0.010 A 
HETATM   14  C7  UNL     1      22.088  -0.389  54.157  1.00  0.00     0.002 A 
HETATM   15  C8  UNL     1      20.780  -0.824  54.144  1.00  0.00     0.019 A 
HETATM   16  C9  UNL     1      19.921  -0.474  53.136  1.00  0.00     0.011 A 
HETATM   17 BR1  UNL     1      18.119  -1.082  53.131  1.00  0.00    -0.051 Br
HETATM   18  C10 UNL     1      20.373   0.326  52.122  1.00  0.00     0.029 A 
ENDBRANCH   3  12
BRANCH   1  19
HETATM   19  O1  UNL     1      25.574   2.764  51.865  1.00  0.00    -0.324 OA
BRANCH  19  20
HETATM   20  C1  UNL     1      26.356   1.913  52.658  1.00  0.00     0.441 C 
BRANCH  20  21
HETATM   21  N1  UNL     1      26.911   2.590  53.836  1.00  0.00     0.101 N 
HETATM   22  H1  UNL     1      26.997   1.962  54.650  1.00  0.00     0.315 HD
HETATM   23  H2  UNL     1      26.344   3.458  54.051  1.00  0.00     0.315 HD
ENDBRANCH  20  21
ENDBRANCH  19  20
ENDBRANCH   1  19
TORSDOF 4
ENDMDL
MODEL 3
REMARK VINA RESULT:      -6.4      1.686      2.118
REMARK  4 active torsions:
REMARK  status: ('A' for Active; 'I' for Inactive)
REMARK    1  A    between atoms: N1_1  and  C1_2 
REMARK    2  A    between atoms: C1_2  and  O1_3 
REMARK    3  A    between atoms: O1_3  and  C2_4 
REMARK    4  A    between atoms: C4_6  and  C5_7 
ROOT
HETATM    1  C2  UNL     1      23.663   3.105  50.596  1.00  0.00     0.072 C 
HETATM    2  C3  UNL     1      22.899   2.042  50.280  1.00  0.00     0.051 C 
HETATM    3  C4  UNL     1      21.775   1.739  51.154  1.00  0.00     0.132 A 
HETATM    4  N2  UNL     1      20.874   0.866  50.370  1.00  0.00    -0.258 NA
HETATM    5  C11 UNL     1      19.641   1.063  50.198  1.00  0.00     0.228 A 
HETATM    6  N3  UNL     1      18.852   2.142  50.691  1.00  0.00    -0.254 NA
HETATM    7  C12 UNL     1      19.508   3.021  51.386  1.00  0.00     0.130 A 
HETATM    8  C13 UNL     1      20.968   2.876  51.607  1.00  0.00     0.020 A 
HETATM    9  C14 UNL     1      21.314   4.023  52.225  1.00  0.00     0.147 C 
HETATM   10  O2  UNL     1      22.678   4.195  52.494  1.00  0.00    -0.356 OA
HETATM   11  C15 UNL     1      23.785   4.190  51.612  1.00  0.00     0.238 C 
ENDROOT
BRANCH   3  12
HETATM   12  C5  UNL     1      22.191   0.833  52.291  1.00  0.00    -0.018 A 
HETATM   13  C6  UNL     1      21.218   0.188  53.071  1.00  0.00     0.010 A 
HETATM   14  C7  UNL     1      21.424  -0.668  54.130  1.00  0.00     0.002 A 
HETATM   15  C8  UNL     1      22.745  -0.906  54.444  1.00  0.00     0.019 A 
HETATM   16  C9  UNL     1      23.764  -0.321  53.739  1.00  0.00     0.011 A 
HETATM   17 BR1  UNL     1      25.581  -0.658  54.183  1.00  0.00    -0.051 Br
HETATM   18  C10 UNL     1      23.461   0.518  52.700  1.00  0.00     0.029 A 
ENDBRANCH   3  12
BRANCH   1  19
HETATM   19  O1  UNL     1      24.713   3.305  49.694  1.00  0.00    -0.324 OA
BRANCH  19  20
HETATM   20  C1  UNL     1      25.451   4.490  49.581  1.00  0.00     0.441 C 
BRANCH  20  21
HETATM   21  N1  UNL     1      26.892   4.277  49.754  1.00  0.00     0.101 N 
HETATM   22  H1  UNL     1      27.200   4.424  50.728  1.00  0.00     0.315 HD
HETATM   23  H2  UNL     1      27.429   4.875  49.065  1.00  0.00     0.315 HD
ENDBRANCH  20  21
ENDBRANCH  19  20
ENDBRANCH   1  19
TORSDOF 4
ENDMDL
MODEL 4
REMARK VINA RESULT:      -6.3      2.571      4.225
REMARK  4 active torsions:
REMARK  status: ('A' for Active; 'I' for Inactive)
REMARK    1  A    between atoms: N1_1  and  C1_2 
REMARK    2  A    between atoms: C1_2  and  O1_3 
REMARK    3  A    between atoms: O1_3  and  C2_4 
REMARK    4  A    between atoms: C4_6  and  C5_7 
ROOT
HETATM    1  C2  UNL     1      25.930   2.752  51.688  1.00  0.00     0.072 C 
HETATM    2  C3  UNL     1      25.670   3.285  50.480  1.00  0.00     0.051 C 
HETATM    3  C4  UNL     1      24.376   3.922  50.290  1.00  0.00     0.132 A 
HETATM    4  N2  UNL     1      24.520   4.790  49.101  1.00  0.00    -0.258 NA
HETATM    5  C11 UNL     1      24.221   6.014  49.054  1.00  0.00     0.228 A 
HETATM    6  N3  UNL     1      23.702   6.826  50.103  1.00  0.00    -0.254 NA
HETATM    7  C12 UNL     1      23.540   6.213  51.236  1.00  0.00     0.130 A 
HETATM    8  C13 UNL     1      23.898   4.780  51.380  1.00  0.00     0.020 A 
HETATM    9  C14 UNL     1      23.739   4.540  52.696  1.00  0.00     0.147 C 
HETATM   10  O2  UNL     1      24.085   3.257  53.139  1.00  0.00    -0.356 OA
HETATM   11  C15 UNL     1      25.313   2.561  53.033  1.00  0.00     0.238 C 
ENDROOT
BRANCH   3  12
HETATM   12  C5  UNL     1      23.333   2.926  49.836  1.00  0.00    -0.018 A 
HETATM   13  C6  UNL     1      23.152   2.668  48.469  1.00  0.00     0.010 A 
HETATM   14  C7  UNL     1      22.259   1.794  47.891  1.00  0.00     0.002 A 
HETATM   15  C8  UNL     1      21.460   1.101  48.776  1.00  0.00     0.019 A 
HETATM   16  C9  UNL     1      21.565   1.286  50.129  1.00  0.00     0.011 A 
HETATM   17 BR1  UNL     1      20.457   0.323  51.338  1.00  0.00    -0.051 Br
HETATM   18  C10 UNL     1      22.484   2.179  50.611  1.00  0.00     0.029 A 
ENDBRANCH   3  12
BRANCH   1  19
HETATM   19  O1  UNL     1      27.197   2.165  51.762  1.00  0.00    -0.324 OA
BRANCH  19  20
HETATM   20  C1  UNL     1      27.784   1.682  52.939  1.00  0.00     0.441 C 
BRANCH  20  21
HETATM   21  N1  UNL     1      28.920   2.499  53.381  1.00  0.00     0.101 N 
HETATM   22  H1  UNL     1      29.755   2.371  52.788  1.00  0.00     0.315 HD
HETATM   23  H2  UNL     1      29.117   2.316  54.404  1.00  0.00     0.315 HD
ENDBRANCH  20  21
ENDBRANCH  19  20
ENDBRANCH   1  19
TORSDOF 4
ENDMDL
MODEL 5
REMARK VINA RESULT:      -6.3      3.825      5.380
REMARK  4 active torsions:
REMARK  status: ('A' for Active; 'I' for Inactive)
REMARK    1  A    between atoms: N1_1  and  C1_2 
REMARK    2  A    between atoms: C1_2  and  O1_3 
REMARK    3  A    between atoms: O1_3  and  C2_4 
REMARK    4  A    between atoms: C4_6  and  C5_7 
ROOT
HETATM    1  C2  UNL     1      26.358   5.712  49.359  1.00  0.00     0.072 C 
HETATM    2  C3  UNL     1      25.164   5.811  49.974  1.00  0.00     0.051 C 
HETATM    3  C4  UNL     1      24.467   4.574  50.290  1.00  0.00     0.132 A 
HETATM    4  N2  UNL     1      23.466   4.922  51.322  1.00  0.00    -0.258 NA
HETATM    5  C11 UNL     1      23.328   4.333  52.428  1.00  0.00     0.228 A 
HETATM    6  N3  UNL     1      24.083   3.236  52.933  1.00  0.00    -0.254 NA
HETATM    7  C12 UNL     1      25.031   2.822  52.148  1.00  0.00     0.130 A 
HETATM    8  C13 UNL     1      25.277   3.484  50.843  1.00  0.00     0.020 A 
HETATM    9  C14 UNL     1      26.402   2.893  50.391  1.00  0.00     0.147 C 
HETATM   10  O2  UNL     1      26.918   3.385  49.186  1.00  0.00    -0.356 OA
HETATM   11  C15 UNL     1      27.318   4.697  48.837  1.00  0.00     0.238 C 
ENDROOT
BRANCH   3  12
HETATM   12  C5  UNL     1      23.597   4.123  49.139  1.00  0.00    -0.018 A 
HETATM   13  C6  UNL     1      23.221   2.775  49.022  1.00  0.00     0.010 A 
HETATM   14  C7  UNL     1      22.434   2.204  48.048  1.00  0.00     0.002 A 
HETATM   15  C8  UNL     1      21.971   3.074  47.084  1.00  0.00     0.019 A 
HETATM   16  C9  UNL     1      22.284   4.407  47.114  1.00  0.00     0.011 A 
HETATM   17 BR1  UNL     1      21.637   5.595  45.778  1.00  0.00    -0.051 Br
HETATM   18  C10 UNL     1      23.075   4.884  48.124  1.00  0.00     0.029 A 
ENDBRANCH   3  12
BRANCH   1  19
HETATM   19  O1  UNL     1      26.940   6.957  49.101  1.00  0.00    -0.324 OA
BRANCH  19  20
HETATM   20  C1  UNL     1      28.117   7.150  48.366  1.00  0.00     0.441 C 
BRANCH  20  21
HETATM   21  N1  UNL     1      29.191   7.751  49.165  1.00  0.00     0.101 N 
HETATM   22  H1  UNL     1      28.948   7.820  50.166  1.00  0.00     0.315 HD
HETATM   23  H2  UNL     1      29.469   8.684  48.751  1.00  0.00     0.315 HD
ENDBRANCH  20  21
ENDBRANCH  19  20
ENDBRANCH   1  19
TORSDOF 4
ENDMDL
MODEL 6
REMARK VINA RESULT:      -6.3      2.748      4.588
REMARK  4 active torsions:
REMARK  status: ('A' for Active; 'I' for Inactive)
REMARK    1  A    between atoms: N1_1  and  C1_2 
REMARK    2  A    between atoms: C1_2  and  O1_3 
REMARK    3  A    between atoms: O1_3  and  C2_4 
REMARK    4  A    between atoms: C4_6  and  C5_7 
ROOT
HETATM    1  C2  UNL     1      21.117   1.557  51.864  1.00  0.00     0.072 C 
HETATM    2  C3  UNL     1      21.800   2.643  52.274  1.00  0.00     0.051 C 
HETATM    3  C4  UNL     1      22.861   3.135  51.409  1.00  0.00     0.132 A 
HETATM    4  N2  UNL     1      23.120   4.528  51.835  1.00  0.00    -0.258 NA
HETATM    5  C11 UNL     1      23.139   5.530  51.069  1.00  0.00     0.228 A 
HETATM    6  N3  UNL     1      22.913   5.558  49.663  1.00  0.00    -0.254 NA
HETATM    7  C12 UNL     1      22.643   4.404  49.133  1.00  0.00     0.130 A 
HETATM    8  C13 UNL     1      22.571   3.183  49.973  1.00  0.00     0.020 A 
HETATM    9  C14 UNL     1      22.133   2.234  49.121  1.00  0.00     0.147 C 
HETATM   10  O2  UNL     1      21.898   0.968  49.672  1.00  0.00    -0.356 OA
HETATM   11  C15 UNL     1      21.046   0.584  50.736  1.00  0.00     0.238 C 
ENDROOT
BRANCH   3  12
HETATM   12  C5  UNL     1      24.178   2.458  51.713  1.00  0.00    -0.018 A 
HETATM   13  C6  UNL     1      25.306   2.717  50.919  1.00  0.00     0.010 A 
HETATM   14  C7  UNL     1      26.571   2.193  51.061  1.00  0.00     0.002 A 
HETATM   15  C8  UNL     1      26.728   1.316  52.113  1.00  0.00     0.019 A 
HETATM   16  C9  UNL     1      25.684   1.001  52.943  1.00  0.00     0.011 A 
HETATM   17 BR1  UNL     1      25.915  -0.211  54.389  1.00  0.00    -0.051 Br
HETATM   18  C10 UNL     1      24.461   1.572  52.722  1.00  0.00     0.029 A 
ENDBRANCH   3  12
BRANCH   1  19
HETATM   19  O1  UNL     1      20.124   1.168  52.768  1.00  0.00    -0.324 OA
BRANCH  19  20
HETATM   20  C1  UNL     1      20.134  -0.028  53.497  1.00  0.00     0.441 C 
BRANCH  20  21
HETATM   21  N1  UNL     1      20.715   0.130  54.835  1.00  0.00     0.101 N 
HETATM   22  H1  UNL     1      20.984  -0.771  55.260  1.00  0.00     0.315 HD
HETATM   23  H2  UNL     1      20.058   0.688  55.449  1.00  0.00     0.315 HD
ENDBRANCH  20  21
ENDBRANCH  19  20
ENDBRANCH   1  19
TORSDOF 4
ENDMDL
MODEL 7
REMARK VINA RESULT:      -6.3      7.256      9.888
REMARK  4 active torsions:
REMARK  status: ('A' for Active; 'I' for Inactive)
REMARK    1  A    between atoms: N1_1  and  C1_2 
REMARK    2  A    between atoms: C1_2  and  O1_3 
REMARK    3  A    between atoms: O1_3  and  C2_4 
REMARK    4  A    between atoms: C4_6  and  C5_7 
ROOT
HETATM    1  C2  UNL     1      31.985   5.736  47.903  1.00  0.00     0.072 C 
HETATM    2  C3  UNL     1      31.159   6.331  47.023  1.00  0.00     0.051 C 
HETATM    3  C4  UNL     1      30.293   7.387  47.524  1.00  0.00     0.132 A 
HETATM    4  N2  UNL     1      29.854   8.152  46.335  1.00  0.00    -0.258 NA
HETATM    5  C11 UNL     1      29.944   9.402  46.201  1.00  0.00     0.228 A 
HETATM    6  N3  UNL     1      30.482  10.342  47.127  1.00  0.00    -0.254 NA
HETATM    7  C12 UNL     1      30.941   9.822  48.225  1.00  0.00     0.130 A 
HETATM    8  C13 UNL     1      30.898   8.355  48.444  1.00  0.00     0.020 A 
HETATM    9  C14 UNL     1      31.580   8.183  49.594  1.00  0.00     0.147 C 
HETATM   10  O2  UNL     1      31.764   6.859  50.013  1.00  0.00    -0.356 OA
HETATM   11  C15 UNL     1      32.374   5.772  49.342  1.00  0.00     0.238 C 
ENDROOT
BRANCH   3  12
HETATM   12  C5  UNL     1      28.988   6.829  48.045  1.00  0.00    -0.018 A 
HETATM   13  C6  UNL     1      28.808   5.441  48.156  1.00  0.00     0.010 A 
HETATM   14  C7  UNL     1      27.694   4.774  48.613  1.00  0.00     0.002 A 
HETATM   15  C8  UNL     1      26.646   5.579  49.004  1.00  0.00     0.019 A 
HETATM   16  C9  UNL     1      26.729   6.945  48.932  1.00  0.00     0.011 A 
HETATM   17 BR1  UNL     1      25.276   8.044  49.475  1.00  0.00    -0.051 Br
HETATM   18  C10 UNL     1      27.879   7.519  48.463  1.00  0.00     0.029 A 
ENDBRANCH   3  12
BRANCH   1  19
HETATM   19  O1  UNL     1      32.770   4.737  47.319  1.00  0.00    -0.324 OA
BRANCH  19  20
HETATM   20  C1  UNL     1      32.539   3.361  47.454  1.00  0.00     0.441 C 
BRANCH  20  21
HETATM   21  N1  UNL     1      31.745   2.811  46.348  1.00  0.00     0.101 N 
HETATM   22  H1  UNL     1      32.202   2.004  45.896  1.00  0.00     0.315 HD
HETATM   23  H2  UNL     1      31.506   3.579  45.661  1.00  0.00     0.315 HD
ENDBRANCH  20  21
ENDBRANCH  19  20
ENDBRANCH   1  19
TORSDOF 4
ENDMDL
MODEL 8
REMARK VINA RESULT:      -6.3      2.223      4.101
REMARK  4 active torsions:
REMARK  status: ('A' for Active; 'I' for Inactive)
REMARK    1  A    between atoms: N1_1  and  C1_2 
REMARK    2  A    between atoms: C1_2  and  O1_3 
REMARK    3  A    between atoms: O1_3  and  C2_4 
REMARK    4  A    between atoms: C4_6  and  C5_7 
ROOT
HETATM    1  C2  UNL     1      20.177   2.912  51.426  1.00  0.00     0.072 C 
HETATM    2  C3  UNL     1      21.335   3.425  51.882  1.00  0.00     0.051 C 
HETATM    3  C4  UNL     1      22.570   2.881  51.337  1.00  0.00     0.132 A 
HETATM    4  N2  UNL     1      23.620   3.880  51.634  1.00  0.00    -0.258 NA
HETATM    5  C11 UNL     1      24.415   4.371  50.788  1.00  0.00     0.228 A 
HETATM    6  N3  UNL     1      24.482   4.097  49.392  1.00  0.00    -0.254 NA
HETATM    7  C12 UNL     1      23.598   3.249  48.961  1.00  0.00     0.130 A 
HETATM    8  C13 UNL     1      22.607   2.651  49.890  1.00  0.00     0.020 A 
HETATM    9  C14 UNL     1      21.786   1.957  49.078  1.00  0.00     0.147 C 
HETATM   10  O2  UNL     1      20.690   1.336  49.690  1.00  0.00    -0.356 OA
HETATM   11  C15 UNL     1      19.650   1.893  50.472  1.00  0.00     0.238 C 
ENDROOT
BRANCH   3  12
HETATM   12  C5  UNL     1      23.038   1.680  52.128  1.00  0.00    -0.018 A 
HETATM   13  C6  UNL     1      24.398   1.333  52.147  1.00  0.00     0.010 A 
HETATM   14  C7  UNL     1      24.988   0.284  52.815  1.00  0.00     0.002 A 
HETATM   15  C8  UNL     1      24.125  -0.506  53.545  1.00  0.00     0.019 A 
HETATM   16  C9  UNL     1      22.781  -0.245  53.587  1.00  0.00     0.011 A 
HETATM   17 BR1  UNL     1      21.602  -1.343  54.598  1.00  0.00    -0.051 Br
HETATM   18  C10 UNL     1      22.286   0.822  52.889  1.00  0.00     0.029 A 
ENDBRANCH   3  12
BRANCH   1  19
HETATM   19  O1  UNL     1      19.054   3.503  52.013  1.00  0.00    -0.324 OA
BRANCH  19  20
HETATM   20  C1  UNL     1      17.748   3.405  51.513  1.00  0.00     0.441 C 
BRANCH  20  21
HETATM   21  N1  UNL     1      17.303   4.637  50.852  1.00  0.00     0.101 N 
HETATM   22  H1  UNL     1      16.987   4.475  49.883  1.00  0.00     0.315 HD
HETATM   23  H2  UNL     1      18.061   5.372  50.913  1.00  0.00     0.315 HD
ENDBRANCH  20  21
ENDBRANCH  19  20
ENDBRANCH   1  19
TORSDOF 4
ENDMDL
MODEL 9
REMARK VINA RESULT:      -6.2      2.437      4.785
REMARK  4 active torsions:
REMARK  status: ('A' for Active; 'I' for Inactive)
REMARK    1  A    between atoms: N1_1  and  C1_2 
REMARK    2  A    between atoms: C1_2  and  O1_3 
REMARK    3  A    between atoms: O1_3  and  C2_4 
REMARK    4  A    between atoms: C4_6  and  C5_7 
ROOT
HETATM    1  C2  UNL     1      20.442   2.049  50.297  1.00  0.00     0.072 C 
HETATM    2  C3  UNL     1      20.937   2.722  51.353  1.00  0.00     0.051 C 
HETATM    3  C4  UNL     1      22.378   2.916  51.410  1.00  0.00     0.132 A 
HETATM    4  N2  UNL     1      22.601   4.025  52.363  1.00  0.00    -0.258 NA
HETATM    5  C11 UNL     1      23.287   5.057  52.129  1.00  0.00     0.228 A 
HETATM    6  N3  UNL     1      23.978   5.392  50.929  1.00  0.00    -0.254 NA
HETATM    7  C12 UNL     1      23.858   4.522  49.972  1.00  0.00     0.130 A 
HETATM    8  C13 UNL     1      23.041   3.297  50.159  1.00  0.00     0.020 A 
HETATM    9  C14 UNL     1      23.030   2.729  48.937  1.00  0.00     0.147 C 
HETATM   10  O2  UNL     1      22.256   1.571  48.799  1.00  0.00    -0.356 OA
HETATM   11  C15 UNL     1      20.876   1.366  49.044  1.00  0.00     0.238 C 
ENDROOT
BRANCH   3  12
HETATM   12  C5  UNL     1      23.062   1.758  52.100  1.00  0.00    -0.018 A 
HETATM   13  C6  UNL     1      22.345   0.943  52.991  1.00  0.00     0.010 A 
HETATM   14  C7  UNL     1      22.811  -0.146  53.692  1.00  0.00     0.002 A 
HETATM   15  C8  UNL     1      24.137  -0.457  53.480  1.00  0.00     0.019 A 
HETATM   16  C9  UNL     1      24.917   0.280  52.628  1.00  0.00     0.011 A 
HETATM   17 BR1  UNL     1      26.744  -0.161  52.345  1.00  0.00    -0.051 Br
HETATM   18  C10 UNL     1      24.364   1.348  51.974  1.00  0.00     0.029 A 
ENDBRANCH   3  12
BRANCH   1  19
HETATM   19  O1  UNL     1      19.050   1.918  50.341  1.00  0.00    -0.324 OA
BRANCH  19  20
HETATM   20  C1  UNL     1      18.361   0.701  50.248  1.00  0.00     0.441 C 
BRANCH  20  21
HETATM   21  N1  UNL     1      18.538  -0.141  51.437  1.00  0.00     0.101 N 
HETATM   22  H1  UNL     1      19.506  -0.121  51.796  1.00  0.00     0.315 HD
HETATM   23  H2  UNL     1      18.201  -1.123  51.235  1.00  0.00     0.315 HD
ENDBRANCH  20  21
ENDBRANCH  19  20
ENDBRANCH   1  19
TORSDOF 4
ENDMDL
