MODEL 1
REMARK VINA RESULT:      -6.8      0.000      0.000
REMARK  5 active torsions:
REMARK  status: ('A' for Active; 'I' for Inactive)
REMARK    1  A    between atoms: C2_2  and  C3_3 
REMARK    2  A    between atoms: C3_3  and  N1_5 
REMARK    3  A    between atoms: N1_5  and  C5_6 
REMARK    4  A    between atoms: C8_9  and  C9_10 
REMARK    5  A    between atoms: C16_21  and  C17_22 
ROOT
HETATM    1  C5  UNL     1      24.090   3.313  51.762  1.00  0.00     0.116 C 
HETATM    2  C6  UNL     1      23.770   4.677  52.319  1.00  0.00     0.086 C 
HETATM    3  C7  UNL     1      22.842   5.430  51.438  1.00  0.00     0.012 C 
HETATM    4  C8  UNL     1      23.076   6.598  50.836  1.00  0.00     0.025 C 
HETATM    5  N2  UNL     1      21.553   4.812  51.207  1.00  0.00    -0.350 N 
HETATM    6  C11 UNL     1      20.598   3.956  50.598  1.00  0.00     0.131 C 
HETATM    7  C12 UNL     1      19.370   3.761  51.353  1.00  0.00     0.119 C 
HETATM    8  N3  UNL     1      18.365   3.596  51.948  1.00  0.00    -0.190 NA
HETATM    9  C13 UNL     1      20.606   3.269  49.439  1.00  0.00     0.157 C 
HETATM   10  N4  UNL     1      21.690   3.276  48.513  1.00  0.00    -0.270 NA
HETATM   11  C14 UNL     1      22.914   3.296  48.859  1.00  0.00     0.116 C 
HETATM   12  C15 UNL     1      24.295   3.319  49.408  1.00  0.00     0.024 C 
HETATM   13  C16 UNL     1      24.955   3.333  50.565  1.00  0.00    -0.056 C 
HETATM   14  H13 UNL     1      21.209   5.419  51.984  1.00  0.00     0.166 HD
ENDROOT
BRANCH   4  15
HETATM   15  C9  UNL     1      24.329   7.286  50.988  1.00  0.00     0.009 C 
HETATM   16  C10 UNL     1      25.005   7.712  49.928  1.00  0.00     0.056 C 
HETATM   17 BR1  UNL     1      26.666   8.633  49.949  1.00  0.00    -0.064 Br
ENDBRANCH   4  15
BRANCH   1  18
HETATM   18  N1  UNL     1      24.951   2.694  52.825  1.00  0.00    -0.382 N 
HETATM   19  H6  UNL     1      25.721   2.849  53.541  1.00  0.00     0.160 HD
BRANCH  18  20
HETATM   20  C3  UNL     1      24.570   1.306  52.900  1.00  0.00     0.018 C 
HETATM   21  C4  UNL     1      23.277   0.963  52.938  1.00  0.00     0.042 C 
BRANCH  20  22
HETATM   22  C2  UNL     1      25.604   0.303  52.932  1.00  0.00     0.018 C 
HETATM   23  C1  UNL     1      26.534   0.211  51.995  1.00  0.00     0.013 C 
ENDBRANCH  20  22
ENDBRANCH  18  20
ENDBRANCH   1  18
BRANCH  13  24
HETATM   24  C17 UNL     1      26.393   3.475  50.334  1.00  0.00     0.032 C 
HETATM   25  C18 UNL     1      26.642   4.434  49.199  1.00  0.00     0.010 C 
ENDBRANCH  13  24
TORSDOF 5
ENDMDL
MODEL 2
REMARK VINA RESULT:      -6.4      1.888      2.262
REMARK  5 active torsions:
REMARK  status: ('A' for Active; 'I' for Inactive)
REMARK    1  A    between atoms: C2_2  and  C3_3 
REMARK    2  A    between atoms: C3_3  and  N1_5 
REMARK    3  A    between atoms: N1_5  and  C5_6 
REMARK    4  A    between atoms: C8_9  and  C9_10 
REMARK    5  A    between atoms: C16_21  and  C17_22 
ROOT
HETATM    1  C5  UNL     1      24.061   3.079  51.648  1.00  0.00     0.116 C 
HETATM    2  C6  UNL     1      23.091   4.013  52.326  1.00  0.00     0.086 C 
HETATM    3  C7  UNL     1      21.751   3.977  51.689  1.00  0.00     0.012 C 
HETATM    4  C8  UNL     1      21.109   4.995  51.112  1.00  0.00     0.025 C 
HETATM    5  N2  UNL     1      21.088   2.690  51.689  1.00  0.00    -0.350 N 
HETATM    6  C11 UNL     1      20.757   1.384  51.240  1.00  0.00     0.131 C 
HETATM    7  C12 UNL     1      20.070   0.550  52.215  1.00  0.00     0.119 C 
HETATM    8  N3  UNL     1      19.507  -0.138  52.990  1.00  0.00    -0.190 NA
HETATM    9  C13 UNL     1      20.961   0.749  50.070  1.00  0.00     0.157 C 
HETATM   10  N4  UNL     1      21.617   1.333  48.948  1.00  0.00    -0.270 NA
HETATM   11  C14 UNL     1      22.616   2.117  49.042  1.00  0.00     0.116 C 
HETATM   12  C15 UNL     1      23.771   3.014  49.304  1.00  0.00     0.024 C 
HETATM   13  C16 UNL     1      24.491   3.519  50.305  1.00  0.00    -0.056 C 
HETATM   14  H13 UNL     1      20.602   3.027  52.549  1.00  0.00     0.166 HD
ENDROOT
BRANCH   4  15
HETATM   15  C9  UNL     1      21.687   6.309  51.045  1.00  0.00     0.009 C 
HETATM   16  C10 UNL     1      22.358   6.705  49.969  1.00  0.00     0.056 C 
HETATM   17 BR1  UNL     1      23.180   8.398  49.717  1.00  0.00    -0.064 Br
ENDBRANCH   4  15
BRANCH   1  18
HETATM   18  N1  UNL     1      25.303   3.195  52.484  1.00  0.00    -0.382 N 
HETATM   19  H6  UNL     1      25.925   3.837  53.060  1.00  0.00     0.160 HD
BRANCH  18  20
HETATM   20  C3  UNL     1      25.897   1.883  52.516  1.00  0.00     0.018 C 
HETATM   21  C4  UNL     1      27.227   1.744  52.450  1.00  0.00     0.042 C 
BRANCH  20  22
HETATM   22  C2  UNL     1      25.036   0.733  52.619  1.00  0.00     0.018 C 
HETATM   23  C1  UNL     1      25.393  -0.367  53.261  1.00  0.00     0.013 C 
ENDBRANCH  20  22
ENDBRANCH  18  20
ENDBRANCH   1  18
BRANCH  13  24
HETATM   24  C17 UNL     1      25.469   4.481  49.799  1.00  0.00     0.032 C 
HETATM   25  C18 UNL     1      26.709   3.762  49.336  1.00  0.00     0.010 C 
ENDBRANCH  13  24
TORSDOF 5
ENDMDL
MODEL 3
REMARK VINA RESULT:      -6.4      3.118      5.340
REMARK  5 active torsions:
REMARK  status: ('A' for Active; 'I' for Inactive)
REMARK    1  A    between atoms: C2_2  and  C3_3 
REMARK    2  A    between atoms: C3_3  and  N1_5 
REMARK    3  A    between atoms: N1_5  and  C5_6 
REMARK    4  A    between atoms: C8_9  and  C9_10 
REMARK    5  A    between atoms: C16_21  and  C17_22 
ROOT
HETATM    1  C5  UNL     1      24.130   4.480  50.216  1.00  0.00     0.116 C 
HETATM    2  C6  UNL     1      24.187   2.998  49.954  1.00  0.00     0.086 C 
HETATM    3  C7  UNL     1      22.864   2.456  49.552  1.00  0.00     0.012 C 
HETATM    4  C8  UNL     1      22.154   1.520  50.184  1.00  0.00     0.025 C 
HETATM    5  N2  UNL     1      22.291   3.024  48.349  1.00  0.00    -0.350 N 
HETATM    6  C11 UNL     1      21.568   3.948  47.550  1.00  0.00     0.131 C 
HETATM    7  C12 UNL     1      21.799   3.841  46.117  1.00  0.00     0.119 C 
HETATM    8  N3  UNL     1      21.969   3.765  44.953  1.00  0.00    -0.190 NA
HETATM    9  C13 UNL     1      20.698   4.928  47.861  1.00  0.00     0.157 C 
HETATM   10  N4  UNL     1      20.301   5.253  49.191  1.00  0.00    -0.270 NA
HETATM   11  C14 UNL     1      21.088   5.222  50.190  1.00  0.00     0.116 C 
HETATM   12  C15 UNL     1      22.116   5.142  51.260  1.00  0.00     0.024 C 
HETATM   13  C16 UNL     1      23.403   4.853  51.447  1.00  0.00    -0.056 C 
HETATM   14  H13 UNL     1      22.707   2.203  47.856  1.00  0.00     0.166 HD
ENDROOT
BRANCH   4  15
HETATM   15  C9  UNL     1      22.627   0.905  51.394  1.00  0.00     0.009 C 
HETATM   16  C10 UNL     1      21.777   0.373  52.265  1.00  0.00     0.056 C 
HETATM   17 BR1  UNL     1      22.230  -0.475  53.903  1.00  0.00    -0.064 Br
ENDBRANCH   4  15
BRANCH   1  18
HETATM   18  N1  UNL     1      25.558   4.839  50.514  1.00  0.00    -0.382 N 
HETATM   19  H6  UNL     1      26.321   4.893  51.253  1.00  0.00     0.160 HD
BRANCH  18  20
HETATM   20  C3  UNL     1      26.128   5.305  49.275  1.00  0.00     0.018 C 
HETATM   21  C4  UNL     1      25.530   6.282  48.584  1.00  0.00     0.042 C 
BRANCH  20  22
HETATM   22  C2  UNL     1      27.346   4.699  48.801  1.00  0.00     0.018 C 
HETATM   23  C1  UNL     1      28.376   5.414  48.376  1.00  0.00     0.013 C 
ENDBRANCH  20  22
ENDBRANCH  18  20
ENDBRANCH   1  18
BRANCH  13  24
HETATM   24  C17 UNL     1      23.733   4.879  52.872  1.00  0.00     0.032 C 
HETATM   25  C18 UNL     1      24.063   3.490  53.352  1.00  0.00     0.010 C 
ENDBRANCH  13  24
TORSDOF 5
ENDMDL
MODEL 4
REMARK VINA RESULT:      -6.1      2.843      5.190
REMARK  5 active torsions:
REMARK  status: ('A' for Active; 'I' for Inactive)
REMARK    1  A    between atoms: C2_2  and  C3_3 
REMARK    2  A    between atoms: C3_3  and  N1_5 
REMARK    3  A    between atoms: N1_5  and  C5_6 
REMARK    4  A    between atoms: C8_9  and  C9_10 
REMARK    5  A    between atoms: C16_21  and  C17_22 
ROOT
HETATM    1  C5  UNL     1      23.409   2.883  51.446  1.00  0.00     0.116 C 
HETATM    2  C6  UNL     1      23.255   2.367  50.039  1.00  0.00     0.086 C 
HETATM    3  C7  UNL     1      23.360   3.457  49.036  1.00  0.00     0.012 C 
HETATM    4  C8  UNL     1      22.427   3.835  48.160  1.00  0.00     0.025 C 
HETATM    5  N2  UNL     1      24.610   4.187  49.028  1.00  0.00    -0.350 N 
HETATM    6  C11 UNL     1      25.560   5.167  49.419  1.00  0.00     0.131 C 
HETATM    7  C12 UNL     1      26.922   4.924  48.969  1.00  0.00     0.119 C 
HETATM    8  N3  UNL     1      28.031   4.746  48.609  1.00  0.00    -0.190 NA
HETATM    9  C13 UNL     1      25.449   6.299  50.142  1.00  0.00     0.157 C 
HETATM   10  N4  UNL     1      24.229   6.769  50.709  1.00  0.00    -0.270 NA
HETATM   11  C14 UNL     1      23.342   6.005  51.208  1.00  0.00     0.116 C 
HETATM   12  C15 UNL     1      22.397   4.996  51.755  1.00  0.00     0.024 C 
HETATM   13  C16 UNL     1      22.264   3.682  51.930  1.00  0.00    -0.056 C 
HETATM   14  H13 UNL     1      24.895   3.538  48.262  1.00  0.00     0.166 HD
ENDROOT
BRANCH   4  15
HETATM   15  C9  UNL     1      21.146   3.185  48.096  1.00  0.00     0.009 C 
HETATM   16  C10 UNL     1      20.034   3.888  47.915  1.00  0.00     0.056 C 
HETATM   17 BR1  UNL     1      18.270   3.193  47.807  1.00  0.00    -0.064 Br
ENDBRANCH   4  15
BRANCH   1  18
HETATM   18  N1  UNL     1      23.363   1.637  52.284  1.00  0.00    -0.382 N 
HETATM   19  H6  UNL     1      22.768   0.828  52.635  1.00  0.00     0.160 HD
BRANCH  18  20
HETATM   20  C3  UNL     1      24.680   1.475  52.845  1.00  0.00     0.018 C 
HETATM   21  C4  UNL     1      25.255   2.480  53.516  1.00  0.00     0.042 C 
BRANCH  20  22
HETATM   22  C2  UNL     1      25.359   0.216  52.670  1.00  0.00     0.018 C 
HETATM   23  C1  UNL     1      26.499   0.110  52.006  1.00  0.00     0.013 C 
ENDBRANCH  20  22
ENDBRANCH  18  20
ENDBRANCH   1  18
BRANCH  13  24
HETATM   24  C17 UNL     1      20.942   3.368  52.470  1.00  0.00     0.032 C 
HETATM   25  C18 UNL     1      19.870   3.909  51.561  1.00  0.00     0.010 C 
ENDBRANCH  13  24
TORSDOF 5
ENDMDL
MODEL 5
REMARK VINA RESULT:      -6.0      5.092      7.533
REMARK  5 active torsions:
REMARK  status: ('A' for Active; 'I' for Inactive)
REMARK    1  A    between atoms: C2_2  and  C3_3 
REMARK    2  A    between atoms: C3_3  and  N1_5 
REMARK    3  A    between atoms: N1_5  and  C5_6 
REMARK    4  A    between atoms: C8_9  and  C9_10 
REMARK    5  A    between atoms: C16_21  and  C17_22 
ROOT
HETATM    1  C5  UNL     1      26.694   8.308  49.411  1.00  0.00     0.116 C 
HETATM    2  C6  UNL     1      27.755   9.220  49.972  1.00  0.00     0.086 C 
HETATM    3  C7  UNL     1      28.265  10.169  48.951  1.00  0.00     0.012 C 
HETATM    4  C8  UNL     1      29.520  10.276  48.510  1.00  0.00     0.025 C 
HETATM    5  N2  UNL     1      27.281  11.059  48.371  1.00  0.00    -0.350 N 
HETATM    6  C11 UNL     1      26.252  11.481  47.489  1.00  0.00     0.131 C 
HETATM    7  C12 UNL     1      25.526  12.670  47.908  1.00  0.00     0.119 C 
HETATM    8  N3  UNL     1      24.929  13.635  48.230  1.00  0.00    -0.190 NA
HETATM    9  C13 UNL     1      25.802  10.987  46.319  1.00  0.00     0.157 C 
HETATM   10  N4  UNL     1      26.331   9.825  45.685  1.00  0.00    -0.270 NA
HETATM   11  C14 UNL     1      26.723   8.792  46.317  1.00  0.00     0.116 C 
HETATM   12  C15 UNL     1      27.140   7.659  47.183  1.00  0.00     0.024 C 
HETATM   13  C16 UNL     1      27.202   7.295  48.463  1.00  0.00    -0.056 C 
HETATM   14  H13 UNL     1      27.600  11.751  49.084  1.00  0.00     0.166 HD
ENDROOT
BRANCH   4  15
HETATM   15  C9  UNL     1      30.569   9.429  49.010  1.00  0.00     0.009 C 
HETATM   16  C10 UNL     1      31.508   8.957  48.199  1.00  0.00     0.056 C 
HETATM   17 BR1  UNL     1      32.957   7.832  48.691  1.00  0.00    -0.064 Br
ENDBRANCH   4  15
BRANCH   1  18
HETATM   18  N1  UNL     1      26.255   7.505  50.602  1.00  0.00    -0.382 N 
HETATM   19  H6  UNL     1      26.540   7.071  51.530  1.00  0.00     0.160 HD
BRANCH  18  20
HETATM   20  C3  UNL     1      24.862   7.198  50.395  1.00  0.00     0.018 C 
HETATM   21  C4  UNL     1      23.966   8.184  50.268  1.00  0.00     0.042 C 
BRANCH  20  22
HETATM   22  C2  UNL     1      24.460   5.816  50.328  1.00  0.00     0.018 C 
HETATM   23  C1  UNL     1      24.267   5.187  49.180  1.00  0.00     0.013 C 
ENDBRANCH  20  22
ENDBRANCH  18  20
ENDBRANCH   1  18
BRANCH  13  24
HETATM   24  C17 UNL     1      27.871   6.001  48.597  1.00  0.00     0.032 C 
HETATM   25  C18 UNL     1      29.234   6.055  47.958  1.00  0.00     0.010 C 
ENDBRANCH  13  24
TORSDOF 5
ENDMDL
MODEL 6
REMARK VINA RESULT:      -5.9      3.023      5.550
REMARK  5 active torsions:
REMARK  status: ('A' for Active; 'I' for Inactive)
REMARK    1  A    between atoms: C2_2  and  C3_3 
REMARK    2  A    between atoms: C3_3  and  N1_5 
REMARK    3  A    between atoms: N1_5  and  C5_6 
REMARK    4  A    between atoms: C8_9  and  C9_10 
REMARK    5  A    between atoms: C16_21  and  C17_22 
ROOT
HETATM    1  C5  UNL     1      20.824   1.551  51.246  1.00  0.00     0.116 C 
HETATM    2  C6  UNL     1      21.687   1.148  50.079  1.00  0.00     0.086 C 
HETATM    3  C7  UNL     1      22.814   2.092  49.872  1.00  0.00     0.012 C 
HETATM    4  C8  UNL     1      23.056   2.827  48.785  1.00  0.00     0.025 C 
HETATM    5  N2  UNL     1      23.733   2.228  50.983  1.00  0.00    -0.350 N 
HETATM    6  C11 UNL     1      24.238   2.718  52.215  1.00  0.00     0.131 C 
HETATM    7  C12 UNL     1      25.304   1.924  52.808  1.00  0.00     0.119 C 
HETATM    8  N3  UNL     1      26.172   1.296  53.300  1.00  0.00    -0.190 NA
HETATM    9  C13 UNL     1      23.916   3.791  52.964  1.00  0.00     0.157 C 
HETATM   10  N4  UNL     1      22.902   4.731  52.620  1.00  0.00    -0.270 NA
HETATM   11  C14 UNL     1      21.802   4.411  52.064  1.00  0.00     0.116 C 
HETATM   12  C15 UNL     1      20.567   3.894  51.420  1.00  0.00     0.024 C 
HETATM   13  C16 UNL     1      20.005   2.758  51.010  1.00  0.00    -0.056 C 
HETATM   14  H13 UNL     1      24.317   1.519  50.486  1.00  0.00     0.166 HD
ENDROOT
BRANCH   4  15
HETATM   15  C9  UNL     1      22.196   2.777  47.634  1.00  0.00     0.009 C 
HETATM   16  C10 UNL     1      22.050   3.836  46.846  1.00  0.00     0.056 C 
HETATM   17 BR1  UNL     1      20.961   3.940  45.294  1.00  0.00    -0.064 Br
ENDBRANCH   4  15
BRANCH   1  18
HETATM   18  N1  UNL     1      19.818   0.440  51.339  1.00  0.00    -0.382 N 
HETATM   19  H6  UNL     1      19.115  -0.163  50.817  1.00  0.00     0.160 HD
BRANCH  18  20
HETATM   20  C3  UNL     1      19.801   0.019  52.718  1.00  0.00     0.018 C 
HETATM   21  C4  UNL     1      18.849  -0.813  53.156  1.00  0.00     0.042 C 
BRANCH  20  22
HETATM   22  C2  UNL     1      20.823   0.510  53.605  1.00  0.00     0.018 C 
HETATM   23  C1  UNL     1      21.228  -0.168  54.667  1.00  0.00     0.013 C 
ENDBRANCH  20  22
ENDBRANCH  18  20
ENDBRANCH   1  18
BRANCH  13  24
HETATM   24  C17 UNL     1      18.744   3.029  50.321  1.00  0.00     0.032 C 
HETATM   25  C18 UNL     1      18.986   3.912  49.126  1.00  0.00     0.010 C 
ENDBRANCH  13  24
TORSDOF 5
ENDMDL
MODEL 7
REMARK VINA RESULT:      -5.8      3.075      5.589
REMARK  5 active torsions:
REMARK  status: ('A' for Active; 'I' for Inactive)
REMARK    1  A    between atoms: C2_2  and  C3_3 
REMARK    2  A    between atoms: C3_3  and  N1_5 
REMARK    3  A    between atoms: N1_5  and  C5_6 
REMARK    4  A    between atoms: C8_9  and  C9_10 
REMARK    5  A    between atoms: C16_21  and  C17_22 
ROOT
HETATM    1  C5  UNL     1      21.950   1.695  51.172  1.00  0.00     0.116 C 
HETATM    2  C6  UNL     1      21.974   1.479  49.681  1.00  0.00     0.086 C 
HETATM    3  C7  UNL     1      22.289   2.730  48.945  1.00  0.00     0.012 C 
HETATM    4  C8  UNL     1      21.518   3.351  48.051  1.00  0.00     0.025 C 
HETATM    5  N2  UNL     1      23.568   3.336  49.253  1.00  0.00    -0.350 N 
HETATM    6  C11 UNL     1      24.505   4.136  49.958  1.00  0.00     0.131 C 
HETATM    7  C12 UNL     1      25.902   3.868  49.652  1.00  0.00     0.119 C 
HETATM    8  N3  UNL     1      27.039   3.668  49.412  1.00  0.00    -0.190 NA
HETATM    9  C13 UNL     1      24.356   5.110  50.877  1.00  0.00     0.157 C 
HETATM   10  N4  UNL     1      23.095   5.564  51.362  1.00  0.00    -0.270 NA
HETATM   11  C14 UNL     1      22.101   4.797  51.572  1.00  0.00     0.116 C 
HETATM   12  C15 UNL     1      21.030   3.787  51.772  1.00  0.00     0.024 C 
HETATM   13  C16 UNL     1      20.796   2.481  51.654  1.00  0.00    -0.056 C 
HETATM   14  H13 UNL     1      23.923   2.827  48.414  1.00  0.00     0.166 HD
ENDROOT
BRANCH   4  15
HETATM   15  C9  UNL     1      20.225   2.840  47.687  1.00  0.00     0.009 C 
HETATM   16  C10 UNL     1      19.122   3.537  47.937  1.00  0.00     0.056 C 
HETATM   17 BR1  UNL     1      17.344   3.013  47.525  1.00  0.00    -0.064 Br
ENDBRANCH   4  15
BRANCH   1  18
HETATM   18  N1  UNL     1      21.710   0.319  51.722  1.00  0.00    -0.382 N 
HETATM   19  H6  UNL     1      21.222  -0.616  51.584  1.00  0.00     0.160 HD
BRANCH  18  20
HETATM   20  C3  UNL     1      22.453   0.236  52.954  1.00  0.00     0.018 C 
HETATM   21  C4  UNL     1      23.755   0.547  52.977  1.00  0.00     0.042 C 
BRANCH  20  22
HETATM   22  C2  UNL     1      21.770  -0.183  54.150  1.00  0.00     0.018 C 
HETATM   23  C1  UNL     1      22.254  -1.115  54.955  1.00  0.00     0.013 C 
ENDBRANCH  20  22
ENDBRANCH  18  20
ENDBRANCH   1  18
BRANCH  13  24
HETATM   24  C17 UNL     1      19.393   2.183  51.939  1.00  0.00     0.032 C 
HETATM   25  C18 UNL     1      18.522   3.334  51.507  1.00  0.00     0.010 C 
ENDBRANCH  13  24
TORSDOF 5
ENDMDL
MODEL 8
REMARK VINA RESULT:      -5.6      6.551      9.364
REMARK  5 active torsions:
REMARK  status: ('A' for Active; 'I' for Inactive)
REMARK    1  A    between atoms: C2_2  and  C3_3 
REMARK    2  A    between atoms: C3_3  and  N1_5 
REMARK    3  A    between atoms: N1_5  and  C5_6 
REMARK    4  A    between atoms: C8_9  and  C9_10 
REMARK    5  A    between atoms: C16_21  and  C17_22 
ROOT
HETATM    1  C5  UNL     1      28.418   8.753  48.801  1.00  0.00     0.116 C 
HETATM    2  C6  UNL     1      29.739   9.171  49.393  1.00  0.00     0.086 C 
HETATM    3  C7  UNL     1      30.652   9.735  48.367  1.00  0.00     0.012 C 
HETATM    4  C8  UNL     1      31.852   9.269  48.017  1.00  0.00     0.025 C 
HETATM    5  N2  UNL     1      30.169  10.910  47.672  1.00  0.00    -0.350 N 
HETATM    6  C11 UNL     1      29.460  11.659  46.697  1.00  0.00     0.131 C 
HETATM    7  C12 UNL     1      29.291  13.071  47.002  1.00  0.00     0.119 C 
HETATM    8  N3  UNL     1      29.149  14.220  47.230  1.00  0.00    -0.190 NA
HETATM    9  C13 UNL     1      28.897  11.313  45.522  1.00  0.00     0.157 C 
HETATM   10  N4  UNL     1      28.909   9.992  44.988  1.00  0.00    -0.270 NA
HETATM   11  C14 UNL     1      28.794   8.942  45.698  1.00  0.00     0.116 C 
HETATM   12  C15 UNL     1      28.647   7.808  46.647  1.00  0.00     0.024 C 
HETATM   13  C16 UNL     1      28.489   7.551  47.945  1.00  0.00    -0.056 C 
HETATM   14  H13 UNL     1      30.719  11.455  48.373  1.00  0.00     0.166 HD
ENDROOT
BRANCH   4  15
HETATM   15  C9  UNL     1      32.415   8.099  48.634  1.00  0.00     0.009 C 
HETATM   16  C10 UNL     1      33.317   7.360  47.998  1.00  0.00     0.056 C 
HETATM   17 BR1  UNL     1      34.158   5.794  48.664  1.00  0.00    -0.064 Br
ENDBRANCH   4  15
BRANCH   1  18
HETATM   18  N1  UNL     1      27.624   8.304  49.994  1.00  0.00    -0.382 N 
HETATM   19  H6  UNL     1      27.648   7.825  50.944  1.00  0.00     0.160 HD
BRANCH  18  20
HETATM   20  C3  UNL     1      26.258   8.685  49.741  1.00  0.00     0.018 C 
HETATM   21  C4  UNL     1      25.983   9.844  49.131  1.00  0.00     0.042 C 
BRANCH  20  22
HETATM   22  C2  UNL     1      25.202   7.796  50.155  1.00  0.00     0.018 C 
HETATM   23  C1  UNL     1      25.336   6.480  50.143  1.00  0.00     0.013 C 
ENDBRANCH  20  22
ENDBRANCH  18  20
ENDBRANCH   1  18
BRANCH  13  24
HETATM   24  C17 UNL     1      28.536   6.110  48.192  1.00  0.00     0.032 C 
HETATM   25  C18 UNL     1      29.931   5.591  47.963  1.00  0.00     0.010 C 
ENDBRANCH  13  24
TORSDOF 5
ENDMDL
MODEL 9
REMARK VINA RESULT:      -5.6      6.521      9.614
REMARK  5 active torsions:
REMARK  status: ('A' for Active; 'I' for Inactive)
REMARK    1  A    between atoms: C2_2  and  C3_3 
REMARK    2  A    between atoms: C3_3  and  N1_5 
REMARK    3  A    between atoms: N1_5  and  C5_6 
REMARK    4  A    between atoms: C8_9  and  C9_10 
REMARK    5  A    between atoms: C16_21  and  C17_22 
ROOT
HETATM    1  C5  UNL     1      29.183   7.632  47.816  1.00  0.00     0.116 C 
HETATM    2  C6  UNL     1      29.583   7.810  46.374  1.00  0.00     0.086 C 
HETATM    3  C7  UNL     1      31.041   7.609  46.176  1.00  0.00     0.012 C 
HETATM    4  C8  UNL     1      31.918   8.500  45.710  1.00  0.00     0.025 C 
HETATM    5  N2  UNL     1      31.553   6.306  46.545  1.00  0.00    -0.350 N 
HETATM    6  C11 UNL     1      32.060   5.288  47.394  1.00  0.00     0.131 C 
HETATM    7  C12 UNL     1      32.026   3.943  46.838  1.00  0.00     0.119 C 
HETATM    8  N3  UNL     1      32.010   2.848  46.403  1.00  0.00    -0.190 NA
HETATM    9  C13 UNL     1      32.574   5.318  48.639  1.00  0.00     0.157 C 
HETATM   10  N4  UNL     1      32.716   6.505  49.416  1.00  0.00    -0.270 NA
HETATM   11  C14 UNL     1      31.869   7.454  49.417  1.00  0.00     0.116 C 
HETATM   12  C15 UNL     1      30.798   8.480  49.318  1.00  0.00     0.024 C 
HETATM   13  C16 UNL     1      29.636   8.717  48.712  1.00  0.00    -0.056 C 
HETATM   14  H13 UNL     1      31.445   6.063  45.535  1.00  0.00     0.166 HD
ENDROOT
BRANCH   4  15
HETATM   15  C9  UNL     1      31.515   9.827  45.330  1.00  0.00     0.009 C 
HETATM   16  C10 UNL     1      32.395  10.692  44.840  1.00  0.00     0.056 C 
HETATM   17 BR1  UNL     1      32.033  12.474  44.291  1.00  0.00    -0.064 Br
ENDBRANCH   4  15
BRANCH   1  18
HETATM   18  N1  UNL     1      27.689   7.784  47.787  1.00  0.00    -0.382 N 
HETATM   19  H6  UNL     1      26.863   8.334  47.405  1.00  0.00     0.160 HD
BRANCH  18  20
HETATM   20  C3  UNL     1      27.157   6.746  48.634  1.00  0.00     0.018 C 
HETATM   21  C4  UNL     1      26.183   7.024  49.509  1.00  0.00     0.042 C 
BRANCH  20  22
HETATM   22  C2  UNL     1      27.692   5.414  48.518  1.00  0.00     0.018 C 
HETATM   23  C1  UNL     1      27.094   4.359  49.049  1.00  0.00     0.013 C 
ENDBRANCH  20  22
ENDBRANCH  18  20
ENDBRANCH   1  18
BRANCH  13  24
HETATM   24  C17 UNL     1      29.161  10.065  49.019  1.00  0.00     0.032 C 
HETATM   25  C18 UNL     1      30.270  11.064  48.812  1.00  0.00     0.010 C 
ENDBRANCH  13  24
TORSDOF 5
ENDMDL
