MODEL 1
REMARK VINA RESULT:      -9.5      0.000      0.000
REMARK  4 active torsions:
REMARK  status: ('A' for Active; 'I' for Inactive)
REMARK    1  A    between atoms: O1_1  and  C1_2 
REMARK    2  A    between atoms: C5_6  and  C6_7 
REMARK    3  A    between atoms: C7_9  and  N2_10 
REMARK    4  A    between atoms: N2_10  and  C8_11 
ROOT
HETATM    1  C6  UNL     1      26.020   0.545  53.245  1.00  0.00     0.162 A 
HETATM    2  N1  UNL     1      25.900   1.863  52.997  1.00  0.00    -0.208 NA
HETATM    3  C7  UNL     1      24.672   2.442  52.916  1.00  0.00     0.167 A 
HETATM    4  C12 UNL     1      23.533   1.677  53.090  1.00  0.00     0.153 A 
HETATM    5  O3  UNL     1      22.240   1.956  53.069  1.00  0.00    -0.285 OA
HETATM    6  C13 UNL     1      21.537   0.881  53.290  1.00  0.00     0.182 A 
HETATM    7  N3  UNL     1      20.204   0.709  53.356  1.00  0.00    -0.236 NA
HETATM    8  C14 UNL     1      19.693  -0.518  53.602  1.00  0.00     0.119 A 
HETATM    9  C15 UNL     1      20.547  -1.594  53.786  1.00  0.00     0.020 A 
HETATM   10  C16 UNL     1      21.924  -1.441  53.724  1.00  0.00     0.020 A 
HETATM   11  C17 UNL     1      22.417  -0.172  53.470  1.00  0.00     0.049 A 
HETATM   12  C18 UNL     1      23.713   0.315  53.345  1.00  0.00     0.111 A 
HETATM   13  N4  UNL     1      24.939  -0.236  53.420  1.00  0.00    -0.225 NA
ENDROOT
BRANCH   1  14
HETATM   14  C5  UNL     1      27.349  -0.048  53.326  1.00  0.00     0.014 A 
HETATM   15  C4  UNL     1      28.469   0.736  53.473  1.00  0.00     0.015 A 
HETATM   16  C3  UNL     1      29.700   0.127  53.545  1.00  0.00     0.004 A 
HETATM   17  C2  UNL     1      29.815  -1.244  53.470  1.00  0.00     0.036 A 
HETATM   18  C1  UNL     1      28.726  -2.079  53.322  1.00  0.00     0.066 A 
HETATM   19  C19 UNL     1      27.525  -1.412  53.257  1.00  0.00     0.051 A 
BRANCH  18  20
HETATM   20  O1  UNL     1      28.824  -3.460  53.245  1.00  0.00    -0.361 OA
HETATM   21  H1  UNL     1      28.280  -3.956  52.545  1.00  0.00     0.217 HD
ENDBRANCH  18  20
ENDBRANCH   1  14
BRANCH   3  22
HETATM   22  N2  UNL     1      24.493   3.835  52.655  1.00  0.00    -0.341 N 
HETATM   23  H5  UNL     1      24.630   4.721  53.182  1.00  0.00     0.167 HD
BRANCH  22  24
HETATM   24  C8  UNL     1      24.002   3.942  51.308  1.00  0.00     0.024 C 
HETATM   25  P1  UNL     1      22.609   4.683  50.787  1.00  0.00    -0.009 P 
HETATM   26  C9  UNL     1      22.317   4.609  48.949  1.00  0.00     0.212 C 
HETATM   27  O2  UNL     1      23.144   3.577  48.505  1.00  0.00    -0.386 OA
HETATM   28  C10 UNL     1      24.437   3.909  48.895  1.00  0.00     0.174 C 
HETATM   29  C11 UNL     1      24.810   3.326  50.225  1.00  0.00     0.084 C 
ENDBRANCH  22  24
ENDBRANCH   3  22
TORSDOF 4
ENDMDL
MODEL 2
REMARK VINA RESULT:      -9.2      2.080      2.405
REMARK  4 active torsions:
REMARK  status: ('A' for Active; 'I' for Inactive)
REMARK    1  A    between atoms: O1_1  and  C1_2 
REMARK    2  A    between atoms: C5_6  and  C6_7 
REMARK    3  A    between atoms: C7_9  and  N2_10 
REMARK    4  A    between atoms: N2_10  and  C8_11 
ROOT
HETATM    1  C6  UNL     1      25.158   0.824  52.344  1.00  0.00     0.162 A 
HETATM    2  N1  UNL     1      24.886   1.641  51.310  1.00  0.00    -0.208 NA
HETATM    3  C7  UNL     1      23.609   1.803  50.872  1.00  0.00     0.167 A 
HETATM    4  C12 UNL     1      22.574   1.125  51.491  1.00  0.00     0.153 A 
HETATM    5  O3  UNL     1      21.267   1.085  51.292  1.00  0.00    -0.285 OA
HETATM    6  C13 UNL     1      20.698   0.283  52.147  1.00  0.00     0.182 A 
HETATM    7  N3  UNL     1      19.404  -0.050  52.302  1.00  0.00    -0.236 NA
HETATM    8  C14 UNL     1      19.042  -0.916  53.275  1.00  0.00     0.119 A 
HETATM    9  C15 UNL     1      20.008  -1.457  54.109  1.00  0.00     0.020 A 
HETATM   10  C16 UNL     1      21.349  -1.128  53.968  1.00  0.00     0.020 A 
HETATM   11  C17 UNL     1      21.688  -0.238  52.963  1.00  0.00     0.049 A 
HETATM   12  C18 UNL     1      22.909   0.289  52.560  1.00  0.00     0.111 A 
HETATM   13  N4  UNL     1      24.182   0.145  52.975  1.00  0.00    -0.225 NA
ENDROOT
BRANCH   1  14
HETATM   14  C5  UNL     1      26.536   0.670  52.791  1.00  0.00     0.014 A 
HETATM   15  C4  UNL     1      27.068  -0.574  53.038  1.00  0.00     0.015 A 
HETATM   16  C3  UNL     1      28.374  -0.666  53.458  1.00  0.00     0.004 A 
HETATM   17  C2  UNL     1      29.141   0.465  53.631  1.00  0.00     0.036 A 
HETATM   18  C1  UNL     1      28.660   1.738  53.399  1.00  0.00     0.066 A 
HETATM   19  C19 UNL     1      27.350   1.764  52.981  1.00  0.00     0.051 A 
BRANCH  18  20
HETATM   20  O1  UNL     1      29.418   2.886  53.569  1.00  0.00    -0.361 OA
HETATM   21  H1  UNL     1      29.528   3.526  52.787  1.00  0.00     0.217 HD
ENDBRANCH  18  20
ENDBRANCH   1  14
BRANCH   3  22
HETATM   22  N2  UNL     1      23.271   2.658  49.779  1.00  0.00    -0.341 N 
HETATM   23  H5  UNL     1      22.776   2.553  48.869  1.00  0.00     0.167 HD
BRANCH  22  24
HETATM   24  C8  UNL     1      23.777   3.963  50.105  1.00  0.00     0.024 C 
HETATM   25  P1  UNL     1      23.284   4.970  51.331  1.00  0.00    -0.009 P 
HETATM   26  C9  UNL     1      24.191   6.594  51.430  1.00  0.00     0.212 C 
HETATM   27  O2  UNL     1      24.789   6.737  50.178  1.00  0.00    -0.386 OA
HETATM   28  C10 UNL     1      25.586   5.614  49.988  1.00  0.00     0.174 C 
HETATM   29  C11 UNL     1      24.873   4.511  49.265  1.00  0.00     0.084 C 
ENDBRANCH  22  24
ENDBRANCH   3  22
TORSDOF 4
ENDMDL
MODEL 3
REMARK VINA RESULT:      -8.9      2.025      5.116
REMARK  4 active torsions:
REMARK  status: ('A' for Active; 'I' for Inactive)
REMARK    1  A    between atoms: O1_1  and  C1_2 
REMARK    2  A    between atoms: C5_6  and  C6_7 
REMARK    3  A    between atoms: C7_9  and  N2_10 
REMARK    4  A    between atoms: N2_10  and  C8_11 
ROOT
HETATM    1  C6  UNL     1      26.757   1.631  52.294  1.00  0.00     0.162 A 
HETATM    2  N1  UNL     1      25.554   1.764  52.884  1.00  0.00    -0.208 NA
HETATM    3  C7  UNL     1      24.695   2.742  52.489  1.00  0.00     0.167 A 
HETATM    4  C12 UNL     1      25.053   3.610  51.474  1.00  0.00     0.153 A 
HETATM    5  O3  UNL     1      24.442   4.630  50.893  1.00  0.00    -0.285 OA
HETATM    6  C13 UNL     1      25.198   5.148  49.966  1.00  0.00     0.182 A 
HETATM    7  N3  UNL     1      24.975   6.185  49.139  1.00  0.00    -0.236 NA
HETATM    8  C14 UNL     1      25.920   6.549  48.243  1.00  0.00     0.119 A 
HETATM    9  C15 UNL     1      27.115   5.849  48.182  1.00  0.00     0.020 A 
HETATM   10  C16 UNL     1      27.367   4.776  49.025  1.00  0.00     0.020 A 
HETATM   11  C17 UNL     1      26.380   4.428  49.931  1.00  0.00     0.049 A 
HETATM   12  C18 UNL     1      26.312   3.429  50.895  1.00  0.00     0.111 A 
HETATM   13  N4  UNL     1      27.146   2.453  51.303  1.00  0.00    -0.225 NA
ENDROOT
BRANCH   1  14
HETATM   14  C5  UNL     1      27.657   0.574  52.738  1.00  0.00     0.014 A 
HETATM   15  C4  UNL     1      28.851   0.870  53.354  1.00  0.00     0.015 A 
HETATM   16  C3  UNL     1      29.665  -0.163  53.754  1.00  0.00     0.004 A 
HETATM   17  C2  UNL     1      29.297  -1.474  53.543  1.00  0.00     0.036 A 
HETATM   18  C1  UNL     1      28.112  -1.829  52.930  1.00  0.00     0.066 A 
HETATM   19  C19 UNL     1      27.342  -0.753  52.553  1.00  0.00     0.051 A 
BRANCH  18  20
HETATM   20  O1  UNL     1      27.728  -3.143  52.709  1.00  0.00    -0.361 OA
HETATM   21  H1  UNL     1      28.172  -3.884  53.243  1.00  0.00     0.217 HD
ENDBRANCH  18  20
ENDBRANCH   1  14
BRANCH   3  22
HETATM   22  N2  UNL     1      23.408   2.923  53.084  1.00  0.00    -0.341 N 
HETATM   23  H5  UNL     1      22.989   3.571  53.782  1.00  0.00     0.167 HD
BRANCH  22  24
HETATM   24  C8  UNL     1      22.547   1.922  52.518  1.00  0.00     0.024 C 
HETATM   25  P1  UNL     1      21.798   1.942  51.035  1.00  0.00    -0.009 P 
HETATM   26  C9  UNL     1      20.753   0.447  50.659  1.00  0.00     0.212 C 
HETATM   27  O2  UNL     1      20.525  -0.142  51.903  1.00  0.00    -0.386 OA
HETATM   28  C10 UNL     1      21.775  -0.405  52.453  1.00  0.00     0.174 C 
HETATM   29  C11 UNL     1      22.270   0.708  53.328  1.00  0.00     0.084 C 
ENDBRANCH  22  24
ENDBRANCH   3  22
TORSDOF 4
ENDMDL
MODEL 4
REMARK VINA RESULT:      -8.9      1.798      5.816
REMARK  4 active torsions:
REMARK  status: ('A' for Active; 'I' for Inactive)
REMARK    1  A    between atoms: O1_1  and  C1_2 
REMARK    2  A    between atoms: C5_6  and  C6_7 
REMARK    3  A    between atoms: C7_9  and  N2_10 
REMARK    4  A    between atoms: N2_10  and  C8_11 
ROOT
HETATM    1  C6  UNL     1      23.227   0.758  53.213  1.00  0.00     0.162 A 
HETATM    2  N1  UNL     1      23.228   2.082  52.974  1.00  0.00    -0.208 NA
HETATM    3  C7  UNL     1      24.399   2.763  52.856  1.00  0.00     0.167 A 
HETATM    4  C12 UNL     1      25.604   2.095  52.981  1.00  0.00     0.153 A 
HETATM    5  O3  UNL     1      26.868   2.481  52.917  1.00  0.00    -0.285 OA
HETATM    6  C13 UNL     1      27.665   1.468  53.104  1.00  0.00     0.182 A 
HETATM    7  N3  UNL     1      29.009   1.408  53.120  1.00  0.00    -0.236 NA
HETATM    8  C14 UNL     1      29.630   0.227  53.336  1.00  0.00     0.119 A 
HETATM    9  C15 UNL     1      28.876  -0.918  53.539  1.00  0.00     0.020 A 
HETATM   10  C16 UNL     1      27.489  -0.882  53.527  1.00  0.00     0.020 A 
HETATM   11  C17 UNL     1      26.883   0.343  53.303  1.00  0.00     0.049 A 
HETATM   12  C18 UNL     1      25.548   0.721  53.229  1.00  0.00     0.111 A 
HETATM   13  N4  UNL     1      24.375   0.068  53.342  1.00  0.00    -0.225 NA
ENDROOT
BRANCH   1  14
HETATM   14  C5  UNL     1      21.957   0.054  53.334  1.00  0.00     0.014 A 
HETATM   15  C4  UNL     1      21.821  -1.028  54.172  1.00  0.00     0.015 A 
HETATM   16  C3  UNL     1      20.601  -1.657  54.251  1.00  0.00     0.004 A 
HETATM   17  C2  UNL     1      19.530  -1.217  53.505  1.00  0.00     0.036 A 
HETATM   18  C1  UNL     1      19.609  -0.137  52.648  1.00  0.00     0.066 A 
HETATM   19  C19 UNL     1      20.852   0.449  52.613  1.00  0.00     0.051 A 
BRANCH  18  20
HETATM   20  O1  UNL     1      18.540   0.318  51.891  1.00  0.00    -0.361 OA
HETATM   21  H1  UNL     1      17.942   1.047  52.268  1.00  0.00     0.217 HD
ENDBRANCH  18  20
ENDBRANCH   1  14
BRANCH   3  22
HETATM   22  N2  UNL     1      24.452   4.168  52.603  1.00  0.00    -0.341 N 
HETATM   23  H5  UNL     1      24.861   5.001  53.075  1.00  0.00     0.167 HD
BRANCH  22  24
HETATM   24  C8  UNL     1      23.741   4.393  51.375  1.00  0.00     0.024 C 
HETATM   25  P1  UNL     1      22.277   5.151  51.169  1.00  0.00    -0.009 P 
HETATM   26  C9  UNL     1      21.679   5.247  49.407  1.00  0.00     0.212 C 
HETATM   27  O2  UNL     1      22.425   4.281  48.733  1.00  0.00    -0.386 OA
HETATM   28  C10 UNL     1      23.763   4.602  48.932  1.00  0.00     0.174 C 
HETATM   29  C11 UNL     1      24.359   3.902  50.117  1.00  0.00     0.084 C 
ENDBRANCH  22  24
ENDBRANCH   3  22
TORSDOF 4
ENDMDL
MODEL 5
REMARK VINA RESULT:      -8.8      2.763      6.346
REMARK  4 active torsions:
REMARK  status: ('A' for Active; 'I' for Inactive)
REMARK    1  A    between atoms: O1_1  and  C1_2 
REMARK    2  A    between atoms: C5_6  and  C6_7 
REMARK    3  A    between atoms: C7_9  and  N2_10 
REMARK    4  A    between atoms: N2_10  and  C8_11 
ROOT
HETATM    1  C6  UNL     1      23.844   3.738  51.609  1.00  0.00     0.162 A 
HETATM    2  N1  UNL     1      24.984   3.116  51.256  1.00  0.00    -0.208 NA
HETATM    3  C7  UNL     1      25.181   1.805  51.560  1.00  0.00     0.167 A 
HETATM    4  C12 UNL     1      24.205   1.099  52.239  1.00  0.00     0.153 A 
HETATM    5  O3  UNL     1      24.117  -0.152  52.661  1.00  0.00    -0.285 OA
HETATM    6  C13 UNL     1      22.979  -0.353  53.264  1.00  0.00     0.182 A 
HETATM    7  N3  UNL     1      22.481  -1.463  53.838  1.00  0.00    -0.236 NA
HETATM    8  C14 UNL     1      21.257  -1.435  54.412  1.00  0.00     0.119 A 
HETATM    9  C15 UNL     1      20.521  -0.260  54.404  1.00  0.00     0.020 A 
HETATM   10  C16 UNL     1      21.014   0.897  53.818  1.00  0.00     0.020 A 
HETATM   11  C17 UNL     1      22.271   0.836  53.239  1.00  0.00     0.049 A 
HETATM   12  C18 UNL     1      23.040   1.790  52.583  1.00  0.00     0.111 A 
HETATM   13  N4  UNL     1      22.868   3.089  52.271  1.00  0.00    -0.225 NA
ENDROOT
BRANCH   1  14
HETATM   14  C5  UNL     1      23.660   5.143  51.270  1.00  0.00     0.014 A 
HETATM   15  C4  UNL     1      22.402   5.684  51.139  1.00  0.00     0.015 A 
HETATM   16  C3  UNL     1      22.283   7.016  50.818  1.00  0.00     0.004 A 
HETATM   17  C2  UNL     1      23.400   7.799  50.627  1.00  0.00     0.036 A 
HETATM   18  C1  UNL     1      24.685   7.309  50.744  1.00  0.00     0.066 A 
HETATM   19  C19 UNL     1      24.740   5.973  51.067  1.00  0.00     0.051 A 
BRANCH  18  20
HETATM   20  O1  UNL     1      25.820   8.083  50.555  1.00  0.00    -0.361 OA
HETATM   21  H1  UNL     1      26.287   8.064  49.653  1.00  0.00     0.217 HD
ENDBRANCH  18  20
ENDBRANCH   1  14
BRANCH   3  22
HETATM   22  N2  UNL     1      26.374   1.103  51.207  1.00  0.00    -0.341 N 
HETATM   23  H5  UNL     1      26.758   0.662  50.346  1.00  0.00     0.167 HD
BRANCH  22  24
HETATM   24  C8  UNL     1      27.181   1.038  52.394  1.00  0.00     0.024 C 
HETATM   25  P1  UNL     1      27.647  -0.315  53.238  1.00  0.00    -0.009 P 
HETATM   26  C9  UNL     1      28.701   0.014  54.737  1.00  0.00     0.212 C 
HETATM   27  O2  UNL     1      28.494   1.364  55.020  1.00  0.00    -0.386 OA
HETATM   28  C10 UNL     1      28.843   2.069  53.873  1.00  0.00     0.174 C 
HETATM   29  C11 UNL     1      27.676   2.317  52.965  1.00  0.00     0.084 C 
ENDBRANCH  22  24
ENDBRANCH   3  22
TORSDOF 4
ENDMDL
MODEL 6
REMARK VINA RESULT:      -8.7      2.371      5.339
REMARK  4 active torsions:
REMARK  status: ('A' for Active; 'I' for Inactive)
REMARK    1  A    between atoms: O1_1  and  C1_2 
REMARK    2  A    between atoms: C5_6  and  C6_7 
REMARK    3  A    between atoms: C7_9  and  N2_10 
REMARK    4  A    between atoms: N2_10  and  C8_11 
ROOT
HETATM    1  C6  UNL     1      26.198   1.505  51.854  1.00  0.00     0.162 A 
HETATM    2  N1  UNL     1      24.973   1.781  52.339  1.00  0.00    -0.208 NA
HETATM    3  C7  UNL     1      24.314   2.906  51.954  1.00  0.00     0.167 A 
HETATM    4  C12 UNL     1      24.901   3.780  51.057  1.00  0.00     0.153 A 
HETATM    5  O3  UNL     1      24.512   4.922  50.514  1.00  0.00    -0.285 OA
HETATM    6  C13 UNL     1      25.429   5.382  49.710  1.00  0.00     0.182 A 
HETATM    7  N3  UNL     1      25.450   6.499  48.960  1.00  0.00    -0.236 NA
HETATM    8  C14 UNL     1      26.527   6.775  48.191  1.00  0.00     0.119 A 
HETATM    9  C15 UNL     1      27.605   5.904  48.179  1.00  0.00     0.020 A 
HETATM   10  C16 UNL     1      27.606   4.746  48.944  1.00  0.00     0.020 A 
HETATM   11  C17 UNL     1      26.489   4.491  49.721  1.00  0.00     0.049 A 
HETATM   12  C18 UNL     1      26.174   3.448  50.583  1.00  0.00     0.111 A 
HETATM   13  N4  UNL     1      26.807   2.327  50.979  1.00  0.00    -0.225 NA
ENDROOT
BRANCH   1  14
HETATM   14  C5  UNL     1      26.881   0.292  52.284  1.00  0.00     0.014 A 
HETATM   15  C4  UNL     1      26.317  -0.948  52.090  1.00  0.00     0.015 A 
HETATM   16  C3  UNL     1      27.002  -2.062  52.513  1.00  0.00     0.004 A 
HETATM   17  C2  UNL     1      28.231  -1.946  53.123  1.00  0.00     0.036 A 
HETATM   18  C1  UNL     1      28.845  -0.729  53.343  1.00  0.00     0.066 A 
HETATM   19  C19 UNL     1      28.112   0.347  52.898  1.00  0.00     0.051 A 
BRANCH  18  20
HETATM   20  O1  UNL     1      30.082  -0.594  53.955  1.00  0.00    -0.361 OA
HETATM   21  H1  UNL     1      30.385  -1.302  54.617  1.00  0.00     0.217 HD
ENDBRANCH  18  20
ENDBRANCH   1  14
BRANCH   3  22
HETATM   22  N2  UNL     1      23.014   3.243  52.441  1.00  0.00    -0.341 N 
HETATM   23  H5  UNL     1      22.621   3.924  53.122  1.00  0.00     0.167 HD
BRANCH  22  24
HETATM   24  C8  UNL     1      22.085   2.378  51.767  1.00  0.00     0.024 C 
HETATM   25  P1  UNL     1      21.508   2.513  50.215  1.00  0.00    -0.009 P 
HETATM   26  C9  UNL     1      20.309   1.185  49.700  1.00  0.00     0.212 C 
HETATM   27  O2  UNL     1      19.869   0.628  50.901  1.00  0.00    -0.386 OA
HETATM   28  C10 UNL     1      21.003   0.186  51.573  1.00  0.00     0.174 C 
HETATM   29  C11 UNL     1      21.555   1.211  52.518  1.00  0.00     0.084 C 
ENDBRANCH  22  24
ENDBRANCH   3  22
TORSDOF 4
ENDMDL
MODEL 7
REMARK VINA RESULT:      -8.6      2.172      2.715
REMARK  4 active torsions:
REMARK  status: ('A' for Active; 'I' for Inactive)
REMARK    1  A    between atoms: O1_1  and  C1_2 
REMARK    2  A    between atoms: C5_6  and  C6_7 
REMARK    3  A    between atoms: C7_9  and  N2_10 
REMARK    4  A    between atoms: N2_10  and  C8_11 
ROOT
HETATM    1  C6  UNL     1      24.883   1.839  52.786  1.00  0.00     0.162 A 
HETATM    2  N1  UNL     1      24.880   3.185  52.833  1.00  0.00    -0.208 NA
HETATM    3  C7  UNL     1      23.728   3.881  52.647  1.00  0.00     0.167 A 
HETATM    4  C12 UNL     1      22.543   3.208  52.408  1.00  0.00     0.153 A 
HETATM    5  O3  UNL     1      21.299   3.606  52.195  1.00  0.00    -0.285 OA
HETATM    6  C13 UNL     1      20.516   2.581  52.016  1.00  0.00     0.182 A 
HETATM    7  N3  UNL     1      19.194   2.526  51.773  1.00  0.00    -0.236 NA
HETATM    8  C14 UNL     1      18.584   1.329  51.619  1.00  0.00     0.119 A 
HETATM    9  C15 UNL     1      19.327   0.162  51.714  1.00  0.00     0.020 A 
HETATM   10  C16 UNL     1      20.692   0.194  51.964  1.00  0.00     0.020 A 
HETATM   11  C17 UNL     1      21.286   1.435  52.116  1.00  0.00     0.049 A 
HETATM   12  C18 UNL     1      22.600   1.812  52.369  1.00  0.00     0.111 A 
HETATM   13  N4  UNL     1      23.754   1.144  52.555  1.00  0.00    -0.225 NA
ENDROOT
BRANCH   1  14
HETATM   14  C5  UNL     1      26.134   1.119  52.988  1.00  0.00     0.014 A 
HETATM   15  C4  UNL     1      26.232  -0.225  52.715  1.00  0.00     0.015 A 
HETATM   16  C3  UNL     1      27.434  -0.859  52.922  1.00  0.00     0.004 A 
HETATM   17  C2  UNL     1      28.525  -0.165  53.397  1.00  0.00     0.036 A 
HETATM   18  C1  UNL     1      28.484   1.184  53.688  1.00  0.00     0.066 A 
HETATM   19  C19 UNL     1      27.257   1.761  53.460  1.00  0.00     0.051 A 
BRANCH  18  20
HETATM   20  O1  UNL     1      29.573   1.898  54.167  1.00  0.00    -0.361 OA
HETATM   21  H1  UNL     1      29.621   2.120  55.157  1.00  0.00     0.217 HD
ENDBRANCH  18  20
ENDBRANCH   1  14
BRANCH   3  22
HETATM   22  N2  UNL     1      23.674   5.308  52.687  1.00  0.00    -0.341 N 
HETATM   23  H5  UNL     1      23.635   6.037  53.429  1.00  0.00     0.167 HD
BRANCH  22  24
HETATM   24  C8  UNL     1      23.683   5.760  51.323  1.00  0.00     0.024 C 
HETATM   25  P1  UNL     1      24.833   5.468  50.160  1.00  0.00    -0.009 P 
HETATM   26  C9  UNL     1      24.484   6.231  48.497  1.00  0.00     0.212 C 
HETATM   27  O2  UNL     1      23.532   7.216  48.757  1.00  0.00    -0.386 OA
HETATM   28  C10 UNL     1      22.456   6.578  49.364  1.00  0.00     0.174 C 
HETATM   29  C11 UNL     1      22.541   6.590  50.861  1.00  0.00     0.084 C 
ENDBRANCH  22  24
ENDBRANCH   3  22
TORSDOF 4
ENDMDL
MODEL 8
REMARK VINA RESULT:      -8.5      2.665      3.588
REMARK  4 active torsions:
REMARK  status: ('A' for Active; 'I' for Inactive)
REMARK    1  A    between atoms: O1_1  and  C1_2 
REMARK    2  A    between atoms: C5_6  and  C6_7 
REMARK    3  A    between atoms: C7_9  and  N2_10 
REMARK    4  A    between atoms: N2_10  and  C8_11 
ROOT
HETATM    1  C6  UNL     1      23.004   0.758  52.347  1.00  0.00     0.162 A 
HETATM    2  N1  UNL     1      23.059   1.421  51.177  1.00  0.00    -0.208 NA
HETATM    3  C7  UNL     1      21.952   1.541  50.397  1.00  0.00     0.167 A 
HETATM    4  C12 UNL     1      20.755   0.980  50.803  1.00  0.00     0.153 A 
HETATM    5  O3  UNL     1      19.545   0.934  50.269  1.00  0.00    -0.285 OA
HETATM    6  C13 UNL     1      18.728   0.276  51.042  1.00  0.00     0.182 A 
HETATM    7  N3  UNL     1      17.422  -0.008  50.890  1.00  0.00    -0.236 NA
HETATM    8  C14 UNL     1      16.770  -0.717  51.838  1.00  0.00     0.119 A 
HETATM    9  C15 UNL     1      17.453  -1.148  52.965  1.00  0.00     0.020 A 
HETATM   10  C16 UNL     1      18.800  -0.867  53.144  1.00  0.00     0.020 A 
HETATM   11  C17 UNL     1      19.439  -0.139  52.155  1.00  0.00     0.049 A 
HETATM   12  C18 UNL     1      20.751   0.302  52.025  1.00  0.00     0.111 A 
HETATM   13  N4  UNL     1      21.861   0.196  52.781  1.00  0.00    -0.225 NA
ENDROOT
BRANCH   1  14
HETATM   14  C5  UNL     1      24.207   0.646  53.163  1.00  0.00     0.014 A 
HETATM   15  C4  UNL     1      24.459  -0.484  53.904  1.00  0.00     0.015 A 
HETATM   16  C3  UNL     1      25.608  -0.541  54.657  1.00  0.00     0.004 A 
HETATM   17  C2  UNL     1      26.494   0.513  54.673  1.00  0.00     0.036 A 
HETATM   18  C1  UNL     1      26.292   1.671  53.949  1.00  0.00     0.066 A 
HETATM   19  C19 UNL     1      25.128   1.668  53.217  1.00  0.00     0.051 A 
BRANCH  18  20
HETATM   20  O1  UNL     1      27.174   2.741  53.954  1.00  0.00    -0.361 OA
HETATM   21  H1  UNL     1      27.310   3.265  54.814  1.00  0.00     0.217 HD
ENDBRANCH  18  20
ENDBRANCH   1  14
BRANCH   3  22
HETATM   22  N2  UNL     1      21.960   2.234  49.148  1.00  0.00    -0.341 N 
HETATM   23  H5  UNL     1      21.799   1.985  48.150  1.00  0.00     0.167 HD
BRANCH  22  24
HETATM   24  C8  UNL     1      22.277   3.606  49.439  1.00  0.00     0.024 C 
HETATM   25  P1  UNL     1      21.351   4.712  50.264  1.00  0.00    -0.009 P 
HETATM   26  C9  UNL     1      22.112   6.402  50.439  1.00  0.00     0.212 C 
HETATM   27  O2  UNL     1      23.108   6.440  49.463  1.00  0.00    -0.386 OA
HETATM   28  C10 UNL     1      23.957   5.369  49.721  1.00  0.00     0.174 C 
HETATM   29  C11 UNL     1      23.580   4.133  48.960  1.00  0.00     0.084 C 
ENDBRANCH  22  24
ENDBRANCH   3  22
TORSDOF 4
ENDMDL
MODEL 9
REMARK VINA RESULT:      -8.3      2.443      6.289
REMARK  4 active torsions:
REMARK  status: ('A' for Active; 'I' for Inactive)
REMARK    1  A    between atoms: O1_1  and  C1_2 
REMARK    2  A    between atoms: C5_6  and  C6_7 
REMARK    3  A    between atoms: C7_9  and  N2_10 
REMARK    4  A    between atoms: N2_10  and  C8_11 
ROOT
HETATM    1  C6  UNL     1      21.024   1.100  52.409  1.00  0.00     0.162 A 
HETATM    2  N1  UNL     1      21.054   2.428  52.192  1.00  0.00    -0.208 NA
HETATM    3  C7  UNL     1      22.214   3.125  52.326  1.00  0.00     0.167 A 
HETATM    4  C12 UNL     1      23.377   2.470  52.687  1.00  0.00     0.153 A 
HETATM    5  O3  UNL     1      24.622   2.872  52.888  1.00  0.00    -0.285 OA
HETATM    6  C13 UNL     1      25.379   1.866  53.221  1.00  0.00     0.182 A 
HETATM    7  N3  UNL     1      26.692   1.822  53.512  1.00  0.00    -0.236 NA
HETATM    8  C14 UNL     1      27.273   0.645  53.835  1.00  0.00     0.119 A 
HETATM    9  C15 UNL     1      26.511  -0.513  53.865  1.00  0.00     0.020 A 
HETATM   10  C16 UNL     1      25.156  -0.492  53.569  1.00  0.00     0.020 A 
HETATM   11  C17 UNL     1      24.590   0.728  53.241  1.00  0.00     0.049 A 
HETATM   12  C18 UNL     1      23.292   1.091  52.900  1.00  0.00     0.111 A 
HETATM   13  N4  UNL     1      22.131   0.422  52.762  1.00  0.00    -0.225 NA
ENDROOT
BRANCH   1  14
HETATM   14  C5  UNL     1      19.766   0.379  52.259  1.00  0.00     0.014 A 
HETATM   15  C4  UNL     1      18.961   0.577  51.161  1.00  0.00     0.015 A 
HETATM   16  C3  UNL     1      17.784  -0.128  51.066  1.00  0.00     0.004 A 
HETATM   17  C2  UNL     1      17.412  -1.017  52.050  1.00  0.00     0.036 A 
HETATM   18  C1  UNL     1      18.181  -1.255  53.172  1.00  0.00     0.066 A 
HETATM   19  C19 UNL     1      19.344  -0.522  53.210  1.00  0.00     0.051 A 
BRANCH  18  20
HETATM   20  O1  UNL     1      17.821  -2.146  54.172  1.00  0.00    -0.361 OA
HETATM   21  H1  UNL     1      16.950  -2.000  54.674  1.00  0.00     0.217 HD
ENDBRANCH  18  20
ENDBRANCH   1  14
BRANCH   3  22
HETATM   22  N2  UNL     1      22.296   4.534  52.107  1.00  0.00    -0.341 N 
HETATM   23  H5  UNL     1      22.481   5.375  52.692  1.00  0.00     0.167 HD
BRANCH  22  24
HETATM   24  C8  UNL     1      22.051   4.749  50.707  1.00  0.00     0.024 C 
HETATM   25  P1  UNL     1      23.023   4.331  49.427  1.00  0.00    -0.009 P 
HETATM   26  C9  UNL     1      22.354   4.781  47.748  1.00  0.00     0.212 C 
HETATM   27  O2  UNL     1      21.377   5.742  48.009  1.00  0.00    -0.386 OA
HETATM   28  C10 UNL     1      20.467   5.156  48.881  1.00  0.00     0.174 C 
HETATM   29  C11 UNL     1      20.786   5.425  50.321  1.00  0.00     0.084 C 
ENDBRANCH  22  24
ENDBRANCH   3  22
TORSDOF 4
ENDMDL
