MODEL 1
REMARK VINA RESULT:      -8.1      0.000      0.000
REMARK  4 active torsions:
REMARK  status: ('A' for Active; 'I' for Inactive)
REMARK    1  A    between atoms: C1_2  and  O2_3 
REMARK    2  A    between atoms: C1_2  and  C2_4 
REMARK    3  A    between atoms: C2_4  and  C3_5 
REMARK    4  A    between atoms: C3_5  and  C4_6 
ROOT
HETATM    1  C4  UNL     1      26.579   1.801  51.470  1.00  0.00     0.027 C 
HETATM    2  C5  UNL     1      27.522   1.488  52.560  1.00  0.00    -0.071 C 
HETATM    3  C6  UNL     1      27.562   0.371  53.299  1.00  0.00    -0.050 C 
HETATM    4  C7  UNL     1      28.720   0.563  54.281  1.00  0.00     0.036 C 
HETATM    5  C8  UNL     1      29.148   1.966  54.262  1.00  0.00     0.009 C 
HETATM    6  C9  UNL     1      28.587   2.448  52.947  1.00  0.00     0.035 C 
HETATM    7  C10 UNL     1      26.880  -0.959  53.456  1.00  0.00     0.304 C 
HETATM    8  N1  UNL     1      25.679  -1.022  54.151  1.00  0.00     0.091 NA
HETATM    9  C11 UNL     1      24.414  -0.703  53.682  1.00  0.00     0.312 C 
HETATM   10  C12 UNL     1      24.111   0.684  53.277  1.00  0.00     0.012 C 
HETATM   11  C13 UNL     1      23.194   1.504  52.793  1.00  0.00    -0.013 C 
HETATM   12  C14 UNL     1      24.052   2.320  51.788  1.00  0.00     0.041 C 
HETATM   13  C15 UNL     1      25.236   1.405  51.916  1.00  0.00     0.072 C 
HETATM   14  C16 UNL     1      25.257   1.573  53.393  1.00  0.00     0.162 C 
HETATM   15  O3  UNL     1      25.830   2.109  54.360  1.00  0.00    -0.292 OA
HETATM   16  H15 UNL     1      25.823  -0.546  55.094  1.00  0.00     0.316 HD
ENDROOT
BRANCH   1  17
HETATM   17  C3  UNL     1      26.502   3.117  50.865  1.00  0.00     0.020 C 
BRANCH  17  18
HETATM   18  C2  UNL     1      26.628   3.332  49.411  1.00  0.00     0.110 C 
BRANCH  18  19
HETATM   19  C1  UNL     1      27.221   4.644  49.047  1.00  0.00     0.139 C 
HETATM   20  O1  UNL     1      26.380   5.516  48.633  1.00  0.00    -0.650 OA
BRANCH  19  21
HETATM   21  O2  UNL     1      28.533   5.091  49.079  1.00  0.00    -0.776 OA
HETATM   22  H1  UNL     1      28.837   5.886  48.485  1.00  0.00     0.167 HD
ENDBRANCH  19  21
ENDBRANCH  18  19
ENDBRANCH  17  18
ENDBRANCH   1  17
TORSDOF 4
ENDMDL
MODEL 2
REMARK VINA RESULT:      -7.9      2.638      5.995
REMARK  4 active torsions:
REMARK  status: ('A' for Active; 'I' for Inactive)
REMARK    1  A    between atoms: C1_2  and  O2_3 
REMARK    2  A    between atoms: C1_2  and  C2_4 
REMARK    3  A    between atoms: C2_4  and  C3_5 
REMARK    4  A    between atoms: C3_5  and  C4_6 
ROOT
HETATM    1  C4  UNL     1      24.360   0.323  52.727  1.00  0.00     0.027 C 
HETATM    2  C5  UNL     1      24.102   1.685  52.224  1.00  0.00    -0.071 C 
HETATM    3  C6  UNL     1      24.951   2.472  51.547  1.00  0.00    -0.050 C 
HETATM    4  C7  UNL     1      24.186   3.769  51.274  1.00  0.00     0.036 C 
HETATM    5  C8  UNL     1      22.964   3.796  52.084  1.00  0.00     0.009 C 
HETATM    6  C9  UNL     1      22.785   2.339  52.431  1.00  0.00     0.035 C 
HETATM    7  C10 UNL     1      26.342   2.485  50.979  1.00  0.00     0.304 C 
HETATM    8  N1  UNL     1      27.413   2.739  51.827  1.00  0.00     0.091 NA
HETATM    9  C11 UNL     1      28.036   1.852  52.690  1.00  0.00     0.312 C 
HETATM   10  C12 UNL     1      27.278   1.271  53.817  1.00  0.00     0.012 C 
HETATM   11  C13 UNL     1      27.320   0.451  54.853  1.00  0.00    -0.013 C 
HETATM   12  C14 UNL     1      25.949  -0.262  54.698  1.00  0.00     0.041 C 
HETATM   13  C15 UNL     1      25.697   0.320  53.338  1.00  0.00     0.072 C 
HETATM   14  C16 UNL     1      25.889   1.702  53.848  1.00  0.00     0.162 C 
HETATM   15  O3  UNL     1      25.330   2.765  54.178  1.00  0.00    -0.292 OA
HETATM   16  H15 UNL     1      27.202   3.639  52.357  1.00  0.00     0.316 HD
ENDROOT
BRANCH   1  17
HETATM   17  C3  UNL     1      23.439  -0.364  53.612  1.00  0.00     0.020 C 
BRANCH  17  18
HETATM   18  C2  UNL     1      22.223  -1.043  53.124  1.00  0.00     0.110 C 
BRANCH  18  19
HETATM   19  C1  UNL     1      21.341  -1.545  54.207  1.00  0.00     0.139 C 
HETATM   20  O1  UNL     1      21.947  -1.858  55.291  1.00  0.00    -0.650 OA
BRANCH  19  21
HETATM   21  O2  UNL     1      19.967  -1.734  54.250  1.00  0.00    -0.776 OA
HETATM   22  H1  UNL     1      19.327  -1.081  53.761  1.00  0.00     0.167 HD
ENDBRANCH  19  21
ENDBRANCH  18  19
ENDBRANCH  17  18
ENDBRANCH   1  17
TORSDOF 4
ENDMDL
MODEL 3
REMARK VINA RESULT:      -7.4      2.851      5.141
REMARK  4 active torsions:
REMARK  status: ('A' for Active; 'I' for Inactive)
REMARK    1  A    between atoms: C1_2  and  O2_3 
REMARK    2  A    between atoms: C1_2  and  C2_4 
REMARK    3  A    between atoms: C2_4  and  C3_5 
REMARK    4  A    between atoms: C3_5  and  C4_6 
ROOT
HETATM    1  C4  UNL     1      24.470   1.365  53.111  1.00  0.00     0.027 C 
HETATM    2  C5  UNL     1      24.805   2.377  52.092  1.00  0.00    -0.071 C 
HETATM    3  C6  UNL     1      24.140   3.509  51.826  1.00  0.00    -0.050 C 
HETATM    4  C7  UNL     1      24.906   4.183  50.685  1.00  0.00     0.036 C 
HETATM    5  C8  UNL     1      25.869   3.235  50.117  1.00  0.00     0.009 C 
HETATM    6  C9  UNL     1      25.999   2.218  51.223  1.00  0.00     0.035 C 
HETATM    7  C10 UNL     1      22.948   4.306  52.278  1.00  0.00     0.304 C 
HETATM    8  N1  UNL     1      21.684   3.932  51.840  1.00  0.00     0.091 NA
HETATM    9  C11 UNL     1      20.885   2.914  52.335  1.00  0.00     0.312 C 
HETATM   10  C12 UNL     1      21.337   1.511  52.233  1.00  0.00     0.012 C 
HETATM   11  C13 UNL     1      21.051   0.250  52.505  1.00  0.00    -0.013 C 
HETATM   12  C14 UNL     1      22.437  -0.250  52.995  1.00  0.00     0.041 C 
HETATM   13  C15 UNL     1      23.020   1.132  53.046  1.00  0.00     0.072 C 
HETATM   14  C16 UNL     1      22.654   1.383  51.628  1.00  0.00     0.162 C 
HETATM   15  O3  UNL     1      23.071   1.476  50.458  1.00  0.00    -0.292 OA
HETATM   16  H15 UNL     1      21.717   3.854  50.778  1.00  0.00     0.316 HD
ENDROOT
BRANCH   1  17
HETATM   17  C3  UNL     1      25.146   0.085  53.186  1.00  0.00     0.020 C 
BRANCH  17  18
HETATM   18  C2  UNL     1      25.866  -0.365  54.393  1.00  0.00     0.110 C 
BRANCH  18  19
HETATM   19  C1  UNL     1      27.185   0.289  54.584  1.00  0.00     0.139 C 
HETATM   20  O1  UNL     1      28.158  -0.517  54.788  1.00  0.00    -0.650 OA
BRANCH  19  21
HETATM   21  O2  UNL     1      27.548   1.628  54.580  1.00  0.00    -0.776 OA
HETATM   22  H1  UNL     1      26.971   2.334  55.074  1.00  0.00     0.167 HD
ENDBRANCH  19  21
ENDBRANCH  18  19
ENDBRANCH  17  18
ENDBRANCH   1  17
TORSDOF 4
ENDMDL
MODEL 4
REMARK VINA RESULT:      -7.3      2.784      5.098
REMARK  4 active torsions:
REMARK  status: ('A' for Active; 'I' for Inactive)
REMARK    1  A    between atoms: C1_2  and  O2_3 
REMARK    2  A    between atoms: C1_2  and  C2_4 
REMARK    3  A    between atoms: C2_4  and  C3_5 
REMARK    4  A    between atoms: C3_5  and  C4_6 
ROOT
HETATM    1  C4  UNL     1      24.166   1.869  52.527  1.00  0.00     0.027 C 
HETATM    2  C5  UNL     1      23.698   2.770  51.457  1.00  0.00    -0.071 C 
HETATM    3  C6  UNL     1      22.572   3.498  51.447  1.00  0.00    -0.050 C 
HETATM    4  C7  UNL     1      22.572   4.244  50.111  1.00  0.00     0.036 C 
HETATM    5  C8  UNL     1      23.603   3.678  49.236  1.00  0.00     0.009 C 
HETATM    6  C9  UNL     1      24.497   2.968  50.221  1.00  0.00     0.035 C 
HETATM    7  C10 UNL     1      21.373   3.818  52.295  1.00  0.00     0.304 C 
HETATM    8  N1  UNL     1      20.316   2.918  52.333  1.00  0.00     0.091 NA
HETATM    9  C11 UNL     1      20.225   1.752  53.076  1.00  0.00     0.312 C 
HETATM   10  C12 UNL     1      21.164   0.642  52.816  1.00  0.00     0.012 C 
HETATM   11  C13 UNL     1      21.538  -0.576  53.168  1.00  0.00    -0.013 C 
HETATM   12  C14 UNL     1      23.082  -0.413  53.134  1.00  0.00     0.041 C 
HETATM   13  C15 UNL     1      23.013   1.078  52.979  1.00  0.00     0.072 C 
HETATM   14  C16 UNL     1      22.139   0.955  51.783  1.00  0.00     0.162 C 
HETATM   15  O3  UNL     1      22.077   1.031  50.542  1.00  0.00    -0.292 OA
HETATM   16  H15 UNL     1      20.034   2.704  51.327  1.00  0.00     0.316 HD
ENDROOT
BRANCH   1  17
HETATM   17  C3  UNL     1      25.302   0.984  52.353  1.00  0.00     0.020 C 
BRANCH  17  18
HETATM   18  C2  UNL     1      26.438   0.954  53.294  1.00  0.00     0.110 C 
BRANCH  18  19
HETATM   19  C1  UNL     1      27.382   2.088  53.131  1.00  0.00     0.139 C 
HETATM   20  O1  UNL     1      27.571   2.459  51.920  1.00  0.00    -0.650 OA
BRANCH  19  21
HETATM   21  O2  UNL     1      28.097   2.821  54.067  1.00  0.00    -0.776 OA
HETATM   22  H1  UNL     1      28.981   2.452  54.465  1.00  0.00     0.167 HD
ENDBRANCH  19  21
ENDBRANCH  18  19
ENDBRANCH  17  18
ENDBRANCH   1  17
TORSDOF 4
ENDMDL
MODEL 5
REMARK VINA RESULT:      -7.1      3.114      5.831
REMARK  4 active torsions:
REMARK  status: ('A' for Active; 'I' for Inactive)
REMARK    1  A    between atoms: C1_2  and  O2_3 
REMARK    2  A    between atoms: C1_2  and  C2_4 
REMARK    3  A    between atoms: C2_4  and  C3_5 
REMARK    4  A    between atoms: C3_5  and  C4_6 
ROOT
HETATM    1  C4  UNL     1      23.959   0.644  52.354  1.00  0.00     0.027 C 
HETATM    2  C5  UNL     1      22.503   0.464  52.507  1.00  0.00    -0.071 C 
HETATM    3  C6  UNL     1      21.580   0.471  51.535  1.00  0.00    -0.050 C 
HETATM    4  C7  UNL     1      20.238   0.246  52.235  1.00  0.00     0.036 C 
HETATM    5  C8  UNL     1      20.408   0.406  53.682  1.00  0.00     0.009 C 
HETATM    6  C9  UNL     1      21.898   0.233  53.844  1.00  0.00     0.035 C 
HETATM    7  C10 UNL     1      21.445   0.604  50.044  1.00  0.00     0.304 C 
HETATM    8  N1  UNL     1      21.474   1.871  49.476  1.00  0.00     0.091 NA
HETATM    9  C11 UNL     1      22.587   2.648  49.199  1.00  0.00     0.312 C 
HETATM   10  C12 UNL     1      23.443   3.122  50.306  1.00  0.00     0.012 C 
HETATM   11  C13 UNL     1      24.525   3.808  50.632  1.00  0.00    -0.013 C 
HETATM   12  C14 UNL     1      25.126   2.878  51.721  1.00  0.00     0.041 C 
HETATM   13  C15 UNL     1      24.173   1.757  51.419  1.00  0.00     0.072 C 
HETATM   14  C16 UNL     1      23.000   2.650  51.608  1.00  0.00     0.162 C 
HETATM   15  O3  UNL     1      22.060   2.969  52.360  1.00  0.00    -0.292 OA
HETATM   16  H15 UNL     1      20.756   2.472  49.985  1.00  0.00     0.316 HD
ENDROOT
BRANCH   1  17
HETATM   17  C3  UNL     1      24.843   0.810  53.491  1.00  0.00     0.020 C 
BRANCH  17  18
HETATM   18  C2  UNL     1      25.752  -0.256  53.955  1.00  0.00     0.110 C 
BRANCH  18  19
HETATM   19  C1  UNL     1      27.034   0.248  54.509  1.00  0.00     0.139 C 
HETATM   20  O1  UNL     1      27.093   1.518  54.656  1.00  0.00    -0.650 OA
BRANCH  19  21
HETATM   21  O2  UNL     1      28.184  -0.422  54.899  1.00  0.00    -0.776 OA
HETATM   22  H1  UNL     1      28.721  -0.991  54.218  1.00  0.00     0.167 HD
ENDBRANCH  19  21
ENDBRANCH  18  19
ENDBRANCH  17  18
ENDBRANCH   1  17
TORSDOF 4
ENDMDL
MODEL 6
REMARK VINA RESULT:      -7.1      3.051      5.115
REMARK  4 active torsions:
REMARK  status: ('A' for Active; 'I' for Inactive)
REMARK    1  A    between atoms: C1_2  and  O2_3 
REMARK    2  A    between atoms: C1_2  and  C2_4 
REMARK    3  A    between atoms: C2_4  and  C3_5 
REMARK    4  A    between atoms: C3_5  and  C4_6 
ROOT
HETATM    1  C4  UNL     1      23.431   1.585  51.182  1.00  0.00     0.027 C 
HETATM    2  C5  UNL     1      23.736   3.014  50.980  1.00  0.00    -0.071 C 
HETATM    3  C6  UNL     1      24.936   3.558  50.734  1.00  0.00    -0.050 C 
HETATM    4  C7  UNL     1      24.692   5.064  50.613  1.00  0.00     0.036 C 
HETATM    5  C8  UNL     1      23.344   5.381  51.094  1.00  0.00     0.009 C 
HETATM    6  C9  UNL     1      22.661   4.037  51.023  1.00  0.00     0.035 C 
HETATM    7  C10 UNL     1      26.377   3.183  50.531  1.00  0.00     0.304 C 
HETATM    8  N1  UNL     1      27.169   2.922  51.642  1.00  0.00     0.091 NA
HETATM    9  C11 UNL     1      27.223   1.754  52.385  1.00  0.00     0.312 C 
HETATM   10  C12 UNL     1      26.028   1.300  53.126  1.00  0.00     0.012 C 
HETATM   11  C13 UNL     1      25.521   0.366  53.911  1.00  0.00    -0.013 C 
HETATM   12  C14 UNL     1      24.117   0.196  53.269  1.00  0.00     0.041 C 
HETATM   13  C15 UNL     1      24.463   1.032  52.071  1.00  0.00     0.072 C 
HETATM   14  C16 UNL     1      24.878   2.169  52.933  1.00  0.00     0.162 C 
HETATM   15  O3  UNL     1      24.572   3.294  53.370  1.00  0.00    -0.292 OA
HETATM   16  H15 UNL     1      27.074   3.748  52.310  1.00  0.00     0.316 HD
ENDROOT
BRANCH   1  17
HETATM   17  C3  UNL     1      22.131   1.126  51.631  1.00  0.00     0.020 C 
BRANCH  17  18
HETATM   18  C2  UNL     1      21.189   0.415  50.745  1.00  0.00     0.110 C 
BRANCH  18  19
HETATM   19  C1  UNL     1      20.997   1.069  49.426  1.00  0.00     0.139 C 
HETATM   20  O1  UNL     1      20.057   1.937  49.389  1.00  0.00    -0.650 OA
BRANCH  19  21
HETATM   21  O2  UNL     1      21.663   0.902  48.220  1.00  0.00    -0.776 OA
HETATM   22  H1  UNL     1      22.573   1.369  48.049  1.00  0.00     0.167 HD
ENDBRANCH  19  21
ENDBRANCH  18  19
ENDBRANCH  17  18
ENDBRANCH   1  17
TORSDOF 4
ENDMDL
MODEL 7
REMARK VINA RESULT:      -6.7      3.120      5.935
REMARK  4 active torsions:
REMARK  status: ('A' for Active; 'I' for Inactive)
REMARK    1  A    between atoms: C1_2  and  O2_3 
REMARK    2  A    between atoms: C1_2  and  C2_4 
REMARK    3  A    between atoms: C2_4  and  C3_5 
REMARK    4  A    between atoms: C3_5  and  C4_6 
ROOT
HETATM    1  C4  UNL     1      22.613   1.056  52.802  1.00  0.00     0.027 C 
HETATM    2  C5  UNL     1      24.055   1.358  52.866  1.00  0.00    -0.071 C 
HETATM    3  C6  UNL     1      24.622   2.548  53.108  1.00  0.00    -0.050 C 
HETATM    4  C7  UNL     1      26.133   2.306  53.058  1.00  0.00     0.036 C 
HETATM    5  C8  UNL     1      26.396   0.983  52.484  1.00  0.00     0.009 C 
HETATM    6  C9  UNL     1      25.068   0.291  52.665  1.00  0.00     0.035 C 
HETATM    7  C10 UNL     1      24.271   3.976  53.417  1.00  0.00     0.304 C 
HETATM    8  N1  UNL     1      23.894   4.817  52.377  1.00  0.00     0.091 NA
HETATM    9  C11 UNL     1      22.653   4.900  51.765  1.00  0.00     0.312 C 
HETATM   10  C12 UNL     1      22.123   3.738  51.022  1.00  0.00     0.012 C 
HETATM   11  C13 UNL     1      21.110   3.262  50.318  1.00  0.00    -0.013 C 
HETATM   12  C14 UNL     1      21.010   1.830  50.909  1.00  0.00     0.041 C 
HETATM   13  C15 UNL     1      21.968   2.124  52.026  1.00  0.00     0.072 C 
HETATM   14  C16 UNL     1      23.008   2.584  51.068  1.00  0.00     0.162 C 
HETATM   15  O3  UNL     1      24.080   2.304  50.501  1.00  0.00    -0.292 OA
HETATM   16  H15 UNL     1      24.643   4.757  51.621  1.00  0.00     0.316 HD
ENDROOT
BRANCH   1  17
HETATM   17  C3  UNL     1      22.108  -0.224  52.346  1.00  0.00     0.020 C 
BRANCH  17  18
HETATM   18  C2  UNL     1      22.027  -1.407  53.224  1.00  0.00     0.110 C 
BRANCH  18  19
HETATM   19  C1  UNL     1      21.659  -1.089  54.627  1.00  0.00     0.139 C 
HETATM   20  O1  UNL     1      22.312  -1.742  55.514  1.00  0.00    -0.650 OA
BRANCH  19  21
HETATM   21  O2  UNL     1      20.727  -0.201  55.146  1.00  0.00    -0.776 OA
HETATM   22  H1  UNL     1      20.254   0.488  54.533  1.00  0.00     0.167 HD
ENDBRANCH  19  21
ENDBRANCH  18  19
ENDBRANCH  17  18
ENDBRANCH   1  17
TORSDOF 4
ENDMDL
MODEL 8
REMARK VINA RESULT:      -6.7      4.104      6.803
REMARK  4 active torsions:
REMARK  status: ('A' for Active; 'I' for Inactive)
REMARK    1  A    between atoms: C1_2  and  O2_3 
REMARK    2  A    between atoms: C1_2  and  C2_4 
REMARK    3  A    between atoms: C2_4  and  C3_5 
REMARK    4  A    between atoms: C3_5  and  C4_6 
ROOT
HETATM    1  C4  UNL     1      22.264   1.326  52.710  1.00  0.00     0.027 C 
HETATM    2  C5  UNL     1      23.094   2.308  51.989  1.00  0.00    -0.071 C 
HETATM    3  C6  UNL     1      22.800   3.594  51.747  1.00  0.00    -0.050 C 
HETATM    4  C7  UNL     1      23.992   4.153  50.967  1.00  0.00     0.036 C 
HETATM    5  C8  UNL     1      24.845   3.047  50.520  1.00  0.00     0.009 C 
HETATM    6  C9  UNL     1      24.423   1.931  51.443  1.00  0.00     0.035 C 
HETATM    7  C10 UNL     1      21.734   4.623  52.000  1.00  0.00     0.304 C 
HETATM    8  N1  UNL     1      20.600   4.629  51.197  1.00  0.00     0.091 NA
HETATM    9  C11 UNL     1      19.489   3.808  51.298  1.00  0.00     0.312 C 
HETATM   10  C12 UNL     1      19.632   2.352  51.090  1.00  0.00     0.012 C 
HETATM   11  C13 UNL     1      19.009   1.186  51.071  1.00  0.00    -0.013 C 
HETATM   12  C14 UNL     1      20.048   0.304  51.815  1.00  0.00     0.041 C 
HETATM   13  C15 UNL     1      20.881   1.479  52.237  1.00  0.00     0.072 C 
HETATM   14  C16 UNL     1      21.005   1.948  50.832  1.00  0.00     0.162 C 
HETATM   15  O3  UNL     1      21.752   2.040  49.840  1.00  0.00    -0.292 OA
HETATM   16  H15 UNL     1      20.922   4.644  50.180  1.00  0.00     0.316 HD
ENDROOT
BRANCH   1  17
HETATM   17  C3  UNL     1      22.591  -0.086  52.749  1.00  0.00     0.020 C 
BRANCH  17  18
HETATM   18  C2  UNL     1      23.263  -0.716  53.902  1.00  0.00     0.110 C 
BRANCH  18  19
HETATM   19  C1  UNL     1      22.329  -1.320  54.885  1.00  0.00     0.139 C 
HETATM   20  O1  UNL     1      22.894  -1.896  55.878  1.00  0.00    -0.650 OA
BRANCH  19  21
HETATM   21  O2  UNL     1      20.942  -1.368  54.914  1.00  0.00    -0.776 OA
HETATM   22  H1  UNL     1      20.433  -1.414  55.817  1.00  0.00     0.167 HD
ENDBRANCH  19  21
ENDBRANCH  18  19
ENDBRANCH  17  18
ENDBRANCH   1  17
TORSDOF 4
ENDMDL
MODEL 9
REMARK VINA RESULT:      -6.7      7.195      9.841
REMARK  4 active torsions:
REMARK  status: ('A' for Active; 'I' for Inactive)
REMARK    1  A    between atoms: C1_2  and  O2_3 
REMARK    2  A    between atoms: C1_2  and  C2_4 
REMARK    3  A    between atoms: C2_4  and  C3_5 
REMARK    4  A    between atoms: C3_5  and  C4_6 
ROOT
HETATM    1  C4  UNL     1      31.854   5.846  48.121  1.00  0.00     0.027 C 
HETATM    2  C5  UNL     1      32.879   4.833  47.807  1.00  0.00    -0.071 C 
HETATM    3  C6  UNL     1      34.166   4.841  48.182  1.00  0.00    -0.050 C 
HETATM    4  C7  UNL     1      34.779   3.570  47.590  1.00  0.00     0.036 C 
HETATM    5  C8  UNL     1      33.852   2.989  46.614  1.00  0.00     0.009 C 
HETATM    6  C9  UNL     1      32.543   3.630  47.003  1.00  0.00     0.035 C 
HETATM    7  C10 UNL     1      35.154   5.650  48.975  1.00  0.00     0.304 C 
HETATM    8  N1  UNL     1      35.732   6.769  48.390  1.00  0.00     0.091 NA
HETATM    9  C11 UNL     1      35.179   8.032  48.252  1.00  0.00     0.312 C 
HETATM   10  C12 UNL     1      33.973   8.217  47.420  1.00  0.00     0.012 C 
HETATM   11  C13 UNL     1      33.080   9.081  46.968  1.00  0.00    -0.013 C 
HETATM   12  C14 UNL     1      31.780   8.248  47.132  1.00  0.00     0.041 C 
HETATM   13  C15 UNL     1      32.461   7.169  47.924  1.00  0.00     0.072 C 
HETATM   14  C16 UNL     1      33.476   6.971  46.856  1.00  0.00     0.162 C 
HETATM   15  O3  UNL     1      33.859   6.240  45.924  1.00  0.00    -0.292 OA
HETATM   16  H15 UNL     1      36.141   6.471  47.451  1.00  0.00     0.316 HD
ENDROOT
BRANCH   1  17
HETATM   17  C3  UNL     1      30.541   5.836  47.507  1.00  0.00     0.020 C 
BRANCH  17  18
HETATM   18  C2  UNL     1      29.310   5.536  48.263  1.00  0.00     0.110 C 
BRANCH  18  19
HETATM   19  C1  UNL     1      28.350   6.668  48.320  1.00  0.00     0.139 C 
HETATM   20  O1  UNL     1      28.257   7.346  47.238  1.00  0.00    -0.650 OA
BRANCH  19  21
HETATM   21  O2  UNL     1      27.532   7.119  49.346  1.00  0.00    -0.776 OA
HETATM   22  H1  UNL     1      26.728   6.551  49.671  1.00  0.00     0.167 HD
ENDBRANCH  19  21
ENDBRANCH  18  19
ENDBRANCH  17  18
ENDBRANCH   1  17
TORSDOF 4
ENDMDL
