MODEL 1
REMARK VINA RESULT:      -8.4      0.000      0.000
REMARK  6 active torsions:
REMARK  status: ('A' for Active; 'I' for Inactive)
REMARK    1  A    between atoms: N2_5  and  C4_6 
REMARK    2  A    between atoms: C9_12  and  N3_13 
REMARK    3  A    between atoms: N3_13  and  C10_14 
REMARK    4  A    between atoms: C10_14  and  C11_15 
REMARK    5  A    between atoms: C11_15  and  C12_16 
REMARK    6  A    between atoms: C12_16  and  C13_17 
ROOT
HETATM    1  N1  UNL     1      27.832   2.424  52.342  1.00  0.00    -0.196 NA
HETATM    2  C1  UNL     1      27.083   1.795  53.001  1.00  0.00     0.079 C 
HETATM    3  C2  UNL     1      26.158   1.016  53.805  1.00  0.00     0.106 A 
HETATM    4  C3  UNL     1      25.061   1.503  53.485  1.00  0.00     0.016 A 
HETATM    5  N2  UNL     1      24.128   2.245  52.929  1.00  0.00    -0.359 N 
HETATM    6  C14 UNL     1      24.729  -0.028  53.708  1.00  0.00     0.092 A 
HETATM    7  C15 UNL     1      26.035  -0.614  53.149  1.00  0.00     0.047 A 
HETATM    8  C16 UNL     1      27.079  -1.182  52.544  1.00  0.00    -0.018 C 
HETATM    9  C17 UNL     1      28.441  -1.054  53.125  1.00  0.00     0.016 C 
HETATM   10  C18 UNL     1      29.115  -0.592  54.143  1.00  0.00     0.115 C 
HETATM   11  N4  UNL     1      28.026  -0.158  54.778  1.00  0.00    -0.275 NA
HETATM   12  C19 UNL     1      26.987   0.387  54.742  1.00  0.00     0.118 C 
HETATM   13  H1  UNL     1      24.586   1.960  52.005  1.00  0.00     0.165 HD
ENDROOT
BRANCH   5  14
HETATM   14  C4  UNL     1      23.158   3.009  52.382  1.00  0.00     0.060 A 
HETATM   15  C5  UNL     1      21.939   2.342  52.645  1.00  0.00     0.032 A 
HETATM   16  C6  UNL     1      20.710   2.859  52.215  1.00  0.00     0.004 A 
HETATM   17  C7  UNL     1      20.831   4.043  51.529  1.00  0.00     0.021 A 
HETATM   18  C8  UNL     1      22.011   4.701  51.267  1.00  0.00     0.039 A 
HETATM   19 BR1  UNL     1      21.939   6.301  50.238  1.00  0.00    -0.049 Br
HETATM   20  C9  UNL     1      23.197   4.200  51.689  1.00  0.00     0.072 A 
BRANCH  20  21
HETATM   21  N3  UNL     1      24.478   4.771  51.477  1.00  0.00    -0.387 N 
HETATM   22  H5  UNL     1      24.917   5.544  52.035  1.00  0.00     0.159 HD
BRANCH  21  23
HETATM   23  C10 UNL     1      25.140   4.146  50.335  1.00  0.00     0.120 C 
BRANCH  23  24
HETATM   24  C11 UNL     1      26.011   5.051  49.538  1.00  0.00     0.026 C 
BRANCH  24  25
HETATM   25  C12 UNL     1      27.222   4.338  48.908  1.00  0.00     0.071 C 
BRANCH  25  26
HETATM   26  C13 UNL     1      28.288   5.284  48.523  1.00  0.00     0.231 C 
HETATM   27  O1  UNL     1      29.449   5.156  48.192  1.00  0.00    -0.307 OA
ENDBRANCH  25  26
ENDBRANCH  24  25
ENDBRANCH  23  24
ENDBRANCH  21  23
ENDBRANCH  20  21
ENDBRANCH   5  14
TORSDOF 6
ENDMDL
MODEL 2
REMARK VINA RESULT:      -8.4      3.419      4.946
REMARK  6 active torsions:
REMARK  status: ('A' for Active; 'I' for Inactive)
REMARK    1  A    between atoms: N2_5  and  C4_6 
REMARK    2  A    between atoms: C9_12  and  N3_13 
REMARK    3  A    between atoms: N3_13  and  C10_14 
REMARK    4  A    between atoms: C10_14  and  C11_15 
REMARK    5  A    between atoms: C11_15  and  C12_16 
REMARK    6  A    between atoms: C12_16  and  C13_17 
ROOT
HETATM    1  N1  UNL     1      27.544   2.468  51.979  1.00  0.00    -0.196 NA
HETATM    2  C1  UNL     1      26.808   1.791  52.605  1.00  0.00     0.079 C 
HETATM    3  C2  UNL     1      25.902   0.952  53.369  1.00  0.00     0.106 A 
HETATM    4  C3  UNL     1      24.845   1.058  52.726  1.00  0.00     0.016 A 
HETATM    5  N2  UNL     1      23.946   1.406  51.831  1.00  0.00    -0.359 N 
HETATM    6  C14 UNL     1      24.811  -0.438  53.239  1.00  0.00     0.092 A 
HETATM    7  C15 UNL     1      26.313  -0.742  53.114  1.00  0.00     0.047 A 
HETATM    8  C16 UNL     1      27.575  -1.108  52.888  1.00  0.00    -0.018 C 
HETATM    9  C17 UNL     1      28.680  -0.513  53.684  1.00  0.00     0.016 C 
HETATM   10  C18 UNL     1      28.952   0.292  54.676  1.00  0.00     0.115 C 
HETATM   11  N4  UNL     1      27.669   0.524  54.953  1.00  0.00    -0.275 NA
HETATM   12  C19 UNL     1      26.581   0.753  54.578  1.00  0.00     0.118 C 
HETATM   13  H1  UNL     1      24.677   1.091  51.115  1.00  0.00     0.165 HD
ENDROOT
BRANCH   5  14
HETATM   14  C4  UNL     1      23.006   1.767  50.931  1.00  0.00     0.060 A 
HETATM   15  C5  UNL     1      23.635   2.681  50.054  1.00  0.00     0.032 A 
HETATM   16  C6  UNL     1      22.946   3.267  48.984  1.00  0.00     0.004 A 
HETATM   17  C7  UNL     1      21.636   2.865  48.899  1.00  0.00     0.021 A 
HETATM   18  C8  UNL     1      21.013   1.976  49.746  1.00  0.00     0.039 A 
HETATM   19 BR1  UNL     1      19.164   1.616  49.471  1.00  0.00    -0.049 Br
HETATM   20  C9  UNL     1      21.685   1.407  50.777  1.00  0.00     0.072 A 
BRANCH  20  21
HETATM   21  N3  UNL     1      21.160   0.490  51.722  1.00  0.00    -0.387 N 
HETATM   22  H5  UNL     1      21.069  -0.548  51.600  1.00  0.00     0.159 HD
BRANCH  21  23
HETATM   23  C10 UNL     1      20.727   1.186  52.931  1.00  0.00     0.120 C 
BRANCH  23  24
HETATM   24  C11 UNL     1      20.877   0.410  54.192  1.00  0.00     0.026 C 
BRANCH  24  25
HETATM   25  C12 UNL     1      20.650  -1.103  54.011  1.00  0.00     0.071 C 
BRANCH  25  26
HETATM   26  C13 UNL     1      21.714  -1.907  54.644  1.00  0.00     0.231 C 
HETATM   27  O1  UNL     1      22.495  -1.706  55.551  1.00  0.00    -0.307 OA
ENDBRANCH  25  26
ENDBRANCH  24  25
ENDBRANCH  23  24
ENDBRANCH  21  23
ENDBRANCH  20  21
ENDBRANCH   5  14
TORSDOF 6
ENDMDL
MODEL 3
REMARK VINA RESULT:      -8.4      3.251      4.771
REMARK  6 active torsions:
REMARK  status: ('A' for Active; 'I' for Inactive)
REMARK    1  A    between atoms: N2_5  and  C4_6 
REMARK    2  A    between atoms: C9_12  and  N3_13 
REMARK    3  A    between atoms: N3_13  and  C10_14 
REMARK    4  A    between atoms: C10_14  and  C11_15 
REMARK    5  A    between atoms: C11_15  and  C12_16 
REMARK    6  A    between atoms: C12_16  and  C13_17 
ROOT
HETATM    1  N1  UNL     1      27.905   2.398  52.394  1.00  0.00    -0.196 NA
HETATM    2  C1  UNL     1      27.188   1.748  53.068  1.00  0.00     0.079 C 
HETATM    3  C2  UNL     1      26.301   0.943  53.890  1.00  0.00     0.106 A 
HETATM    4  C3  UNL     1      25.185   1.394  53.586  1.00  0.00     0.016 A 
HETATM    5  N2  UNL     1      24.219   2.104  53.044  1.00  0.00    -0.359 N 
HETATM    6  C14 UNL     1      24.905  -0.146  53.819  1.00  0.00     0.092 A 
HETATM    7  C15 UNL     1      26.219  -0.692  53.240  1.00  0.00     0.047 A 
HETATM    8  C16 UNL     1      27.270  -1.229  52.619  1.00  0.00    -0.018 C 
HETATM    9  C17 UNL     1      28.636  -1.057  53.176  1.00  0.00     0.016 C 
HETATM   10  C18 UNL     1      29.313  -0.570  54.182  1.00  0.00     0.115 C 
HETATM   11  N4  UNL     1      28.222  -0.169  54.833  1.00  0.00    -0.275 NA
HETATM   12  C19 UNL     1      27.166   0.343  54.814  1.00  0.00     0.118 C 
HETATM   13  H1  UNL     1      24.671   1.831  52.113  1.00  0.00     0.165 HD
ENDROOT
BRANCH   5  14
HETATM   14  C4  UNL     1      23.217   2.836  52.512  1.00  0.00     0.060 A 
HETATM   15  C5  UNL     1      23.659   4.179  52.535  1.00  0.00     0.032 A 
HETATM   16  C6  UNL     1      22.861   5.225  52.052  1.00  0.00     0.004 A 
HETATM   17  C7  UNL     1      21.643   4.802  51.578  1.00  0.00     0.021 A 
HETATM   18  C8  UNL     1      21.202   3.498  51.550  1.00  0.00     0.039 A 
HETATM   19 BR1  UNL     1      19.445   3.157  50.904  1.00  0.00    -0.049 Br
HETATM   20  C9  UNL     1      21.980   2.489  52.014  1.00  0.00     0.072 A 
BRANCH  20  21
HETATM   21  N3  UNL     1      21.641   1.113  52.051  1.00  0.00    -0.387 N 
HETATM   22  H5  UNL     1      21.708   0.432  51.255  1.00  0.00     0.159 HD
BRANCH  21  23
HETATM   23  C10 UNL     1      21.154   0.736  53.375  1.00  0.00     0.120 C 
BRANCH  23  24
HETATM   24  C11 UNL     1      19.962  -0.153  53.378  1.00  0.00     0.026 C 
BRANCH  24  25
HETATM   25  C12 UNL     1      20.225  -1.530  54.018  1.00  0.00     0.071 C 
BRANCH  25  26
HETATM   26  C13 UNL     1      21.645  -1.716  54.378  1.00  0.00     0.231 C 
HETATM   27  O1  UNL     1      22.235  -1.866  55.427  1.00  0.00    -0.307 OA
ENDBRANCH  25  26
ENDBRANCH  24  25
ENDBRANCH  23  24
ENDBRANCH  21  23
ENDBRANCH  20  21
ENDBRANCH   5  14
TORSDOF 6
ENDMDL
MODEL 4
REMARK VINA RESULT:      -7.9      2.164      2.839
REMARK  6 active torsions:
REMARK  status: ('A' for Active; 'I' for Inactive)
REMARK    1  A    between atoms: N2_5  and  C4_6 
REMARK    2  A    between atoms: C9_12  and  N3_13 
REMARK    3  A    between atoms: N3_13  and  C10_14 
REMARK    4  A    between atoms: C10_14  and  C11_15 
REMARK    5  A    between atoms: C11_15  and  C12_16 
REMARK    6  A    between atoms: C12_16  and  C13_17 
ROOT
HETATM    1  N1  UNL     1      26.077  -0.470  55.601  1.00  0.00    -0.196 NA
HETATM    2  C1  UNL     1      26.204  -0.299  54.441  1.00  0.00     0.079 C 
HETATM    3  C2  UNL     1      26.360  -0.078  53.013  1.00  0.00     0.106 A 
HETATM    4  C3  UNL     1      25.239   0.347  52.692  1.00  0.00     0.016 A 
HETATM    5  N2  UNL     1      23.983   0.739  52.728  1.00  0.00    -0.359 N 
HETATM    6  C14 UNL     1      26.219   1.154  51.748  1.00  0.00     0.092 A 
HETATM    7  C15 UNL     1      27.375   1.337  52.744  1.00  0.00     0.047 A 
HETATM    8  C16 UNL     1      28.342   1.652  53.607  1.00  0.00    -0.018 C 
HETATM    9  C17 UNL     1      29.222   0.593  54.164  1.00  0.00     0.016 C 
HETATM   10  C18 UNL     1      29.502  -0.682  54.113  1.00  0.00     0.115 C 
HETATM   11  N4  UNL     1      28.613  -0.928  53.152  1.00  0.00    -0.275 NA
HETATM   12  C19 UNL     1      27.540  -0.766  52.703  1.00  0.00     0.118 C 
HETATM   13  H1  UNL     1      24.305   1.377  53.524  1.00  0.00     0.165 HD
ENDROOT
BRANCH   5  14
HETATM   14  C4  UNL     1      22.690   1.126  52.743  1.00  0.00     0.060 A 
HETATM   15  C5  UNL     1      22.013   0.195  53.564  1.00  0.00     0.032 A 
HETATM   16  C6  UNL     1      20.636   0.292  53.807  1.00  0.00     0.004 A 
HETATM   17  C7  UNL     1      20.048   1.357  53.169  1.00  0.00     0.021 A 
HETATM   18  C8  UNL     1      20.697   2.270  52.367  1.00  0.00     0.039 A 
HETATM   19 BR1  UNL     1      19.660   3.631  51.533  1.00  0.00    -0.049 Br
HETATM   20  C9  UNL     1      22.030   2.175  52.140  1.00  0.00     0.072 A 
BRANCH  20  21
HETATM   21  N3  UNL     1      22.811   3.038  51.331  1.00  0.00    -0.387 N 
HETATM   22  H5  UNL     1      23.217   3.963  51.617  1.00  0.00     0.159 HD
BRANCH  21  23
HETATM   23  C10 UNL     1      22.982   2.479  49.993  1.00  0.00     0.120 C 
BRANCH  23  24
HETATM   24  C11 UNL     1      23.637   3.384  49.011  1.00  0.00     0.026 C 
BRANCH  24  25
HETATM   25  C12 UNL     1      25.063   3.802  49.419  1.00  0.00     0.071 C 
BRANCH  25  26
HETATM   26  C13 UNL     1      25.106   5.171  49.971  1.00  0.00     0.231 C 
HETATM   27  O1  UNL     1      24.632   5.697  50.956  1.00  0.00    -0.307 OA
ENDBRANCH  25  26
ENDBRANCH  24  25
ENDBRANCH  23  24
ENDBRANCH  21  23
ENDBRANCH  20  21
ENDBRANCH   5  14
TORSDOF 6
ENDMDL
MODEL 5
REMARK VINA RESULT:      -7.8      2.466      3.387
REMARK  6 active torsions:
REMARK  status: ('A' for Active; 'I' for Inactive)
REMARK    1  A    between atoms: N2_5  and  C4_6 
REMARK    2  A    between atoms: C9_12  and  N3_13 
REMARK    3  A    between atoms: N3_13  and  C10_14 
REMARK    4  A    between atoms: C10_14  and  C11_15 
REMARK    5  A    between atoms: C11_15  and  C12_16 
REMARK    6  A    between atoms: C12_16  and  C13_17 
ROOT
HETATM    1  N1  UNL     1      27.918   2.495  52.524  1.00  0.00    -0.196 NA
HETATM    2  C1  UNL     1      27.144   1.846  53.134  1.00  0.00     0.079 C 
HETATM    3  C2  UNL     1      26.187   1.044  53.877  1.00  0.00     0.106 A 
HETATM    4  C3  UNL     1      25.108   1.572  53.564  1.00  0.00     0.016 A 
HETATM    5  N2  UNL     1      24.200   2.363  53.035  1.00  0.00    -0.359 N 
HETATM    6  C14 UNL     1      24.740   0.038  53.695  1.00  0.00     0.092 A 
HETATM    7  C15 UNL     1      26.044  -0.544  53.128  1.00  0.00     0.047 A 
HETATM    8  C16 UNL     1      27.087  -1.100  52.511  1.00  0.00    -0.018 C 
HETATM    9  C17 UNL     1      28.440  -1.034  53.122  1.00  0.00     0.016 C 
HETATM   10  C18 UNL     1      29.104  -0.644  54.177  1.00  0.00     0.115 C 
HETATM   11  N4  UNL     1      28.013  -0.223  54.815  1.00  0.00    -0.275 NA
HETATM   12  C19 UNL     1      26.986   0.346  54.792  1.00  0.00     0.118 C 
HETATM   13  H1  UNL     1      24.670   2.120  52.104  1.00  0.00     0.165 HD
ENDROOT
BRANCH   5  14
HETATM   14  C4  UNL     1      23.258   3.178  52.514  1.00  0.00     0.060 A 
HETATM   15  C5  UNL     1      23.886   4.430  52.320  1.00  0.00     0.032 A 
HETATM   16  C6  UNL     1      23.195   5.526  51.787  1.00  0.00     0.004 A 
HETATM   17  C7  UNL     1      21.882   5.247  51.495  1.00  0.00     0.021 A 
HETATM   18  C8  UNL     1      21.259   4.034  51.680  1.00  0.00     0.039 A 
HETATM   19 BR1  UNL     1      19.407   3.900  51.261  1.00  0.00    -0.049 Br
HETATM   20  C9  UNL     1      21.934   2.975  52.190  1.00  0.00     0.072 A 
BRANCH  20  21
HETATM   21  N3  UNL     1      21.409   1.681  52.439  1.00  0.00    -0.387 N 
HETATM   22  H5  UNL     1      20.853   1.384  53.278  1.00  0.00     0.159 HD
BRANCH  21  23
HETATM   23  C10 UNL     1      21.757   0.765  51.356  1.00  0.00     0.120 C 
BRANCH  23  24
HETATM   24  C11 UNL     1      20.666   0.499  50.381  1.00  0.00     0.026 C 
BRANCH  24  25
HETATM   25  C12 UNL     1      20.873   1.199  49.024  1.00  0.00     0.071 C 
BRANCH  25  26
HETATM   26  C13 UNL     1      22.241   1.735  48.875  1.00  0.00     0.231 C 
HETATM   27  O1  UNL     1      22.692   2.833  48.625  1.00  0.00    -0.307 OA
ENDBRANCH  25  26
ENDBRANCH  24  25
ENDBRANCH  23  24
ENDBRANCH  21  23
ENDBRANCH  20  21
ENDBRANCH   5  14
TORSDOF 6
ENDMDL
MODEL 6
REMARK VINA RESULT:      -7.5      3.206      4.788
REMARK  6 active torsions:
REMARK  status: ('A' for Active; 'I' for Inactive)
REMARK    1  A    between atoms: N2_5  and  C4_6 
REMARK    2  A    between atoms: C9_12  and  N3_13 
REMARK    3  A    between atoms: N3_13  and  C10_14 
REMARK    4  A    between atoms: C10_14  and  C11_15 
REMARK    5  A    between atoms: C11_15  and  C12_16 
REMARK    6  A    between atoms: C12_16  and  C13_17 
ROOT
HETATM    1  N1  UNL     1      25.510   0.269  54.984  1.00  0.00    -0.196 NA
HETATM    2  C1  UNL     1      25.911   0.500  53.899  1.00  0.00     0.079 C 
HETATM    3  C2  UNL     1      26.405   0.792  52.565  1.00  0.00     0.106 A 
HETATM    4  C3  UNL     1      25.475   1.460  52.084  1.00  0.00     0.016 A 
HETATM    5  N2  UNL     1      24.334   2.093  51.921  1.00  0.00    -0.359 N 
HETATM    6  C14 UNL     1      26.765   2.121  51.448  1.00  0.00     0.092 A 
HETATM    7  C15 UNL     1      27.695   1.989  52.664  1.00  0.00     0.047 A 
HETATM    8  C16 UNL     1      28.497   2.036  53.729  1.00  0.00    -0.018 C 
HETATM    9  C17 UNL     1      29.029   0.780  54.319  1.00  0.00     0.016 C 
HETATM   10  C18 UNL     1      29.076  -0.517  54.176  1.00  0.00     0.115 C 
HETATM   11  N4  UNL     1      28.383  -0.503  53.038  1.00  0.00    -0.275 NA
HETATM   12  C19 UNL     1      27.479  -0.094  52.411  1.00  0.00     0.118 C 
HETATM   13  H1  UNL     1      24.589   2.590  52.834  1.00  0.00     0.165 HD
ENDROOT
BRANCH   5  14
HETATM   14  C4  UNL     1      23.160   2.732  51.730  1.00  0.00     0.060 A 
HETATM   15  C5  UNL     1      23.332   4.033  52.259  1.00  0.00     0.032 A 
HETATM   16  C6  UNL     1      22.301   4.981  52.231  1.00  0.00     0.004 A 
HETATM   17  C7  UNL     1      21.147   4.509  51.654  1.00  0.00     0.021 A 
HETATM   18  C8  UNL     1      20.968   3.246  51.137  1.00  0.00     0.039 A 
HETATM   19 BR1  UNL     1      19.253   2.794  50.444  1.00  0.00    -0.049 Br
HETATM   20  C9  UNL     1      21.969   2.334  51.161  1.00  0.00     0.072 A 
BRANCH  20  21
HETATM   21  N3  UNL     1      21.911   1.003  50.674  1.00  0.00    -0.387 N 
HETATM   22  H5  UNL     1      22.288   0.658  49.757  1.00  0.00     0.159 HD
BRANCH  21  23
HETATM   23  C10 UNL     1      21.225   0.134  51.625  1.00  0.00     0.120 C 
BRANCH  23  24
HETATM   24  C11 UNL     1      22.115  -0.590  52.572  1.00  0.00     0.026 C 
BRANCH  24  25
HETATM   25  C12 UNL     1      21.984  -0.107  54.028  1.00  0.00     0.071 C 
BRANCH  25  26
HETATM   26  C13 UNL     1      22.006  -1.226  54.992  1.00  0.00     0.231 C 
HETATM   27  O1  UNL     1      22.858  -1.698  55.715  1.00  0.00    -0.307 OA
ENDBRANCH  25  26
ENDBRANCH  24  25
ENDBRANCH  23  24
ENDBRANCH  21  23
ENDBRANCH  20  21
ENDBRANCH   5  14
TORSDOF 6
ENDMDL
MODEL 7
REMARK VINA RESULT:      -7.3      3.409      7.076
REMARK  6 active torsions:
REMARK  status: ('A' for Active; 'I' for Inactive)
REMARK    1  A    between atoms: N2_5  and  C4_6 
REMARK    2  A    between atoms: C9_12  and  N3_13 
REMARK    3  A    between atoms: N3_13  and  C10_14 
REMARK    4  A    between atoms: C10_14  and  C11_15 
REMARK    5  A    between atoms: C11_15  and  C12_16 
REMARK    6  A    between atoms: C12_16  and  C13_17 
ROOT
HETATM    1  N1  UNL     1      23.147   7.832  50.556  1.00  0.00    -0.196 NA
HETATM    2  C1  UNL     1      24.213   7.385  50.321  1.00  0.00     0.079 C 
HETATM    3  C2  UNL     1      25.523   6.831  50.025  1.00  0.00     0.106 A 
HETATM    4  C3  UNL     1      25.362   5.629  50.291  1.00  0.00     0.016 A 
HETATM    5  N2  UNL     1      24.839   4.482  50.667  1.00  0.00    -0.359 N 
HETATM    6  C14 UNL     1      26.353   5.600  49.058  1.00  0.00     0.092 A 
HETATM    7  C15 UNL     1      25.762   6.786  48.280  1.00  0.00     0.047 A 
HETATM    8  C16 UNL     1      25.203   7.707  47.494  1.00  0.00    -0.018 C 
HETATM    9  C17 UNL     1      25.217   9.139  47.893  1.00  0.00     0.016 C 
HETATM   10  C18 UNL     1      25.651   9.979  48.794  1.00  0.00     0.115 C 
HETATM   11  N4  UNL     1      26.310   9.043  49.476  1.00  0.00    -0.275 NA
HETATM   12  C19 UNL     1      26.344   7.962  49.931  1.00  0.00     0.118 C 
HETATM   13  H1  UNL     1      24.060   4.719  49.972  1.00  0.00     0.165 HD
ENDROOT
BRANCH   5  14
HETATM   14  C4  UNL     1      24.323   3.300  51.067  1.00  0.00     0.060 A 
HETATM   15  C5  UNL     1      23.216   3.051  50.223  1.00  0.00     0.032 A 
HETATM   16  C6  UNL     1      22.435   1.895  50.356  1.00  0.00     0.004 A 
HETATM   17  C7  UNL     1      22.856   1.071  51.370  1.00  0.00     0.021 A 
HETATM   18  C8  UNL     1      23.931   1.303  52.198  1.00  0.00     0.039 A 
HETATM   19 BR1  UNL     1      24.288   0.045  53.582  1.00  0.00    -0.049 Br
HETATM   20  C9  UNL     1      24.688   2.419  52.062  1.00  0.00     0.072 A 
BRANCH  20  21
HETATM   21  N3  UNL     1      25.809   2.780  52.853  1.00  0.00    -0.387 N 
HETATM   22  H5  UNL     1      25.801   3.401  53.699  1.00  0.00     0.159 HD
BRANCH  21  23
HETATM   23  C10 UNL     1      27.029   2.177  52.324  1.00  0.00     0.120 C 
BRANCH  23  24
HETATM   24  C11 UNL     1      28.236   2.350  53.177  1.00  0.00     0.026 C 
BRANCH  24  25
HETATM   25  C12 UNL     1      28.954   1.025  53.497  1.00  0.00     0.071 C 
BRANCH  25  26
HETATM   26  C13 UNL     1      28.436   0.392  54.727  1.00  0.00     0.231 C 
HETATM   27  O1  UNL     1      27.505  -0.349  54.964  1.00  0.00    -0.307 OA
ENDBRANCH  25  26
ENDBRANCH  24  25
ENDBRANCH  23  24
ENDBRANCH  21  23
ENDBRANCH  20  21
ENDBRANCH   5  14
TORSDOF 6
ENDMDL
MODEL 8
REMARK VINA RESULT:      -7.2      3.032      6.469
REMARK  6 active torsions:
REMARK  status: ('A' for Active; 'I' for Inactive)
REMARK    1  A    between atoms: N2_5  and  C4_6 
REMARK    2  A    between atoms: C9_12  and  N3_13 
REMARK    3  A    between atoms: N3_13  and  C10_14 
REMARK    4  A    between atoms: C10_14  and  C11_15 
REMARK    5  A    between atoms: C11_15  and  C12_16 
REMARK    6  A    between atoms: C12_16  and  C13_17 
ROOT
HETATM    1  N1  UNL     1      23.805   5.896  51.868  1.00  0.00    -0.196 NA
HETATM    2  C1  UNL     1      24.082   5.153  50.994  1.00  0.00     0.079 C 
HETATM    3  C2  UNL     1      24.416   4.237  49.918  1.00  0.00     0.106 A 
HETATM    4  C3  UNL     1      24.171   3.133  50.431  1.00  0.00     0.016 A 
HETATM    5  N2  UNL     1      23.826   2.188  51.279  1.00  0.00    -0.359 N 
HETATM    6  C14 UNL     1      23.760   2.931  48.917  1.00  0.00     0.092 A 
HETATM    7  C15 UNL     1      23.185   4.333  48.662  1.00  0.00     0.047 A 
HETATM    8  C16 UNL     1      22.542   5.477  48.427  1.00  0.00    -0.018 C 
HETATM    9  C17 UNL     1      23.289   6.761  48.394  1.00  0.00     0.016 C 
HETATM   10  C18 UNL     1      24.481   7.291  48.465  1.00  0.00     0.115 C 
HETATM   11  N4  UNL     1      25.094   6.113  48.562  1.00  0.00    -0.275 NA
HETATM   12  C19 UNL     1      25.141   5.034  49.023  1.00  0.00     0.118 C 
HETATM   13  H1  UNL     1      22.926   2.755  51.396  1.00  0.00     0.165 HD
ENDROOT
BRANCH   5  14
HETATM   14  C4  UNL     1      23.493   1.204  52.141  1.00  0.00     0.060 A 
HETATM   15  C5  UNL     1      22.153   0.863  51.847  1.00  0.00     0.032 A 
HETATM   16  C6  UNL     1      21.474  -0.136  52.558  1.00  0.00     0.004 A 
HETATM   17  C7  UNL     1      22.239  -0.715  53.541  1.00  0.00     0.021 A 
HETATM   18  C8  UNL     1      23.544  -0.392  53.836  1.00  0.00     0.039 A 
HETATM   19 BR1  UNL     1      24.386  -1.288  55.290  1.00  0.00    -0.049 Br
HETATM   20  C9  UNL     1      24.198   0.571  53.142  1.00  0.00     0.072 A 
BRANCH  20  21
HETATM   21  N3  UNL     1      25.532   1.004  53.353  1.00  0.00    -0.387 N 
HETATM   22  H5  UNL     1      25.849   1.743  54.028  1.00  0.00     0.159 HD
BRANCH  21  23
HETATM   23  C10 UNL     1      26.454   0.286  52.476  1.00  0.00     0.120 C 
BRANCH  23  24
HETATM   24  C11 UNL     1      27.545  -0.445  53.174  1.00  0.00     0.026 C 
BRANCH  24  25
HETATM   25  C12 UNL     1      28.037   0.262  54.451  1.00  0.00     0.071 C 
BRANCH  25  26
HETATM   26  C13 UNL     1      29.031   1.315  54.159  1.00  0.00     0.231 C 
HETATM   27  O1  UNL     1      29.077   2.509  54.367  1.00  0.00    -0.307 OA
ENDBRANCH  25  26
ENDBRANCH  24  25
ENDBRANCH  23  24
ENDBRANCH  21  23
ENDBRANCH  20  21
ENDBRANCH   5  14
TORSDOF 6
ENDMDL
MODEL 9
REMARK VINA RESULT:      -7.1      3.861      6.320
REMARK  6 active torsions:
REMARK  status: ('A' for Active; 'I' for Inactive)
REMARK    1  A    between atoms: N2_5  and  C4_6 
REMARK    2  A    between atoms: C9_12  and  N3_13 
REMARK    3  A    between atoms: N3_13  and  C10_14 
REMARK    4  A    between atoms: C10_14  and  C11_15 
REMARK    5  A    between atoms: C11_15  and  C12_16 
REMARK    6  A    between atoms: C12_16  and  C13_17 
ROOT
HETATM    1  N1  UNL     1      23.143   2.676  48.260  1.00  0.00    -0.196 NA
HETATM    2  C1  UNL     1      23.113   3.027  49.385  1.00  0.00     0.079 C 
HETATM    3  C2  UNL     1      23.080   3.452  50.774  1.00  0.00     0.106 A 
HETATM    4  C3  UNL     1      22.140   2.780  51.228  1.00  0.00     0.016 A 
HETATM    5  N2  UNL     1      21.128   1.947  51.343  1.00  0.00    -0.359 N 
HETATM    6  C14 UNL     1      23.155   2.852  52.439  1.00  0.00     0.092 A 
HETATM    7  C15 UNL     1      24.459   2.769  51.631  1.00  0.00     0.047 A 
HETATM    8  C16 UNL     1      25.613   2.553  50.998  1.00  0.00    -0.018 C 
HETATM    9  C17 UNL     1      26.152   3.570  50.057  1.00  0.00     0.016 C 
HETATM   10  C18 UNL     1      25.955   4.765  49.569  1.00  0.00     0.115 C 
HETATM   11  N4  UNL     1      24.881   4.991  50.323  1.00  0.00    -0.275 NA
HETATM   12  C19 UNL     1      23.870   4.608  50.782  1.00  0.00     0.118 C 
HETATM   13  H1  UNL     1      21.789   1.234  50.895  1.00  0.00     0.165 HD
ENDROOT
BRANCH   5  14
HETATM   14  C4  UNL     1      20.076   1.110  51.473  1.00  0.00     0.060 A 
HETATM   15  C5  UNL     1      19.277   1.304  50.322  1.00  0.00     0.032 A 
HETATM   16  C6  UNL     1      18.089   0.589  50.122  1.00  0.00     0.004 A 
HETATM   17  C7  UNL     1      17.804  -0.283  51.144  1.00  0.00     0.021 A 
HETATM   18  C8  UNL     1      18.573  -0.480  52.269  1.00  0.00     0.039 A 
HETATM   19 BR1  UNL     1      17.942  -1.699  53.588  1.00  0.00    -0.049 Br
HETATM   20  C9  UNL     1      19.724   0.210  52.455  1.00  0.00     0.072 A 
BRANCH  20  21
HETATM   21  N3  UNL     1      20.598   0.109  53.569  1.00  0.00    -0.387 N 
HETATM   22  H5  UNL     1      20.555   0.680  54.448  1.00  0.00     0.159 HD
BRANCH  21  23
HETATM   23  C10 UNL     1      21.615  -0.912  53.337  1.00  0.00     0.120 C 
BRANCH  23  24
HETATM   24  C11 UNL     1      22.753  -0.896  54.295  1.00  0.00     0.026 C 
BRANCH  24  25
HETATM   25  C12 UNL     1      24.074  -0.409  53.669  1.00  0.00     0.071 C 
BRANCH  25  26
HETATM   26  C13 UNL     1      25.240  -0.707  54.524  1.00  0.00     0.231 C 
HETATM   27  O1  UNL     1      25.370  -1.068  55.675  1.00  0.00    -0.307 OA
ENDBRANCH  25  26
ENDBRANCH  24  25
ENDBRANCH  23  24
ENDBRANCH  21  23
ENDBRANCH  20  21
ENDBRANCH   5  14
TORSDOF 6
ENDMDL
