MODEL 1
REMARK VINA RESULT:      -7.6      0.000      0.000
REMARK  6 active torsions:
REMARK  status: ('A' for Active; 'I' for Inactive)
REMARK    1  A    between atoms: O1_2  and  C2_3 
REMARK    2  A    between atoms: C4_5  and  O2_6 
REMARK    3  A    between atoms: O2_6  and  C5_7 
REMARK    4  A    between atoms: C10_14  and  O3_15 
REMARK    5  A    between atoms: C12_17  and  O4_18 
REMARK    6  A    between atoms: C18_24  and  O5_25 
ROOT
HETATM    1  C5  UNL     1      23.064   1.041  51.808  1.00  0.00     0.205 C 
HETATM    2  C6  UNL     1      23.031   2.143  50.812  1.00  0.00     0.128 C 
HETATM    3  N1  UNL     1      23.247   3.409  50.914  1.00  0.00    -0.255 NA
HETATM    4  C7  UNL     1      23.600   4.109  52.127  1.00  0.00     0.232 C 
HETATM    5  N2  UNL     1      24.304   3.623  53.121  1.00  0.00    -0.241 NA
HETATM    6  C8  UNL     1      24.863   2.318  53.217  1.00  0.00     0.070 A 
HETATM    7  C9  UNL     1      26.049   2.178  53.948  1.00  0.00     0.072 A 
HETATM    8  C10 UNL     1      26.613   0.924  54.057  1.00  0.00     0.103 A 
HETATM    9  C12 UNL     1      26.065  -0.202  53.478  1.00  0.00     0.102 A 
HETATM   10  C14 UNL     1      24.896  -0.031  52.765  1.00  0.00     0.052 A 
HETATM   11  C15 UNL     1      24.299   1.208  52.632  1.00  0.00     0.008 A 
ENDROOT
BRANCH   1  12
HETATM   12  O2  UNL     1      21.990   1.292  52.697  1.00  0.00    -0.336 OA
BRANCH  12  13
HETATM   13  C4  UNL     1      20.925   0.442  52.913  1.00  0.00     0.073 A 
HETATM   14  C3  UNL     1      19.648   0.444  52.391  1.00  0.00     0.076 A 
HETATM   15  C2  UNL     1      18.751  -0.532  52.772  1.00  0.00     0.103 A 
HETATM   16  C18 UNL     1      19.076  -1.529  53.668  1.00  0.00     0.099 A 
HETATM   17  C17 UNL     1      20.363  -1.540  54.204  1.00  0.00     0.042 A 
HETATM   18  C16 UNL     1      21.284  -0.556  53.825  1.00  0.00     0.040 A 
BRANCH  15  19
HETATM   19  O1  UNL     1      17.485  -0.478  52.212  1.00  0.00    -0.353 OA
HETATM   20  C1  UNL     1      17.281  -0.244  50.851  1.00  0.00     0.210 C 
ENDBRANCH  15  19
BRANCH  16  21
HETATM   21  O5  UNL     1      18.149  -2.497  54.031  1.00  0.00    -0.358 OA
HETATM   22  H18 UNL     1      18.419  -3.488  53.991  1.00  0.00     0.217 HD
ENDBRANCH  16  21
ENDBRANCH  12  13
ENDBRANCH   1  12
BRANCH   9  23
HETATM   23  O4  UNL     1      26.734  -1.404  53.664  1.00  0.00    -0.353 OA
HETATM   24  C13 UNL     1      27.129  -2.255  52.612  1.00  0.00     0.210 C 
ENDBRANCH   9  23
BRANCH   8  25
HETATM   25  O3  UNL     1      27.792   0.827  54.792  1.00  0.00    -0.353 OA
HETATM   26  C11 UNL     1      29.014   1.244  54.211  1.00  0.00     0.210 C 
ENDBRANCH   8  25
TORSDOF 6
ENDMDL
MODEL 2
REMARK VINA RESULT:      -7.3      1.005      2.062
REMARK  6 active torsions:
REMARK  status: ('A' for Active; 'I' for Inactive)
REMARK    1  A    between atoms: O1_2  and  C2_3 
REMARK    2  A    between atoms: C4_5  and  O2_6 
REMARK    3  A    between atoms: O2_6  and  C5_7 
REMARK    4  A    between atoms: C10_14  and  O3_15 
REMARK    5  A    between atoms: C12_17  and  O4_18 
REMARK    6  A    between atoms: C18_24  and  O5_25 
ROOT
HETATM    1  C5  UNL     1      23.282   1.488  51.093  1.00  0.00     0.205 C 
HETATM    2  C6  UNL     1      23.486   2.667  50.212  1.00  0.00     0.128 C 
HETATM    3  N1  UNL     1      23.705   3.911  50.468  1.00  0.00    -0.255 NA
HETATM    4  C7  UNL     1      23.812   4.495  51.785  1.00  0.00     0.232 C 
HETATM    5  N2  UNL     1      24.280   3.900  52.856  1.00  0.00    -0.241 NA
HETATM    6  C8  UNL     1      24.775   2.570  52.951  1.00  0.00     0.070 A 
HETATM    7  C9  UNL     1      25.776   2.322  53.896  1.00  0.00     0.072 A 
HETATM    8  C10 UNL     1      26.275   1.041  54.010  1.00  0.00     0.103 A 
HETATM    9  C12 UNL     1      25.834  -0.010  53.233  1.00  0.00     0.102 A 
HETATM   10  C14 UNL     1      24.846   0.266  52.310  1.00  0.00     0.052 A 
HETATM   11  C15 UNL     1      24.319   1.535  52.166  1.00  0.00     0.008 A 
ENDROOT
BRANCH   1  12
HETATM   12  O2  UNL     1      22.051   1.711  51.757  1.00  0.00    -0.336 OA
BRANCH  12  13
HETATM   13  C4  UNL     1      21.330   0.749  52.434  1.00  0.00     0.073 A 
HETATM   14  C3  UNL     1      21.708  -0.126  53.432  1.00  0.00     0.076 A 
HETATM   15  C2  UNL     1      20.786  -1.007  53.956  1.00  0.00     0.103 A 
HETATM   16  C18 UNL     1      19.479  -1.058  53.520  1.00  0.00     0.099 A 
HETATM   17  C17 UNL     1      19.086  -0.180  52.510  1.00  0.00     0.042 A 
HETATM   18  C16 UNL     1      20.011   0.721  51.971  1.00  0.00     0.040 A 
BRANCH  15  19
HETATM   19  O1  UNL     1      21.225  -1.860  54.956  1.00  0.00    -0.353 OA
HETATM   20  C1  UNL     1      22.528  -1.815  55.454  1.00  0.00     0.210 C 
ENDBRANCH  15  19
BRANCH  16  21
HETATM   21  O5  UNL     1      18.574  -1.958  54.068  1.00  0.00    -0.358 OA
HETATM   22  H18 UNL     1      17.653  -2.072  53.627  1.00  0.00     0.217 HD
ENDBRANCH  16  21
ENDBRANCH  12  13
ENDBRANCH   1  12
BRANCH   9  23
HETATM   23  O4  UNL     1      26.420  -1.251  53.447  1.00  0.00    -0.353 OA
HETATM   24  C13 UNL     1      27.016  -2.025  52.431  1.00  0.00     0.210 C 
ENDBRANCH   9  23
BRANCH   8  25
HETATM   25  O3  UNL     1      27.270   0.835  54.961  1.00  0.00    -0.353 OA
HETATM   26  C11 UNL     1      28.630   0.956  54.588  1.00  0.00     0.210 C 
ENDBRANCH   8  25
TORSDOF 6
ENDMDL
MODEL 3
REMARK VINA RESULT:      -7.3      3.616      7.008
REMARK  6 active torsions:
REMARK  status: ('A' for Active; 'I' for Inactive)
REMARK    1  A    between atoms: O1_2  and  C2_3 
REMARK    2  A    between atoms: C4_5  and  O2_6 
REMARK    3  A    between atoms: O2_6  and  C5_7 
REMARK    4  A    between atoms: C10_14  and  O3_15 
REMARK    5  A    between atoms: C12_17  and  O4_18 
REMARK    6  A    between atoms: C18_24  and  O5_25 
ROOT
HETATM    1  C5  UNL     1      24.071   3.800  52.186  1.00  0.00     0.205 C 
HETATM    2  C6  UNL     1      22.613   3.902  52.460  1.00  0.00     0.128 C 
HETATM    3  N1  UNL     1      21.624   3.124  52.185  1.00  0.00    -0.255 NA
HETATM    4  C7  UNL     1      21.712   1.863  51.486  1.00  0.00     0.232 C 
HETATM    5  N2  UNL     1      22.724   1.030  51.523  1.00  0.00    -0.241 NA
HETATM    6  C8  UNL     1      23.936   1.186  52.251  1.00  0.00     0.070 A 
HETATM    7  C9  UNL     1      24.572   0.024  52.701  1.00  0.00     0.072 A 
HETATM    8  C10 UNL     1      25.749   0.146  53.410  1.00  0.00     0.103 A 
HETATM    9  C12 UNL     1      26.332   1.363  53.697  1.00  0.00     0.102 A 
HETATM   10  C14 UNL     1      25.682   2.490  53.239  1.00  0.00     0.052 A 
HETATM   11  C15 UNL     1      24.501   2.411  52.526  1.00  0.00     0.008 A 
ENDROOT
BRANCH   1  12
HETATM   12  O2  UNL     1      24.206   3.896  50.779  1.00  0.00    -0.336 OA
BRANCH  12  13
HETATM   13  C4  UNL     1      25.157   4.652  50.125  1.00  0.00     0.073 A 
HETATM   14  C3  UNL     1      25.248   6.014  49.928  1.00  0.00     0.076 A 
HETATM   15  C2  UNL     1      26.316   6.535  49.228  1.00  0.00     0.103 A 
HETATM   16  C18 UNL     1      27.316   5.744  48.704  1.00  0.00     0.099 A 
HETATM   17  C17 UNL     1      27.234   4.364  48.895  1.00  0.00     0.042 A 
HETATM   18  C16 UNL     1      26.156   3.822  49.605  1.00  0.00     0.040 A 
BRANCH  15  19
HETATM   19  O1  UNL     1      26.352   7.911  49.064  1.00  0.00    -0.353 OA
HETATM   20  C1  UNL     1      26.836   8.766  50.055  1.00  0.00     0.210 C 
ENDBRANCH  15  19
BRANCH  16  21
HETATM   21  O5  UNL     1      28.378   6.299  48.003  1.00  0.00    -0.358 OA
HETATM   22  H18 UNL     1      28.281   7.246  47.616  1.00  0.00     0.217 HD
ENDBRANCH  16  21
ENDBRANCH  12  13
ENDBRANCH   1  12
BRANCH   9  23
HETATM   23  O4  UNL     1      27.518   1.346  54.419  1.00  0.00    -0.353 OA
HETATM   24  C13 UNL     1      28.775   1.673  53.873  1.00  0.00     0.210 C 
ENDBRANCH   9  23
BRANCH   8  25
HETATM   25  O3  UNL     1      26.350  -1.034  53.840  1.00  0.00    -0.353 OA
HETATM   26  C11 UNL     1      27.080  -1.823  52.920  1.00  0.00     0.210 C 
ENDBRANCH   8  25
TORSDOF 6
ENDMDL
MODEL 4
REMARK VINA RESULT:      -7.2      4.388      6.528
REMARK  6 active torsions:
REMARK  status: ('A' for Active; 'I' for Inactive)
REMARK    1  A    between atoms: O1_2  and  C2_3 
REMARK    2  A    between atoms: C4_5  and  O2_6 
REMARK    3  A    between atoms: O2_6  and  C5_7 
REMARK    4  A    between atoms: C10_14  and  O3_15 
REMARK    5  A    between atoms: C12_17  and  O4_18 
REMARK    6  A    between atoms: C18_24  and  O5_25 
ROOT
HETATM    1  C5  UNL     1      25.259   3.526  49.838  1.00  0.00     0.205 C 
HETATM    2  C6  UNL     1      23.802   3.519  49.549  1.00  0.00     0.128 C 
HETATM    3  N1  UNL     1      22.851   4.328  49.870  1.00  0.00    -0.255 NA
HETATM    4  C7  UNL     1      22.997   5.531  50.656  1.00  0.00     0.232 C 
HETATM    5  N2  UNL     1      24.051   6.311  50.683  1.00  0.00    -0.241 NA
HETATM    6  C8  UNL     1      25.261   6.142  49.954  1.00  0.00     0.070 A 
HETATM    7  C9  UNL     1      25.960   7.298  49.589  1.00  0.00     0.072 A 
HETATM    8  C10 UNL     1      27.137   7.163  48.882  1.00  0.00     0.103 A 
HETATM    9  C12 UNL     1      27.659   5.940  48.515  1.00  0.00     0.102 A 
HETATM   10  C14 UNL     1      26.947   4.819  48.890  1.00  0.00     0.052 A 
HETATM   11  C15 UNL     1      25.765   4.911  49.599  1.00  0.00     0.008 A 
ENDROOT
BRANCH   1  12
HETATM   12  O2  UNL     1      25.376   3.326  51.236  1.00  0.00    -0.336 OA
BRANCH  12  13
HETATM   13  C4  UNL     1      25.447   2.097  51.857  1.00  0.00     0.073 A 
HETATM   14  C3  UNL     1      24.503   1.392  52.575  1.00  0.00     0.076 A 
HETATM   15  C2  UNL     1      24.825   0.161  53.106  1.00  0.00     0.103 A 
HETATM   16  C18 UNL     1      26.070  -0.411  52.950  1.00  0.00     0.099 A 
HETATM   17  C17 UNL     1      27.033   0.292  52.227  1.00  0.00     0.042 A 
HETATM   18  C16 UNL     1      26.720   1.543  51.682  1.00  0.00     0.040 A 
BRANCH  15  19
HETATM   19  O1  UNL     1      23.834  -0.498  53.816  1.00  0.00    -0.353 OA
HETATM   20  C1  UNL     1      22.645  -0.919  53.220  1.00  0.00     0.210 C 
ENDBRANCH  15  19
BRANCH  16  21
HETATM   21  O5  UNL     1      26.363  -1.654  53.497  1.00  0.00    -0.358 OA
HETATM   22  H18 UNL     1      27.289  -2.068  53.332  1.00  0.00     0.217 HD
ENDBRANCH  16  21
ENDBRANCH  12  13
ENDBRANCH   1  12
BRANCH   9  23
HETATM   23  O4  UNL     1      28.852   5.944  47.804  1.00  0.00    -0.353 OA
HETATM   24  C13 UNL     1      30.119   5.763  48.393  1.00  0.00     0.210 C 
ENDBRANCH   9  23
BRANCH   8  25
HETATM   25  O3  UNL     1      27.802   8.337  48.538  1.00  0.00    -0.353 OA
HETATM   26  C11 UNL     1      28.153   9.264  49.549  1.00  0.00     0.210 C 
ENDBRANCH   8  25
TORSDOF 6
ENDMDL
MODEL 5
REMARK VINA RESULT:      -7.2      3.641      6.995
REMARK  6 active torsions:
REMARK  status: ('A' for Active; 'I' for Inactive)
REMARK    1  A    between atoms: O1_2  and  C2_3 
REMARK    2  A    between atoms: C4_5  and  O2_6 
REMARK    3  A    between atoms: O2_6  and  C5_7 
REMARK    4  A    between atoms: C10_14  and  O3_15 
REMARK    5  A    between atoms: C12_17  and  O4_18 
REMARK    6  A    between atoms: C18_24  and  O5_25 
ROOT
HETATM    1  C5  UNL     1      24.147   2.627  51.055  1.00  0.00     0.205 C 
HETATM    2  C6  UNL     1      22.703   2.316  50.890  1.00  0.00     0.128 C 
HETATM    3  N1  UNL     1      21.639   2.864  51.369  1.00  0.00    -0.255 NA
HETATM    4  C7  UNL     1      21.604   4.006  52.252  1.00  0.00     0.232 C 
HETATM    5  N2  UNL     1      22.462   4.998  52.266  1.00  0.00    -0.241 NA
HETATM    6  C8  UNL     1      23.597   5.160  51.424  1.00  0.00     0.070 A 
HETATM    7  C9  UNL     1      23.988   6.468  51.116  1.00  0.00     0.072 A 
HETATM    8  C10 UNL     1      25.086   6.655  50.302  1.00  0.00     0.103 A 
HETATM    9  C12 UNL     1      25.818   5.611  49.774  1.00  0.00     0.102 A 
HETATM   10  C14 UNL     1      25.408   4.334  50.097  1.00  0.00     0.052 A 
HETATM   11  C15 UNL     1      24.314   4.104  50.909  1.00  0.00     0.008 A 
ENDROOT
BRANCH   1  12
HETATM   12  O2  UNL     1      24.449   2.352  52.411  1.00  0.00    -0.336 OA
BRANCH  12  13
HETATM   13  C4  UNL     1      25.504   1.579  52.847  1.00  0.00     0.073 A 
HETATM   14  C3  UNL     1      26.521   1.859  53.737  1.00  0.00     0.076 A 
HETATM   15  C2  UNL     1      27.474   0.901  54.011  1.00  0.00     0.103 A 
HETATM   16  C18 UNL     1      27.460  -0.348  53.426  1.00  0.00     0.099 A 
HETATM   17  C17 UNL     1      26.437  -0.642  52.524  1.00  0.00     0.042 A 
HETATM   18  C16 UNL     1      25.463   0.321  52.237  1.00  0.00     0.040 A 
BRANCH  15  19
HETATM   19  O1  UNL     1      28.469   1.241  54.914  1.00  0.00    -0.353 OA
HETATM   20  C1  UNL     1      29.570   2.018  54.551  1.00  0.00     0.210 C 
ENDBRANCH  15  19
BRANCH  16  21
HETATM   21  O5  UNL     1      28.435  -1.291  53.724  1.00  0.00    -0.358 OA
HETATM   22  H18 UNL     1      28.672  -1.473  54.707  1.00  0.00     0.217 HD
ENDBRANCH  16  21
ENDBRANCH  12  13
ENDBRANCH   1  12
BRANCH   9  23
HETATM   23  O4  UNL     1      26.902   5.937  48.968  1.00  0.00    -0.353 OA
HETATM   24  C13 UNL     1      27.875   5.009  48.547  1.00  0.00     0.210 C 
ENDBRANCH   9  23
BRANCH   8  25
HETATM   25  O3  UNL     1      25.443   7.970  50.019  1.00  0.00    -0.353 OA
HETATM   26  C11 UNL     1      24.622   8.750  49.169  1.00  0.00     0.210 C 
ENDBRANCH   8  25
TORSDOF 6
ENDMDL
MODEL 6
REMARK VINA RESULT:      -7.2      2.809      6.508
REMARK  6 active torsions:
REMARK  status: ('A' for Active; 'I' for Inactive)
REMARK    1  A    between atoms: O1_2  and  C2_3 
REMARK    2  A    between atoms: C4_5  and  O2_6 
REMARK    3  A    between atoms: O2_6  and  C5_7 
REMARK    4  A    between atoms: C10_14  and  O3_15 
REMARK    5  A    between atoms: C12_17  and  O4_18 
REMARK    6  A    between atoms: C18_24  and  O5_25 
ROOT
HETATM    1  C5  UNL     1      22.696   1.356  51.236  1.00  0.00     0.205 C 
HETATM    2  C6  UNL     1      21.327   0.809  51.047  1.00  0.00     0.128 C 
HETATM    3  N1  UNL     1      20.167   1.232  51.415  1.00  0.00    -0.255 NA
HETATM    4  C7  UNL     1      19.909   2.440  52.163  1.00  0.00     0.232 C 
HETATM    5  N2  UNL     1      20.606   3.549  52.101  1.00  0.00    -0.241 NA
HETATM    6  C8  UNL     1      21.751   3.797  51.295  1.00  0.00     0.070 A 
HETATM    7  C9  UNL     1      21.959   5.111  50.859  1.00  0.00     0.072 A 
HETATM    8  C10 UNL     1      23.063   5.380  50.076  1.00  0.00     0.103 A 
HETATM    9  C12 UNL     1      23.973   4.414  49.700  1.00  0.00     0.102 A 
HETATM   10  C14 UNL     1      23.741   3.129  50.147  1.00  0.00     0.052 A 
HETATM   11  C15 UNL     1      22.648   2.818  50.932  1.00  0.00     0.008 A 
ENDROOT
BRANCH   1  12
HETATM   12  O2  UNL     1      22.955   1.275  52.626  1.00  0.00    -0.336 OA
BRANCH  12  13
HETATM   13  C4  UNL     1      24.194   1.049  53.189  1.00  0.00     0.073 A 
HETATM   14  C3  UNL     1      25.238   1.913  53.450  1.00  0.00     0.076 A 
HETATM   15  C2  UNL     1      26.394   1.435  54.030  1.00  0.00     0.103 A 
HETATM   16  C18 UNL     1      26.560   0.108  54.367  1.00  0.00     0.099 A 
HETATM   17  C17 UNL     1      25.512  -0.775  54.107  1.00  0.00     0.042 A 
HETATM   18  C16 UNL     1      24.333  -0.303  53.520  1.00  0.00     0.040 A 
BRANCH  15  19
HETATM   19  O1  UNL     1      27.406   2.352  54.268  1.00  0.00    -0.353 OA
HETATM   20  C1  UNL     1      28.554   2.416  53.477  1.00  0.00     0.210 C 
ENDBRANCH  15  19
BRANCH  16  21
HETATM   21  O5  UNL     1      27.738  -0.342  54.950  1.00  0.00    -0.358 OA
HETATM   22  H18 UNL     1      27.687  -1.016  55.724  1.00  0.00     0.217 HD
ENDBRANCH  16  21
ENDBRANCH  12  13
ENDBRANCH   1  12
BRANCH   9  23
HETATM   23  O4  UNL     1      25.041   4.818  48.909  1.00  0.00    -0.353 OA
HETATM   24  C13 UNL     1      26.393   4.638  49.262  1.00  0.00     0.210 C 
ENDBRANCH   9  23
BRANCH   8  25
HETATM   25  O3  UNL     1      23.234   6.698  49.662  1.00  0.00    -0.353 OA
HETATM   26  C11 UNL     1      23.698   7.666  50.585  1.00  0.00     0.210 C 
ENDBRANCH   8  25
TORSDOF 6
ENDMDL
MODEL 7
REMARK VINA RESULT:      -7.1      3.774      7.306
REMARK  6 active torsions:
REMARK  status: ('A' for Active; 'I' for Inactive)
REMARK    1  A    between atoms: O1_2  and  C2_3 
REMARK    2  A    between atoms: C4_5  and  O2_6 
REMARK    3  A    between atoms: O2_6  and  C5_7 
REMARK    4  A    between atoms: C10_14  and  O3_15 
REMARK    5  A    between atoms: C12_17  and  O4_18 
REMARK    6  A    between atoms: C18_24  and  O5_25 
ROOT
HETATM    1  C5  UNL     1      24.184   3.732  52.124  1.00  0.00     0.205 C 
HETATM    2  C6  UNL     1      23.255   4.808  52.556  1.00  0.00     0.128 C 
HETATM    3  N1  UNL     1      21.998   5.001  52.348  1.00  0.00    -0.255 NA
HETATM    4  C7  UNL     1      21.128   4.141  51.580  1.00  0.00     0.232 C 
HETATM    5  N2  UNL     1      21.235   2.839  51.466  1.00  0.00    -0.241 NA
HETATM    6  C8  UNL     1      22.217   2.005  52.068  1.00  0.00     0.070 A 
HETATM    7  C9  UNL     1      21.841   0.695  52.388  1.00  0.00     0.072 A 
HETATM    8  C10 UNL     1      22.774  -0.136  52.972  1.00  0.00     0.103 A 
HETATM    9  C12 UNL     1      24.064   0.263  53.258  1.00  0.00     0.102 A 
HETATM   10  C14 UNL     1      24.404   1.559  52.930  1.00  0.00     0.052 A 
HETATM   11  C15 UNL     1      23.500   2.423  52.344  1.00  0.00     0.008 A 
ENDROOT
BRANCH   1  12
HETATM   12  O2  UNL     1      24.295   3.860  50.717  1.00  0.00    -0.336 OA
BRANCH  12  13
HETATM   13  C4  UNL     1      25.238   4.626  50.063  1.00  0.00     0.073 A 
HETATM   14  C3  UNL     1      25.308   5.988  49.856  1.00  0.00     0.076 A 
HETATM   15  C2  UNL     1      26.371   6.521  49.158  1.00  0.00     0.103 A 
HETATM   16  C18 UNL     1      27.388   5.741  48.648  1.00  0.00     0.099 A 
HETATM   17  C17 UNL     1      27.328   4.363  48.851  1.00  0.00     0.042 A 
HETATM   18  C16 UNL     1      26.254   3.808  49.557  1.00  0.00     0.040 A 
BRANCH  15  19
HETATM   19  O1  UNL     1      26.386   7.895  48.983  1.00  0.00    -0.353 OA
HETATM   20  C1  UNL     1      26.768   8.771  50.000  1.00  0.00     0.210 C 
ENDBRANCH  15  19
BRANCH  16  21
HETATM   21  O5  UNL     1      28.446   6.309  47.950  1.00  0.00    -0.358 OA
HETATM   22  H18 UNL     1      29.333   6.483  48.439  1.00  0.00     0.217 HD
ENDBRANCH  16  21
ENDBRANCH  12  13
ENDBRANCH   1  12
BRANCH   9  23
HETATM   23  O4  UNL     1      24.904  -0.673  53.848  1.00  0.00    -0.353 OA
HETATM   24  C13 UNL     1      26.190  -0.987  53.367  1.00  0.00     0.210 C 
ENDBRANCH   9  23
BRANCH   8  25
HETATM   25  O3  UNL     1      22.361  -1.431  53.276  1.00  0.00    -0.353 OA
HETATM   26  C11 UNL     1      21.430  -1.640  54.321  1.00  0.00     0.210 C 
ENDBRANCH   8  25
TORSDOF 6
ENDMDL
MODEL 8
REMARK VINA RESULT:      -7.1      1.791      6.773
REMARK  6 active torsions:
REMARK  status: ('A' for Active; 'I' for Inactive)
REMARK    1  A    between atoms: O1_2  and  C2_3 
REMARK    2  A    between atoms: C4_5  and  O2_6 
REMARK    3  A    between atoms: O2_6  and  C5_7 
REMARK    4  A    between atoms: C10_14  and  O3_15 
REMARK    5  A    between atoms: C12_17  and  O4_18 
REMARK    6  A    between atoms: C18_24  and  O5_25 
ROOT
HETATM    1  C5  UNL     1      24.358   3.136  51.949  1.00  0.00     0.205 C 
HETATM    2  C6  UNL     1      24.235   4.374  51.136  1.00  0.00     0.128 C 
HETATM    3  N1  UNL     1      23.914   4.573  49.905  1.00  0.00    -0.255 NA
HETATM    4  C7  UNL     1      23.570   3.548  48.947  1.00  0.00     0.232 C 
HETATM    5  N2  UNL     1      22.971   2.412  49.215  1.00  0.00    -0.241 NA
HETATM    6  C8  UNL     1      22.536   1.953  50.489  1.00  0.00     0.070 A 
HETATM    7  C9  UNL     1      21.412   1.120  50.523  1.00  0.00     0.072 A 
HETATM    8  C10 UNL     1      20.968   0.659  51.746  1.00  0.00     0.103 A 
HETATM    9  C12 UNL     1      21.581   0.982  52.939  1.00  0.00     0.102 A 
HETATM   10  C14 UNL     1      22.687   1.804  52.872  1.00  0.00     0.052 A 
HETATM   11  C15 UNL     1      23.163   2.286  51.668  1.00  0.00     0.008 A 
ENDROOT
BRANCH   1  12
HETATM   12  O2  UNL     1      25.455   2.424  51.404  1.00  0.00    -0.336 OA
BRANCH  12  13
HETATM   13  C4  UNL     1      26.318   1.625  52.125  1.00  0.00     0.073 A 
HETATM   14  C3  UNL     1      26.249   0.286  52.448  1.00  0.00     0.076 A 
HETATM   15  C2  UNL     1      27.256  -0.292  53.194  1.00  0.00     0.103 A 
HETATM   16  C18 UNL     1      28.349   0.421  53.640  1.00  0.00     0.099 A 
HETATM   17  C17 UNL     1      28.428   1.776  53.321  1.00  0.00     0.042 A 
HETATM   18  C16 UNL     1      27.414   2.375  52.565  1.00  0.00     0.040 A 
BRANCH  15  19
HETATM   19  O1  UNL     1      27.131  -1.641  53.485  1.00  0.00    -0.353 OA
HETATM   20  C1  UNL     1      27.630  -2.634  52.641  1.00  0.00     0.210 C 
ENDBRANCH  15  19
BRANCH  16  21
HETATM   21  O5  UNL     1      29.346  -0.190  54.390  1.00  0.00    -0.358 OA
HETATM   22  H18 UNL     1      29.179  -0.379  55.386  1.00  0.00     0.217 HD
ENDBRANCH  16  21
ENDBRANCH  12  13
ENDBRANCH   1  12
BRANCH   9  23
HETATM   23  O4  UNL     1      21.033   0.452  54.100  1.00  0.00    -0.353 OA
HETATM   24  C13 UNL     1      21.514  -0.708  54.738  1.00  0.00     0.210 C 
ENDBRANCH   9  23
BRANCH   8  25
HETATM   25  O3  UNL     1      19.847  -0.166  51.738  1.00  0.00    -0.353 OA
HETATM   26  C11 UNL     1      18.565   0.399  51.537  1.00  0.00     0.210 C 
ENDBRANCH   8  25
TORSDOF 6
ENDMDL
MODEL 9
REMARK VINA RESULT:      -7.1      2.815      4.404
REMARK  6 active torsions:
REMARK  status: ('A' for Active; 'I' for Inactive)
REMARK    1  A    between atoms: O1_2  and  C2_3 
REMARK    2  A    between atoms: C4_5  and  O2_6 
REMARK    3  A    between atoms: O2_6  and  C5_7 
REMARK    4  A    between atoms: C10_14  and  O3_15 
REMARK    5  A    between atoms: C12_17  and  O4_18 
REMARK    6  A    between atoms: C18_24  and  O5_25 
ROOT
HETATM    1  C5  UNL     1      24.534   1.782  53.291  1.00  0.00     0.205 C 
HETATM    2  C6  UNL     1      25.660   1.364  54.167  1.00  0.00     0.128 C 
HETATM    3  N1  UNL     1      26.784   0.786  53.915  1.00  0.00    -0.255 NA
HETATM    4  C7  UNL     1      27.248   0.376  52.610  1.00  0.00     0.232 C 
HETATM    5  N2  UNL     1      26.977   0.972  51.473  1.00  0.00    -0.241 NA
HETATM    6  C8  UNL     1      26.178   2.134  51.284  1.00  0.00     0.070 A 
HETATM    7  C9  UNL     1      26.505   2.972  50.212  1.00  0.00     0.072 A 
HETATM    8  C10 UNL     1      25.747   4.106  50.005  1.00  0.00     0.103 A 
HETATM    9  C12 UNL     1      24.680   4.455  50.807  1.00  0.00     0.102 A 
HETATM   10  C14 UNL     1      24.382   3.608  51.854  1.00  0.00     0.052 A 
HETATM   11  C15 UNL     1      25.116   2.462  52.096  1.00  0.00     0.008 A 
ENDROOT
BRANCH   1  12
HETATM   12  O2  UNL     1      23.965   0.584  52.795  1.00  0.00    -0.336 OA
BRANCH  12  13
HETATM   13  C4  UNL     1      22.640   0.223  52.925  1.00  0.00     0.073 A 
HETATM   14  C3  UNL     1      21.531   0.584  52.188  1.00  0.00     0.076 A 
HETATM   15  C2  UNL     1      20.292   0.079  52.523  1.00  0.00     0.103 A 
HETATM   16  C18 UNL     1      20.105  -0.785  53.581  1.00  0.00     0.099 A 
HETATM   17  C17 UNL     1      21.219  -1.155  54.335  1.00  0.00     0.042 A 
HETATM   18  C16 UNL     1      22.482  -0.651  54.005  1.00  0.00     0.040 A 
BRANCH  15  19
HETATM   19  O1  UNL     1      19.217   0.477  51.745  1.00  0.00    -0.353 OA
HETATM   20  C1  UNL     1      19.379   0.998  50.460  1.00  0.00     0.210 C 
ENDBRANCH  15  19
BRANCH  16  21
HETATM   21  O5  UNL     1      18.844  -1.275  53.894  1.00  0.00    -0.358 OA
HETATM   22  H18 UNL     1      18.760  -2.211  54.311  1.00  0.00     0.217 HD
ENDBRANCH  16  21
ENDBRANCH  12  13
ENDBRANCH   1  12
BRANCH   9  23
HETATM   23  O4  UNL     1      24.000   5.624  50.489  1.00  0.00    -0.353 OA
HETATM   24  C13 UNL     1      24.223   6.860  51.126  1.00  0.00     0.210 C 
ENDBRANCH   9  23
BRANCH   8  25
HETATM   25  O3  UNL     1      26.105   4.914  48.929  1.00  0.00    -0.353 OA
HETATM   26  C11 UNL     1      27.472   5.067  48.594  1.00  0.00     0.210 C 
ENDBRANCH   8  25
TORSDOF 6
ENDMDL
