MODEL 1
REMARK VINA RESULT:      -9.2      0.000      0.000
REMARK  2 active torsions:
REMARK  status: ('A' for Active; 'I' for Inactive)
REMARK    1  A    between atoms: C4_5  and  N1_6 
REMARK    2  A    between atoms: N1_6  and  C5_7 
ROOT
HETATM    1  C5  UNL     1      24.100   1.112  52.505  1.00  0.00     0.158 A 
HETATM    2  N2  UNL     1      24.241   1.817  51.348  1.00  0.00    -0.222 NA
HETATM    3  C6  UNL     1      23.196   1.974  50.501  1.00  0.00     0.236 A 
HETATM    4  N3  UNL     1      21.988   1.444  50.768  1.00  0.00    -0.239 NA
HETATM    5  C7  UNL     1      21.779   0.736  51.893  1.00  0.00     0.101 A 
HETATM    6  C8  UNL     1      22.850   0.583  52.751  1.00  0.00     0.105 A 
HETATM    7  N4  UNL     1      22.589  -0.161  53.927  1.00  0.00    -0.381 N 
HETATM    8  C9  UNL     1      21.370  -0.838  54.323  1.00  0.00     0.159 A 
HETATM    9  C10 UNL     1      20.332  -0.557  53.299  1.00  0.00    -0.026 A 
HETATM   10  C11 UNL     1      19.102  -1.108  53.577  1.00  0.00     0.010 A 
HETATM   11  C12 UNL     1      18.023  -0.957  52.735  1.00  0.00     0.002 A 
HETATM   12  C13 UNL     1      18.158  -0.229  51.566  1.00  0.00     0.025 A 
HETATM   13  C14 UNL     1      19.389   0.333  51.274  1.00  0.00     0.047 A 
HETATM   14 CL1  UNL     1      19.684   1.274  49.829  1.00  0.00    -0.083 Cl
HETATM   15  C15 UNL     1      20.456   0.168  52.133  1.00  0.00     0.025 A 
HETATM   16  H5  UNL     1      23.323  -0.278  54.645  1.00  0.00     0.160 HD
ENDROOT
BRANCH   1  17
HETATM   17  N1  UNL     1      25.124   0.881  53.457  1.00  0.00    -0.339 N 
HETATM   18  H3  UNL     1      24.543   0.945  54.311  1.00  0.00     0.167 HD
BRANCH  17  19
HETATM   19  C4  UNL     1      26.522   0.625  53.462  1.00  0.00     0.035 A 
HETATM   20  C3  UNL     1      27.348   1.721  53.632  1.00  0.00     0.032 A 
HETATM   21  C2  UNL     1      28.690   1.440  53.638  1.00  0.00     0.046 A 
HETATM   22  C1  UNL     1      29.191   0.176  53.489  1.00  0.00     0.138 A 
HETATM   23  F1  UNL     1      30.535   0.024  53.512  1.00  0.00    -0.204 F 
HETATM   24  C17 UNL     1      28.339  -0.891  53.322  1.00  0.00     0.074 A 
HETATM   25  C16 UNL     1      26.977  -0.663  53.308  1.00  0.00     0.056 A 
HETATM   26 CL2  UNL     1      29.008  -2.498  53.136  1.00  0.00    -0.081 Cl
ENDBRANCH  17  19
ENDBRANCH   1  17
TORSDOF 2
ENDMDL
MODEL 2
REMARK VINA RESULT:      -9.1      1.684      2.954
REMARK  2 active torsions:
REMARK  status: ('A' for Active; 'I' for Inactive)
REMARK    1  A    between atoms: C4_5  and  N1_6 
REMARK    2  A    between atoms: N1_6  and  C5_7 
ROOT
HETATM    1  C5  UNL     1      23.354  -0.019  53.416  1.00  0.00     0.158 A 
HETATM    2  N2  UNL     1      23.070  -0.811  54.487  1.00  0.00    -0.222 NA
HETATM    3  C6  UNL     1      21.819  -1.293  54.679  1.00  0.00     0.236 A 
HETATM    4  N3  UNL     1      20.816  -1.010  53.827  1.00  0.00    -0.239 NA
HETATM    5  C7  UNL     1      21.027  -0.234  52.749  1.00  0.00     0.101 A 
HETATM    6  C8  UNL     1      22.306   0.252  52.560  1.00  0.00     0.105 A 
HETATM    7  N4  UNL     1      22.491   1.058  51.410  1.00  0.00    -0.381 N 
HETATM    8  C9  UNL     1      21.506   1.496  50.440  1.00  0.00     0.159 A 
HETATM    9  C10 UNL     1      20.204   0.873  50.789  1.00  0.00    -0.026 A 
HETATM   10  C11 UNL     1      19.184   1.173  49.915  1.00  0.00     0.010 A 
HETATM   11  C12 UNL     1      17.906   0.690  50.086  1.00  0.00     0.002 A 
HETATM   12  C13 UNL     1      17.617  -0.128  51.164  1.00  0.00     0.025 A 
HETATM   13  C14 UNL     1      18.634  -0.439  52.051  1.00  0.00     0.047 A 
HETATM   14 CL1  UNL     1      18.393  -1.461  53.450  1.00  0.00    -0.083 Cl
HETATM   15  C15 UNL     1      19.906   0.057  51.860  1.00  0.00     0.025 A 
HETATM   16  H5  UNL     1      23.428   1.418  51.169  1.00  0.00     0.160 HD
ENDROOT
BRANCH   1  17
HETATM   17  N1  UNL     1      24.620   0.544  53.122  1.00  0.00    -0.339 N 
HETATM   18  H3  UNL     1      24.291   1.446  52.735  1.00  0.00     0.167 HD
BRANCH  17  19
HETATM   19  C4  UNL     1      25.990   0.180  53.237  1.00  0.00     0.035 A 
HETATM   20  C3  UNL     1      26.331  -1.084  52.793  1.00  0.00     0.032 A 
HETATM   21  C2  UNL     1      27.659  -1.403  52.913  1.00  0.00     0.046 A 
HETATM   22  C1  UNL     1      28.590  -0.544  53.430  1.00  0.00     0.138 A 
HETATM   23  F1  UNL     1      29.872  -0.972  53.497  1.00  0.00    -0.204 F 
HETATM   24  C17 UNL     1      28.215   0.706  53.862  1.00  0.00     0.074 A 
HETATM   25  C16 UNL     1      26.888   1.077  53.765  1.00  0.00     0.056 A 
HETATM   26 CL2  UNL     1      29.429   1.784  54.517  1.00  0.00    -0.081 Cl
ENDBRANCH  17  19
ENDBRANCH   1  17
TORSDOF 2
ENDMDL
MODEL 3
REMARK VINA RESULT:      -9.0      4.148      5.919
REMARK  2 active torsions:
REMARK  status: ('A' for Active; 'I' for Inactive)
REMARK    1  A    between atoms: C4_5  and  N1_6 
REMARK    2  A    between atoms: N1_6  and  C5_7 
ROOT
HETATM    1  C5  UNL     1      25.964   2.366  51.146  1.00  0.00     0.158 A 
HETATM    2  N2  UNL     1      27.119   2.153  51.836  1.00  0.00    -0.222 NA
HETATM    3  C6  UNL     1      27.141   1.337  52.917  1.00  0.00     0.236 A 
HETATM    4  N3  UNL     1      26.030   0.710  53.347  1.00  0.00    -0.239 NA
HETATM    5  C7  UNL     1      24.856   0.875  52.713  1.00  0.00     0.101 A 
HETATM    6  C8  UNL     1      24.844   1.708  51.611  1.00  0.00     0.105 A 
HETATM    7  N4  UNL     1      23.592   1.850  50.966  1.00  0.00    -0.381 N 
HETATM    8  C9  UNL     1      22.307   1.293  51.341  1.00  0.00     0.159 A 
HETATM    9  C10 UNL     1      22.509   0.423  52.528  1.00  0.00    -0.026 A 
HETATM   10  C11 UNL     1      21.367  -0.208  52.965  1.00  0.00     0.010 A 
HETATM   11  C12 UNL     1      21.365  -1.048  54.057  1.00  0.00     0.002 A 
HETATM   12  C13 UNL     1      22.540  -1.278  54.751  1.00  0.00     0.025 A 
HETATM   13  C14 UNL     1      23.697  -0.650  54.322  1.00  0.00     0.047 A 
HETATM   14 CL1  UNL     1      25.242  -0.861  55.115  1.00  0.00    -0.083 Cl
HETATM   15  C15 UNL     1      23.675   0.186  53.225  1.00  0.00     0.025 A 
HETATM   16  H5  UNL     1      23.508   2.414  50.104  1.00  0.00     0.160 HD
ENDROOT
BRANCH   1  17
HETATM   17  N1  UNL     1      25.826   3.201  50.010  1.00  0.00    -0.339 N 
HETATM   18  H3  UNL     1      25.262   2.558  49.427  1.00  0.00     0.167 HD
BRANCH  17  19
HETATM   19  C4  UNL     1      26.233   4.499  49.599  1.00  0.00     0.035 A 
HETATM   20  C3  UNL     1      27.362   4.568  48.804  1.00  0.00     0.032 A 
HETATM   21  C2  UNL     1      27.725   5.834  48.420  1.00  0.00     0.046 A 
HETATM   22  C1  UNL     1      27.031   6.954  48.786  1.00  0.00     0.138 A 
HETATM   23  F1  UNL     1      27.487   8.149  48.345  1.00  0.00    -0.204 F 
HETATM   24  C17 UNL     1      25.911   6.848  49.578  1.00  0.00     0.074 A 
HETATM   25  C16 UNL     1      25.503   5.596  49.993  1.00  0.00     0.056 A 
HETATM   26 CL2  UNL     1      25.042   8.299  50.029  1.00  0.00    -0.081 Cl
ENDBRANCH  17  19
ENDBRANCH   1  17
TORSDOF 2
ENDMDL
MODEL 4
REMARK VINA RESULT:      -8.6      4.213      6.523
REMARK  2 active torsions:
REMARK  status: ('A' for Active; 'I' for Inactive)
REMARK    1  A    between atoms: C4_5  and  N1_6 
REMARK    2  A    between atoms: N1_6  and  C5_7 
ROOT
HETATM    1  C5  UNL     1      24.808   2.850  51.669  1.00  0.00     0.158 A 
HETATM    2  N2  UNL     1      23.733   3.228  52.415  1.00  0.00    -0.222 NA
HETATM    3  C6  UNL     1      23.208   4.470  52.293  1.00  0.00     0.236 A 
HETATM    4  N3  UNL     1      23.724   5.372  51.438  1.00  0.00    -0.239 NA
HETATM    5  C7  UNL     1      24.785   5.065  50.671  1.00  0.00     0.101 A 
HETATM    6  C8  UNL     1      25.313   3.795  50.801  1.00  0.00     0.105 A 
HETATM    7  N4  UNL     1      26.424   3.507  49.971  1.00  0.00    -0.381 N 
HETATM    8  C9  UNL     1      27.124   4.383  49.052  1.00  0.00     0.159 A 
HETATM    9  C10 UNL     1      26.418   5.689  49.031  1.00  0.00    -0.026 A 
HETATM   10  C11 UNL     1      26.957   6.607  48.158  1.00  0.00     0.010 A 
HETATM   11  C12 UNL     1      26.437   7.873  48.011  1.00  0.00     0.002 A 
HETATM   12  C13 UNL     1      25.335   8.256  48.756  1.00  0.00     0.025 A 
HETATM   13  C14 UNL     1      24.782   7.343  49.638  1.00  0.00     0.047 A 
HETATM   14 CL1  UNL     1      23.391   7.709  50.633  1.00  0.00    -0.083 Cl
HETATM   15  C15 UNL     1      25.320   6.080  49.768  1.00  0.00     0.025 A 
HETATM   16  H5  UNL     1      26.845   2.564  49.970  1.00  0.00     0.160 HD
ENDROOT
BRANCH   1  17
HETATM   17  N1  UNL     1      25.440   1.583  51.721  1.00  0.00    -0.339 N 
HETATM   18  H3  UNL     1      24.836   1.094  51.035  1.00  0.00     0.167 HD
BRANCH  17  19
HETATM   19  C4  UNL     1      26.530   0.973  52.398  1.00  0.00     0.035 A 
HETATM   20  C3  UNL     1      26.603  -0.405  52.333  1.00  0.00     0.032 A 
HETATM   21  C2  UNL     1      27.669  -0.962  52.992  1.00  0.00     0.046 A 
HETATM   22  C1  UNL     1      28.600  -0.222  53.668  1.00  0.00     0.138 A 
HETATM   23  F1  UNL     1      29.608  -0.885  54.280  1.00  0.00    -0.204 F 
HETATM   24  C17 UNL     1      28.496   1.149  53.712  1.00  0.00     0.074 A 
HETATM   25  C16 UNL     1      27.440   1.760  53.065  1.00  0.00     0.056 A 
HETATM   26 CL2  UNL     1      29.703   2.070  54.582  1.00  0.00    -0.081 Cl
ENDBRANCH  17  19
ENDBRANCH   1  17
TORSDOF 2
ENDMDL
MODEL 5
REMARK VINA RESULT:      -8.6      4.554      5.975
REMARK  2 active torsions:
REMARK  status: ('A' for Active; 'I' for Inactive)
REMARK    1  A    between atoms: C4_5  and  N1_6 
REMARK    2  A    between atoms: N1_6  and  C5_7 
ROOT
HETATM    1  C5  UNL     1      25.578   2.934  50.723  1.00  0.00     0.158 A 
HETATM    2  N2  UNL     1      26.799   2.377  50.951  1.00  0.00    -0.222 NA
HETATM    3  C6  UNL     1      26.935   1.324  51.792  1.00  0.00     0.236 A 
HETATM    4  N3  UNL     1      25.876   0.793  52.430  1.00  0.00    -0.239 NA
HETATM    5  C7  UNL     1      24.640   1.294  52.251  1.00  0.00     0.101 A 
HETATM    6  C8  UNL     1      24.512   2.367  51.390  1.00  0.00     0.105 A 
HETATM    7  N4  UNL     1      23.196   2.861  51.221  1.00  0.00    -0.381 N 
HETATM    8  C9  UNL     1      21.975   2.437  51.877  1.00  0.00     0.159 A 
HETATM    9  C10 UNL     1      22.296   1.278  52.748  1.00  0.00    -0.026 A 
HETATM   10  C11 UNL     1      21.208   0.746  53.401  1.00  0.00     0.010 A 
HETATM   11  C12 UNL     1      21.319  -0.328  54.256  1.00  0.00     0.002 A 
HETATM   12  C13 UNL     1      22.556  -0.907  54.479  1.00  0.00     0.025 A 
HETATM   13  C14 UNL     1      23.660  -0.382  53.827  1.00  0.00     0.047 A 
HETATM   14 CL1  UNL     1      25.274  -1.026  54.027  1.00  0.00    -0.083 Cl
HETATM   15  C15 UNL     1      23.524   0.694  52.976  1.00  0.00     0.025 A 
HETATM   16  H5  UNL     1      23.007   3.628  50.555  1.00  0.00     0.160 HD
ENDROOT
BRANCH   1  17
HETATM   17  N1  UNL     1      25.323   4.037  49.871  1.00  0.00    -0.339 N 
HETATM   18  H3  UNL     1      24.477   3.666  49.404  1.00  0.00     0.167 HD
BRANCH  17  19
HETATM   19  C4  UNL     1      25.894   5.309  49.591  1.00  0.00     0.035 A 
HETATM   20  C3  UNL     1      25.318   6.395  50.223  1.00  0.00     0.032 A 
HETATM   21  C2  UNL     1      25.894   7.606  49.936  1.00  0.00     0.046 A 
HETATM   22  C1  UNL     1      26.960   7.745  49.090  1.00  0.00     0.138 A 
HETATM   23  F1  UNL     1      27.441   8.993  48.884  1.00  0.00    -0.204 F 
HETATM   24  C17 UNL     1      27.507   6.642  48.478  1.00  0.00     0.074 A 
HETATM   25  C16 UNL     1      26.964   5.398  48.732  1.00  0.00     0.056 A 
HETATM   26 CL2  UNL     1      28.872   6.850  47.402  1.00  0.00    -0.081 Cl
ENDBRANCH  17  19
ENDBRANCH   1  17
TORSDOF 2
ENDMDL
MODEL 6
REMARK VINA RESULT:      -8.6      4.266      8.412
REMARK  2 active torsions:
REMARK  status: ('A' for Active; 'I' for Inactive)
REMARK    1  A    between atoms: C4_5  and  N1_6 
REMARK    2  A    between atoms: N1_6  and  C5_7 
ROOT
HETATM    1  C5  UNL     1      19.537  -0.276  52.880  1.00  0.00     0.158 A 
HETATM    2  N2  UNL     1      19.318   0.548  51.818  1.00  0.00    -0.222 NA
HETATM    3  C6  UNL     1      20.346   1.197  51.221  1.00  0.00     0.236 A 
HETATM    4  N3  UNL     1      21.613   1.054  51.651  1.00  0.00    -0.239 NA
HETATM    5  C7  UNL     1      21.901   0.256  52.695  1.00  0.00     0.101 A 
HETATM    6  C8  UNL     1      20.846  -0.403  53.296  1.00  0.00     0.105 A 
HETATM    7  N4  UNL     1      21.190  -1.239  54.385  1.00  0.00    -0.381 N 
HETATM    8  C9  UNL     1      22.487  -1.449  54.997  1.00  0.00     0.159 A 
HETATM    9  C10 UNL     1      23.494  -0.681  54.221  1.00  0.00    -0.026 A 
HETATM   10  C11 UNL     1      24.786  -0.828  54.672  1.00  0.00     0.010 A 
HETATM   11  C12 UNL     1      25.848  -0.184  54.078  1.00  0.00     0.002 A 
HETATM   12  C13 UNL     1      25.631   0.642  52.989  1.00  0.00     0.025 A 
HETATM   13  C14 UNL     1      24.337   0.799  52.523  1.00  0.00     0.047 A 
HETATM   14 CL1  UNL     1      23.936   1.815  51.157  1.00  0.00    -0.083 Cl
HETATM   15  C15 UNL     1      23.289   0.144  53.135  1.00  0.00     0.025 A 
HETATM   16  H5  UNL     1      20.467  -1.807  54.857  1.00  0.00     0.160 HD
ENDROOT
BRANCH   1  17
HETATM   17  N1  UNL     1      18.539  -0.996  53.581  1.00  0.00    -0.339 N 
HETATM   18  H3  UNL     1      18.706  -0.594  54.521  1.00  0.00     0.167 HD
BRANCH  17  19
HETATM   19  C4  UNL     1      17.546  -1.973  53.298  1.00  0.00     0.035 A 
HETATM   20  C3  UNL     1      17.771  -3.243  53.794  1.00  0.00     0.032 A 
HETATM   21  C2  UNL     1      16.793  -4.160  53.508  1.00  0.00     0.046 A 
HETATM   22  C1  UNL     1      15.670  -3.856  52.788  1.00  0.00     0.138 A 
HETATM   23  F1  UNL     1      14.775  -4.846  52.569  1.00  0.00    -0.204 F 
HETATM   24  C17 UNL     1      15.479  -2.581  52.310  1.00  0.00     0.074 A 
HETATM   25  C16 UNL     1      16.435  -1.619  52.569  1.00  0.00     0.056 A 
HETATM   26 CL2  UNL     1      14.032  -2.220  51.393  1.00  0.00    -0.081 Cl
ENDBRANCH  17  19
ENDBRANCH   1  17
TORSDOF 2
ENDMDL
MODEL 7
REMARK VINA RESULT:      -8.5      4.535      7.480
REMARK  2 active torsions:
REMARK  status: ('A' for Active; 'I' for Inactive)
REMARK    1  A    between atoms: C4_5  and  N1_6 
REMARK    2  A    between atoms: N1_6  and  C5_7 
ROOT
HETATM    1  C5  UNL     1      23.349   3.139  51.384  1.00  0.00     0.158 A 
HETATM    2  N2  UNL     1      22.442   4.034  51.864  1.00  0.00    -0.222 NA
HETATM    3  C6  UNL     1      22.598   5.362  51.649  1.00  0.00     0.236 A 
HETATM    4  N3  UNL     1      23.648   5.845  50.959  1.00  0.00    -0.239 NA
HETATM    5  C7  UNL     1      24.582   5.017  50.457  1.00  0.00     0.101 A 
HETATM    6  C8  UNL     1      24.413   3.664  50.680  1.00  0.00     0.105 A 
HETATM    7  N4  UNL     1      25.411   2.825  50.129  1.00  0.00    -0.381 N 
HETATM    8  C9  UNL     1      26.620   3.195  49.419  1.00  0.00     0.159 A 
HETATM    9  C10 UNL     1      26.630   4.671  49.261  1.00  0.00    -0.026 A 
HETATM   10  C11 UNL     1      27.710   5.156  48.560  1.00  0.00     0.010 A 
HETATM   11  C12 UNL     1      27.888   6.501  48.323  1.00  0.00     0.002 A 
HETATM   12  C13 UNL     1      26.960   7.412  48.796  1.00  0.00     0.025 A 
HETATM   13  C14 UNL     1      25.867   6.939  49.502  1.00  0.00     0.047 A 
HETATM   14 CL1  UNL     1      24.628   7.990  50.150  1.00  0.00    -0.083 Cl
HETATM   15  C15 UNL     1      25.711   5.587  49.727  1.00  0.00     0.025 A 
HETATM   16  H5  UNL     1      25.332   1.798  50.206  1.00  0.00     0.160 HD
ENDROOT
BRANCH   1  17
HETATM   17  N1  UNL     1      23.288   1.734  51.555  1.00  0.00    -0.339 N 
HETATM   18  H3  UNL     1      23.974   1.471  50.824  1.00  0.00     0.167 HD
BRANCH  17  19
HETATM   19  C4  UNL     1      22.602   0.799  52.377  1.00  0.00     0.035 A 
HETATM   20  C3  UNL     1      21.292   0.524  52.036  1.00  0.00     0.032 A 
HETATM   21  C2  UNL     1      20.660  -0.385  52.845  1.00  0.00     0.046 A 
HETATM   22  C1  UNL     1      21.268  -0.985  53.913  1.00  0.00     0.138 A 
HETATM   23  F1  UNL     1      20.542  -1.866  54.638  1.00  0.00    -0.204 F 
HETATM   24  C17 UNL     1      22.574  -0.687  54.224  1.00  0.00     0.074 A 
HETATM   25  C16 UNL     1      23.257   0.224  53.441  1.00  0.00     0.056 A 
HETATM   26 CL2  UNL     1      23.327  -1.471  55.596  1.00  0.00    -0.081 Cl
ENDBRANCH  17  19
ENDBRANCH   1  17
TORSDOF 2
ENDMDL
MODEL 8
REMARK VINA RESULT:      -8.5      2.767      4.972
REMARK  2 active torsions:
REMARK  status: ('A' for Active; 'I' for Inactive)
REMARK    1  A    between atoms: C4_5  and  N1_6 
REMARK    2  A    between atoms: N1_6  and  C5_7 
ROOT
HETATM    1  C5  UNL     1      25.084   2.602  52.340  1.00  0.00     0.158 A 
HETATM    2  N2  UNL     1      23.994   1.950  52.831  1.00  0.00    -0.222 NA
HETATM    3  C6  UNL     1      22.765   2.155  52.298  1.00  0.00     0.236 A 
HETATM    4  N3  UNL     1      22.576   3.005  51.272  1.00  0.00    -0.239 NA
HETATM    5  C7  UNL     1      23.609   3.682  50.738  1.00  0.00     0.101 A 
HETATM    6  C8  UNL     1      24.858   3.465  51.287  1.00  0.00     0.105 A 
HETATM    7  N4  UNL     1      25.921   4.188  50.693  1.00  0.00    -0.381 N 
HETATM    8  C9  UNL     1      25.868   5.174  49.632  1.00  0.00     0.159 A 
HETATM    9  C10 UNL     1      24.464   5.268  49.158  1.00  0.00    -0.026 A 
HETATM   10  C11 UNL     1      24.279   6.144  48.113  1.00  0.00     0.010 A 
HETATM   11  C12 UNL     1      23.042   6.365  47.550  1.00  0.00     0.002 A 
HETATM   12  C13 UNL     1      21.934   5.693  48.036  1.00  0.00     0.025 A 
HETATM   13  C14 UNL     1      22.105   4.808  49.087  1.00  0.00     0.047 A 
HETATM   14 CL1  UNL     1      20.783   3.901  49.788  1.00  0.00    -0.083 Cl
HETATM   15  C15 UNL     1      23.354   4.603  49.635  1.00  0.00     0.025 A 
HETATM   16  H5  UNL     1      26.893   4.044  51.011  1.00  0.00     0.160 HD
ENDROOT
BRANCH   1  17
HETATM   17  N1  UNL     1      26.409   2.468  52.823  1.00  0.00    -0.339 N 
HETATM   18  H3  UNL     1      26.608   3.473  52.975  1.00  0.00     0.167 HD
BRANCH  17  19
HETATM   19  C4  UNL     1      27.335   1.424  53.089  1.00  0.00     0.035 A 
HETATM   20  C3  UNL     1      28.531   1.795  53.675  1.00  0.00     0.032 A 
HETATM   21  C2  UNL     1      29.400   0.764  53.923  1.00  0.00     0.046 A 
HETATM   22  C1  UNL     1      29.120  -0.540  53.620  1.00  0.00     0.138 A 
HETATM   23  F1  UNL     1      30.058  -1.470  53.912  1.00  0.00    -0.204 F 
HETATM   24  C17 UNL     1      27.920  -0.873  53.036  1.00  0.00     0.074 A 
HETATM   25  C16 UNL     1      27.008   0.128  52.764  1.00  0.00     0.056 A 
HETATM   26 CL2  UNL     1      27.588  -2.550  52.661  1.00  0.00    -0.081 Cl
ENDBRANCH  17  19
ENDBRANCH   1  17
TORSDOF 2
ENDMDL
MODEL 9
REMARK VINA RESULT:      -8.3      4.021      8.426
REMARK  2 active torsions:
REMARK  status: ('A' for Active; 'I' for Inactive)
REMARK    1  A    between atoms: C4_5  and  N1_6 
REMARK    2  A    between atoms: N1_6  and  C5_7 
ROOT
HETATM    1  C5  UNL     1      20.727  -0.723  54.073  1.00  0.00     0.158 A 
HETATM    2  N2  UNL     1      21.243  -1.533  55.038  1.00  0.00    -0.222 NA
HETATM    3  C6  UNL     1      22.581  -1.606  55.239  1.00  0.00     0.236 A 
HETATM    4  N3  UNL     1      23.444  -0.887  54.498  1.00  0.00    -0.239 NA
HETATM    5  C7  UNL     1      23.003  -0.067  53.528  1.00  0.00     0.101 A 
HETATM    6  C8  UNL     1      21.637   0.002  53.331  1.00  0.00     0.105 A 
HETATM    7  N4  UNL     1      21.211   0.882  52.308  1.00  0.00    -0.381 N 
HETATM    8  C9  UNL     1      22.014   1.671  51.394  1.00  0.00     0.159 A 
HETATM    9  C10 UNL     1      23.442   1.486  51.756  1.00  0.00    -0.026 A 
HETATM   10  C11 UNL     1      24.317   2.220  50.988  1.00  0.00     0.010 A 
HETATM   11  C12 UNL     1      25.681   2.168  51.178  1.00  0.00     0.002 A 
HETATM   12  C13 UNL     1      26.208   1.357  52.167  1.00  0.00     0.025 A 
HETATM   13  C14 UNL     1      25.339   0.614  52.948  1.00  0.00     0.047 A 
HETATM   14 CL1  UNL     1      25.884  -0.446  54.229  1.00  0.00    -0.083 Cl
HETATM   15  C15 UNL     1      23.977   0.682  52.740  1.00  0.00     0.025 A 
HETATM   16  H5  UNL     1      20.204   1.031  52.132  1.00  0.00     0.160 HD
ENDROOT
BRANCH   1  17
HETATM   17  N1  UNL     1      19.351  -0.574  53.774  1.00  0.00    -0.339 N 
HETATM   18  H3  UNL     1      19.295   0.457  53.860  1.00  0.00     0.167 HD
BRANCH  17  19
HETATM   19  C4  UNL     1      18.247  -1.405  53.441  1.00  0.00     0.035 A 
HETATM   20  C3  UNL     1      18.366  -2.745  53.760  1.00  0.00     0.032 A 
HETATM   21  C2  UNL     1      17.283  -3.519  53.430  1.00  0.00     0.046 A 
HETATM   22  C1  UNL     1      16.160  -3.017  52.832  1.00  0.00     0.138 A 
HETATM   23  F1  UNL     1      15.155  -3.880  52.555  1.00  0.00    -0.204 F 
HETATM   24  C17 UNL     1      16.076  -1.678  52.528  1.00  0.00     0.074 A 
HETATM   25  C16 UNL     1      17.140  -0.854  52.839  1.00  0.00     0.056 A 
HETATM   26 CL2  UNL     1      14.626  -1.064  51.764  1.00  0.00    -0.081 Cl
ENDBRANCH  17  19
ENDBRANCH   1  17
TORSDOF 2
ENDMDL
