MODEL 1
REMARK VINA RESULT:      -8.3      0.000      0.000
REMARK  4 active torsions:
REMARK  status: ('A' for Active; 'I' for Inactive)
REMARK    1  A    between atoms: C5_5  and  C6_6 
REMARK    2  A    between atoms: N2_8  and  C7_9 
REMARK    3  A    between atoms: C8_11  and  O1_12 
REMARK    4  A    between atoms: C10_15  and  C11_16 
ROOT
HETATM    1  C6  UNL     1      25.097   1.479  52.822  1.00  0.00     0.067 C 
HETATM    2  N1  UNL     1      24.023   1.118  52.206  1.00  0.00    -0.173 NA
HETATM    3  N2  UNL     1      23.083   2.140  52.208  1.00  0.00    -0.237 N 
HETATM    4  C10 UNL     1      23.717   3.373  52.645  1.00  0.00     0.148 C 
HETATM    5  C16 UNL     1      24.956   2.869  53.319  1.00  0.00     0.094 C 
ENDROOT
BRANCH   1   6
HETATM    6  C5  UNL     1      26.284   0.649  53.005  1.00  0.00    -0.010 A 
HETATM    7  C4  UNL     1      26.337  -0.670  52.595  1.00  0.00     0.014 A 
HETATM    8  C3  UNL     1      27.501  -1.411  52.798  1.00  0.00     0.007 A 
HETATM    9  C2  UNL     1      28.592  -0.858  53.397  1.00  0.00    -0.062 A 
HETATM   10  C1  UNL     1      29.813  -1.692  53.592  1.00  0.00     0.048 C 
HETATM   11  C18 UNL     1      28.584   0.453  53.821  1.00  0.00     0.007 A 
HETATM   12  C17 UNL     1      27.420   1.177  53.613  1.00  0.00     0.014 A 
ENDBRANCH   1   6
BRANCH   3  13
HETATM   13  C7  UNL     1      21.698   2.091  51.856  1.00  0.00     0.192 A 
HETATM   14  N3  UNL     1      20.679   2.982  52.222  1.00  0.00    -0.198 NA
HETATM   15  C8  UNL     1      19.522   2.575  51.682  1.00  0.00     0.171 A 
HETATM   16  C9  UNL     1      19.304   1.374  50.822  1.00  0.00     0.111 A 
HETATM   17  S1  UNL     1      21.063   0.789  50.833  1.00  0.00    -0.058 SA
BRANCH  15  18
HETATM   18  O1  UNL     1      18.560   3.525  52.101  1.00  0.00    -0.344 OA
HETATM   19  H6  UNL     1      17.828   3.251  52.761  1.00  0.00     0.219 HD
ENDBRANCH  15  18
ENDBRANCH   3  13
BRANCH   4  20
HETATM   20  C11 UNL     1      23.948   4.305  51.540  1.00  0.00    -0.049 C 
HETATM   21  C12 UNL     1      24.867   4.031  50.609  1.00  0.00     0.025 C 
HETATM   22  C13 UNL     1      25.144   4.930  49.474  1.00  0.00     0.023 C 
HETATM   23 BR1  UNL     1      26.924   5.117  48.848  1.00  0.00    -0.050 Br
HETATM   24  C14 UNL     1      24.130   5.579  48.928  1.00  0.00     0.004 C 
HETATM   25  P1  UNL     1      23.332   6.475  50.077  1.00  0.00    -0.043 P 
HETATM   26  C15 UNL     1      23.061   5.477  51.645  1.00  0.00     0.080 C 
ENDBRANCH   4  20
TORSDOF 4
ENDMDL
MODEL 2
REMARK VINA RESULT:      -7.9      1.343      1.575
REMARK  4 active torsions:
REMARK  status: ('A' for Active; 'I' for Inactive)
REMARK    1  A    between atoms: C5_5  and  C6_6 
REMARK    2  A    between atoms: N2_8  and  C7_9 
REMARK    3  A    between atoms: C8_11  and  O1_12 
REMARK    4  A    between atoms: C10_15  and  C11_16 
ROOT
HETATM    1  C6  UNL     1      24.991   1.467  52.718  1.00  0.00     0.067 C 
HETATM    2  N1  UNL     1      23.942   1.186  52.022  1.00  0.00    -0.173 NA
HETATM    3  N2  UNL     1      23.023   2.226  52.069  1.00  0.00    -0.237 N 
HETATM    4  C10 UNL     1      23.658   3.401  52.644  1.00  0.00     0.148 C 
HETATM    5  C16 UNL     1      24.852   2.811  53.330  1.00  0.00     0.094 C 
ENDROOT
BRANCH   1   6
HETATM    6  C5  UNL     1      26.151   0.596  52.884  1.00  0.00    -0.010 A 
HETATM    7  C4  UNL     1      26.084  -0.772  52.698  1.00  0.00     0.014 A 
HETATM    8  C3  UNL     1      27.229  -1.550  52.871  1.00  0.00     0.007 A 
HETATM    9  C2  UNL     1      28.417  -0.985  53.223  1.00  0.00    -0.062 A 
HETATM   10  C1  UNL     1      29.612  -1.860  53.397  1.00  0.00     0.048 C 
HETATM   11  C18 UNL     1      28.530   0.374  53.419  1.00  0.00     0.007 A 
HETATM   12  C17 UNL     1      27.384   1.135  53.244  1.00  0.00     0.014 A 
ENDBRANCH   1   6
BRANCH   3  13
HETATM   13  C7  UNL     1      21.656   2.241  51.649  1.00  0.00     0.192 A 
HETATM   14  N3  UNL     1      20.603   3.018  52.151  1.00  0.00    -0.198 NA
HETATM   15  C8  UNL     1      19.480   2.728  51.479  1.00  0.00     0.171 A 
HETATM   16  C9  UNL     1      19.327   1.742  50.369  1.00  0.00     0.111 A 
HETATM   17  S1  UNL     1      21.096   1.188  50.336  1.00  0.00    -0.058 SA
BRANCH  15  18
HETATM   18  O1  UNL     1      18.481   3.552  52.049  1.00  0.00    -0.344 OA
HETATM   19  H6  UNL     1      18.269   3.480  53.047  1.00  0.00     0.219 HD
ENDBRANCH  15  18
ENDBRANCH   3  13
BRANCH   4  20
HETATM   20  C11 UNL     1      23.961   4.420  51.638  1.00  0.00    -0.049 C 
HETATM   21  C12 UNL     1      23.339   5.602  51.666  1.00  0.00     0.025 C 
HETATM   22  C13 UNL     1      23.602   6.666  50.680  1.00  0.00     0.023 C 
HETATM   23 BR1  UNL     1      22.172   7.760  50.089  1.00  0.00    -0.050 Br
HETATM   24  C14 UNL     1      24.839   6.819  50.241  1.00  0.00     0.004 C 
HETATM   25  P1  UNL     1      25.401   5.398  49.588  1.00  0.00    -0.043 P 
HETATM   26  C15 UNL     1      24.980   3.935  50.689  1.00  0.00     0.080 C 
ENDBRANCH   4  20
TORSDOF 4
ENDMDL
MODEL 3
REMARK VINA RESULT:      -7.7      2.872      6.448
REMARK  4 active torsions:
REMARK  status: ('A' for Active; 'I' for Inactive)
REMARK    1  A    between atoms: C5_5  and  C6_6 
REMARK    2  A    between atoms: N2_8  and  C7_9 
REMARK    3  A    between atoms: C8_11  and  O1_12 
REMARK    4  A    between atoms: C10_15  and  C11_16 
ROOT
HETATM    1  C6  UNL     1      21.383   0.518  51.808  1.00  0.00     0.067 C 
HETATM    2  N1  UNL     1      22.266   0.612  52.744  1.00  0.00    -0.173 NA
HETATM    3  N2  UNL     1      23.484   1.040  52.233  1.00  0.00    -0.237 N 
HETATM    4  C10 UNL     1      23.293   1.517  50.873  1.00  0.00     0.148 C 
HETATM    5  C16 UNL     1      21.977   0.904  50.505  1.00  0.00     0.094 C 
ENDROOT
BRANCH   1   6
HETATM    6  C5  UNL     1      19.997   0.097  51.995  1.00  0.00    -0.010 A 
HETATM    7  C4  UNL     1      19.580  -0.603  53.112  1.00  0.00     0.014 A 
HETATM    8  C3  UNL     1      18.241  -0.977  53.233  1.00  0.00     0.007 A 
HETATM    9  C2  UNL     1      17.333  -0.665  52.266  1.00  0.00    -0.062 A 
HETATM   10  C1  UNL     1      15.914  -1.088  52.442  1.00  0.00     0.048 C 
HETATM   11  C18 UNL     1      17.706   0.031  51.137  1.00  0.00     0.007 A 
HETATM   12  C17 UNL     1      19.039   0.396  51.031  1.00  0.00     0.014 A 
ENDBRANCH   1   6
BRANCH   3  13
HETATM   13  C7  UNL     1      24.770   1.051  52.860  1.00  0.00     0.192 A 
HETATM   14  N3  UNL     1      25.542   2.159  53.234  1.00  0.00    -0.198 NA
HETATM   15  C8  UNL     1      26.685   1.734  53.792  1.00  0.00     0.171 A 
HETATM   16  C9  UNL     1      27.110   0.318  54.001  1.00  0.00     0.111 A 
HETATM   17  S1  UNL     1      25.598  -0.464  53.265  1.00  0.00    -0.058 SA
BRANCH  15  18
HETATM   18  O1  UNL     1      27.393   2.909  54.135  1.00  0.00    -0.344 OA
HETATM   19  H6  UNL     1      27.797   3.495  53.398  1.00  0.00     0.219 HD
ENDBRANCH  15  18
ENDBRANCH   3  13
BRANCH   4  20
HETATM   20  C11 UNL     1      23.344   2.977  50.782  1.00  0.00    -0.049 C 
HETATM   21  C12 UNL     1      24.138   3.570  49.884  1.00  0.00     0.025 C 
HETATM   22  C13 UNL     1      24.231   5.034  49.746  1.00  0.00     0.023 C 
HETATM   23 BR1  UNL     1      25.903   5.825  49.331  1.00  0.00    -0.050 Br
HETATM   24  C14 UNL     1      23.133   5.750  49.917  1.00  0.00     0.004 C 
HETATM   25  P1  UNL     1      22.469   5.441  51.409  1.00  0.00    -0.043 P 
HETATM   26  C15 UNL     1      22.443   3.598  51.769  1.00  0.00     0.080 C 
ENDBRANCH   4  20
TORSDOF 4
ENDMDL
MODEL 4
REMARK VINA RESULT:      -7.5      3.748      5.289
REMARK  4 active torsions:
REMARK  status: ('A' for Active; 'I' for Inactive)
REMARK    1  A    between atoms: C5_5  and  C6_6 
REMARK    2  A    between atoms: N2_8  and  C7_9 
REMARK    3  A    between atoms: C8_11  and  O1_12 
REMARK    4  A    between atoms: C10_15  and  C11_16 
ROOT
HETATM    1  C6  UNL     1      24.311   4.026  50.958  1.00  0.00     0.067 C 
HETATM    2  N1  UNL     1      24.253   2.787  51.313  1.00  0.00    -0.173 NA
HETATM    3  N2  UNL     1      23.119   2.543  52.077  1.00  0.00    -0.237 N 
HETATM    4  C10 UNL     1      22.225   3.687  51.987  1.00  0.00     0.148 C 
HETATM    5  C16 UNL     1      23.140   4.764  51.491  1.00  0.00     0.094 C 
ENDROOT
BRANCH   1   6
HETATM    6  C5  UNL     1      25.370   4.623  50.149  1.00  0.00    -0.010 A 
HETATM    7  C4  UNL     1      26.395   3.875  49.601  1.00  0.00     0.014 A 
HETATM    8  C3  UNL     1      27.378   4.504  48.837  1.00  0.00     0.007 A 
HETATM    9  C2  UNL     1      27.347   5.848  48.620  1.00  0.00    -0.062 A 
HETATM   10  C1  UNL     1      28.421   6.474  47.796  1.00  0.00     0.048 C 
HETATM   11  C18 UNL     1      26.344   6.632  49.147  1.00  0.00     0.007 A 
HETATM   12  C17 UNL     1      25.375   5.993  49.905  1.00  0.00     0.014 A 
ENDBRANCH   1   6
BRANCH   3  13
HETATM   13  C7  UNL     1      22.790   1.392  52.860  1.00  0.00     0.192 A 
HETATM   14  N3  UNL     1      21.564   1.075  53.461  1.00  0.00    -0.198 NA
HETATM   15  C8  UNL     1      21.678  -0.095  54.105  1.00  0.00     0.171 A 
HETATM   16  C9  UNL     1      22.894  -0.957  54.195  1.00  0.00     0.111 A 
HETATM   17  S1  UNL     1      23.999   0.136  53.183  1.00  0.00    -0.058 SA
BRANCH  15  18
HETATM   18  O1  UNL     1      20.405  -0.333  54.675  1.00  0.00    -0.344 OA
HETATM   19  H6  UNL     1      20.097  -1.293  54.853  1.00  0.00     0.219 HD
ENDBRANCH  15  18
ENDBRANCH   3  13
BRANCH   4  20
HETATM   20  C11 UNL     1      21.063   3.421  51.137  1.00  0.00    -0.049 C 
HETATM   21  C12 UNL     1      21.230   3.053  49.863  1.00  0.00     0.025 C 
HETATM   22  C13 UNL     1      20.099   2.772  48.960  1.00  0.00     0.023 C 
HETATM   23 BR1  UNL     1      20.224   3.263  47.133  1.00  0.00    -0.050 Br
HETATM   24  C14 UNL     1      19.029   2.181  49.463  1.00  0.00     0.004 C 
HETATM   25  P1  UNL     1      18.428   3.061  50.738  1.00  0.00    -0.043 P 
HETATM   26  C15 UNL     1      19.809   3.617  51.885  1.00  0.00     0.080 C 
ENDBRANCH   4  20
TORSDOF 4
ENDMDL
MODEL 5
REMARK VINA RESULT:      -7.4      3.511      6.100
REMARK  4 active torsions:
REMARK  status: ('A' for Active; 'I' for Inactive)
REMARK    1  A    between atoms: C5_5  and  C6_6 
REMARK    2  A    between atoms: N2_8  and  C7_9 
REMARK    3  A    between atoms: C8_11  and  O1_12 
REMARK    4  A    between atoms: C10_15  and  C11_16 
ROOT
HETATM    1  C6  UNL     1      25.974   4.679  49.807  1.00  0.00     0.067 C 
HETATM    2  N1  UNL     1      26.227   3.462  50.155  1.00  0.00    -0.173 NA
HETATM    3  N2  UNL     1      25.210   2.954  50.953  1.00  0.00    -0.237 N 
HETATM    4  C10 UNL     1      24.065   3.849  50.899  1.00  0.00     0.148 C 
HETATM    5  C16 UNL     1      24.678   5.114  50.381  1.00  0.00     0.094 C 
ENDROOT
BRANCH   1   6
HETATM    6  C5  UNL     1      26.832   5.512  48.970  1.00  0.00    -0.010 A 
HETATM    7  C4  UNL     1      26.405   6.714  48.436  1.00  0.00     0.014 A 
HETATM    8  C3  UNL     1      27.273   7.465  47.643  1.00  0.00     0.007 A 
HETATM    9  C2  UNL     1      28.538   7.034  47.382  1.00  0.00    -0.062 A 
HETATM   10  C1  UNL     1      29.427   7.873  46.528  1.00  0.00     0.048 C 
HETATM   11  C18 UNL     1      29.005   5.843  47.893  1.00  0.00     0.007 A 
HETATM   12  C17 UNL     1      28.132   5.107  48.679  1.00  0.00     0.014 A 
ENDBRANCH   1   6
BRANCH   3  13
HETATM   13  C7  UNL     1      25.193   1.758  51.738  1.00  0.00     0.192 A 
HETATM   14  N3  UNL     1      24.132   1.227  52.485  1.00  0.00    -0.198 NA
HETATM   15  C8  UNL     1      24.531   0.092  53.074  1.00  0.00     0.171 A 
HETATM   16  C9  UNL     1      25.879  -0.544  52.979  1.00  0.00     0.111 A 
HETATM   17  S1  UNL     1      26.632   0.731  51.863  1.00  0.00    -0.058 SA
BRANCH  15  18
HETATM   18  O1  UNL     1      23.407  -0.369  53.799  1.00  0.00    -0.344 OA
HETATM   19  H6  UNL     1      23.124   0.110  54.658  1.00  0.00     0.219 HD
ENDBRANCH  15  18
ENDBRANCH   3  13
BRANCH   4  20
HETATM   20  C11 UNL     1      22.974   3.310  50.084  1.00  0.00    -0.049 C 
HETATM   21  C12 UNL     1      23.103   3.224  48.757  1.00  0.00     0.025 C 
HETATM   22  C13 UNL     1      22.040   2.691  47.885  1.00  0.00     0.023 C 
HETATM   23 BR1  UNL     1      21.765   3.462  46.176  1.00  0.00    -0.050 Br
HETATM   24  C14 UNL     1      21.311   1.683  48.333  1.00  0.00     0.004 C 
HETATM   25  P1  UNL     1      20.601   2.082  49.781  1.00  0.00    -0.043 P 
HETATM   26  C15 UNL     1      21.830   2.922  50.927  1.00  0.00     0.080 C 
ENDBRANCH   4  20
TORSDOF 4
ENDMDL
MODEL 6
REMARK VINA RESULT:      -7.4      4.071      5.659
REMARK  4 active torsions:
REMARK  status: ('A' for Active; 'I' for Inactive)
REMARK    1  A    between atoms: C5_5  and  C6_6 
REMARK    2  A    between atoms: N2_8  and  C7_9 
REMARK    3  A    between atoms: C8_11  and  O1_12 
REMARK    4  A    between atoms: C10_15  and  C11_16 
ROOT
HETATM    1  C6  UNL     1      23.607   2.638  51.098  1.00  0.00     0.067 C 
HETATM    2  N1  UNL     1      24.219   3.747  51.345  1.00  0.00    -0.173 NA
HETATM    3  N2  UNL     1      24.394   4.486  50.183  1.00  0.00    -0.237 N 
HETATM    4  C10 UNL     1      23.584   3.910  49.122  1.00  0.00     0.148 C 
HETATM    5  C16 UNL     1      23.300   2.538  49.651  1.00  0.00     0.094 C 
ENDROOT
BRANCH   1   6
HETATM    6  C5  UNL     1      23.261   1.626  52.092  1.00  0.00    -0.010 A 
HETATM    7  C4  UNL     1      21.977   1.478  52.584  1.00  0.00     0.014 A 
HETATM    8  C3  UNL     1      21.710   0.491  53.532  1.00  0.00     0.007 A 
HETATM    9  C2  UNL     1      22.694  -0.334  53.986  1.00  0.00    -0.062 A 
HETATM   10  C1  UNL     1      22.358  -1.373  55.001  1.00  0.00     0.048 C 
HETATM   11  C18 UNL     1      23.987  -0.222  53.523  1.00  0.00     0.007 A 
HETATM   12  C17 UNL     1      24.238   0.764  52.581  1.00  0.00     0.014 A 
ENDBRANCH   1   6
BRANCH   3  13
HETATM   13  C7  UNL     1      25.214   5.637  49.962  1.00  0.00     0.192 A 
HETATM   14  N3  UNL     1      25.116   6.899  50.564  1.00  0.00    -0.198 NA
HETATM   15  C8  UNL     1      26.078   7.696  50.078  1.00  0.00     0.171 A 
HETATM   16  C9  UNL     1      27.109   7.341  49.058  1.00  0.00     0.111 A 
HETATM   17  S1  UNL     1      26.557   5.589  48.805  1.00  0.00    -0.058 SA
BRANCH  15  18
HETATM   18  O1  UNL     1      25.903   8.936  50.736  1.00  0.00    -0.344 OA
HETATM   19  H6  UNL     1      26.506   9.184  51.525  1.00  0.00     0.219 HD
ENDBRANCH  15  18
ENDBRANCH   3  13
BRANCH   4  20
HETATM   20  C11 UNL     1      22.399   4.718  48.825  1.00  0.00    -0.049 C 
HETATM   21  C12 UNL     1      21.349   4.704  49.653  1.00  0.00     0.025 C 
HETATM   22  C13 UNL     1      20.130   5.495  49.407  1.00  0.00     0.023 C 
HETATM   23 BR1  UNL     1      18.442   4.770  49.873  1.00  0.00    -0.050 Br
HETATM   24  C14 UNL     1      20.260   6.694  48.865  1.00  0.00     0.004 C 
HETATM   25  P1  UNL     1      21.075   6.589  47.420  1.00  0.00    -0.043 P 
HETATM   26  C15 UNL     1      22.574   5.468  47.569  1.00  0.00     0.080 C 
ENDBRANCH   4  20
TORSDOF 4
ENDMDL
MODEL 7
REMARK VINA RESULT:      -7.3      8.608     11.008
REMARK  4 active torsions:
REMARK  status: ('A' for Active; 'I' for Inactive)
REMARK    1  A    between atoms: C5_5  and  C6_6 
REMARK    2  A    between atoms: N2_8  and  C7_9 
REMARK    3  A    between atoms: C8_11  and  O1_12 
REMARK    4  A    between atoms: C10_15  and  C11_16 
ROOT
HETATM    1  C6  UNL     1      29.445   6.568  47.839  1.00  0.00     0.067 C 
HETATM    2  N1  UNL     1      30.529   6.491  48.535  1.00  0.00    -0.173 NA
HETATM    3  N2  UNL     1      31.601   7.041  47.846  1.00  0.00    -0.237 N 
HETATM    4  C10 UNL     1      31.104   7.779  46.696  1.00  0.00     0.148 C 
HETATM    5  C16 UNL     1      29.722   7.223  46.538  1.00  0.00     0.094 C 
ENDROOT
BRANCH   1   6
HETATM    6  C5  UNL     1      28.134   6.086  48.263  1.00  0.00    -0.010 A 
HETATM    7  C4  UNL     1      27.928   4.794  48.709  1.00  0.00     0.014 A 
HETATM    8  C3  UNL     1      26.650   4.393  49.101  1.00  0.00     0.007 A 
HETATM    9  C2  UNL     1      25.597   5.255  49.051  1.00  0.00    -0.062 A 
HETATM   10  C1  UNL     1      24.250   4.778  49.480  1.00  0.00     0.048 C 
HETATM   11  C18 UNL     1      25.757   6.551  48.613  1.00  0.00     0.007 A 
HETATM   12  C17 UNL     1      27.032   6.935  48.227  1.00  0.00     0.014 A 
ENDBRANCH   1   6
BRANCH   3  13
HETATM   13  C7  UNL     1      32.999   6.954  48.136  1.00  0.00     0.192 A 
HETATM   14  N3  UNL     1      33.925   7.999  48.257  1.00  0.00    -0.198 NA
HETATM   15  C8  UNL     1      35.133   7.489  48.535  1.00  0.00     0.171 A 
HETATM   16  C9  UNL     1      35.483   6.047  48.699  1.00  0.00     0.111 A 
HETATM   17  S1  UNL     1      33.779   5.383  48.396  1.00  0.00    -0.058 SA
BRANCH  15  18
HETATM   18  O1  UNL     1      35.996   8.606  48.638  1.00  0.00    -0.344 OA
HETATM   19  H6  UNL     1      36.248   9.134  47.798  1.00  0.00     0.219 HD
ENDBRANCH  15  18
ENDBRANCH   3  13
BRANCH   4  20
HETATM   20  C11 UNL     1      31.170   9.229  46.893  1.00  0.00    -0.049 C 
HETATM   21  C12 UNL     1      30.517   9.801  47.909  1.00  0.00     0.025 C 
HETATM   22  C13 UNL     1      30.546  11.254  48.157  1.00  0.00     0.023 C 
HETATM   23 BR1  UNL     1      28.987  12.119  48.802  1.00  0.00    -0.050 Br
HETATM   24  C14 UNL     1      31.670  11.907  47.919  1.00  0.00     0.004 C 
HETATM   25  P1  UNL     1      32.155  11.670  46.347  1.00  0.00    -0.043 P 
HETATM   26  C15 UNL     1      32.008   9.862  45.860  1.00  0.00     0.080 C 
ENDBRANCH   4  20
TORSDOF 4
ENDMDL
MODEL 8
REMARK VINA RESULT:      -7.3      4.097      5.790
REMARK  4 active torsions:
REMARK  status: ('A' for Active; 'I' for Inactive)
REMARK    1  A    between atoms: C5_5  and  C6_6 
REMARK    2  A    between atoms: N2_8  and  C7_9 
REMARK    3  A    between atoms: C8_11  and  O1_12 
REMARK    4  A    between atoms: C10_15  and  C11_16 
ROOT
HETATM    1  C6  UNL     1      24.061   2.456  50.861  1.00  0.00     0.067 C 
HETATM    2  N1  UNL     1      25.085   3.241  50.901  1.00  0.00    -0.173 NA
HETATM    3  N2  UNL     1      25.175   3.997  49.740  1.00  0.00    -0.237 N 
HETATM    4  C10 UNL     1      23.937   3.870  48.987  1.00  0.00     0.148 C 
HETATM    5  C16 UNL     1      23.331   2.636  49.583  1.00  0.00     0.094 C 
ENDROOT
BRANCH   1   6
HETATM    6  C5  UNL     1      23.670   1.526  51.916  1.00  0.00    -0.010 A 
HETATM    7  C4  UNL     1      24.586   0.735  52.584  1.00  0.00     0.014 A 
HETATM    8  C3  UNL     1      24.149  -0.134  53.584  1.00  0.00     0.007 A 
HETATM    9  C2  UNL     1      22.830  -0.220  53.914  1.00  0.00    -0.062 A 
HETATM   10  C1  UNL     1      22.413  -1.166  54.990  1.00  0.00     0.048 C 
HETATM   11  C18 UNL     1      21.883   0.548  53.274  1.00  0.00     0.007 A 
HETATM   12  C17 UNL     1      22.332   1.408  52.283  1.00  0.00     0.014 A 
ENDBRANCH   1   6
BRANCH   3  13
HETATM   13  C7  UNL     1      26.261   4.801  49.270  1.00  0.00     0.192 A 
HETATM   14  N3  UNL     1      27.519   4.379  48.817  1.00  0.00    -0.198 NA
HETATM   15  C8  UNL     1      28.244   5.450  48.467  1.00  0.00     0.171 A 
HETATM   16  C9  UNL     1      27.823   6.881  48.532  1.00  0.00     0.111 A 
HETATM   17  S1  UNL     1      26.123   6.567  49.203  1.00  0.00    -0.058 SA
BRANCH  15  18
HETATM   18  O1  UNL     1      29.486   4.933  48.028  1.00  0.00    -0.344 OA
HETATM   19  H6  UNL     1      29.514   4.264  47.253  1.00  0.00     0.219 HD
ENDBRANCH  15  18
ENDBRANCH   3  13
BRANCH   4  20
HETATM   20  C11 UNL     1      23.106   5.072  49.074  1.00  0.00    -0.049 C 
HETATM   21  C12 UNL     1      22.745   5.723  47.964  1.00  0.00     0.025 C 
HETATM   22  C13 UNL     1      21.910   6.938  47.989  1.00  0.00     0.023 C 
HETATM   23 BR1  UNL     1      22.246   8.322  46.737  1.00  0.00    -0.050 Br
HETATM   24  C14 UNL     1      20.948   7.018  48.891  1.00  0.00     0.004 C 
HETATM   25  P1  UNL     1      21.571   6.823  50.419  1.00  0.00    -0.043 P 
HETATM   26  C15 UNL     1      22.783   5.389  50.476  1.00  0.00     0.080 C 
ENDBRANCH   4  20
TORSDOF 4
ENDMDL
MODEL 9
REMARK VINA RESULT:      -7.2      2.391      2.989
REMARK  4 active torsions:
REMARK  status: ('A' for Active; 'I' for Inactive)
REMARK    1  A    between atoms: C5_5  and  C6_6 
REMARK    2  A    between atoms: N2_8  and  C7_9 
REMARK    3  A    between atoms: C8_11  and  O1_12 
REMARK    4  A    between atoms: C10_15  and  C11_16 
ROOT
HETATM    1  C6  UNL     1      23.508   2.732  51.935  1.00  0.00     0.067 C 
HETATM    2  N1  UNL     1      22.584   2.738  51.035  1.00  0.00    -0.173 NA
HETATM    3  N2  UNL     1      21.881   3.936  51.054  1.00  0.00    -0.237 N 
HETATM    4  C10 UNL     1      22.596   4.897  51.878  1.00  0.00     0.148 C 
HETATM    5  C16 UNL     1      23.502   4.014  52.680  1.00  0.00     0.094 C 
ENDROOT
BRANCH   1   6
HETATM    6  C5  UNL     1      24.433   1.631  52.188  1.00  0.00    -0.010 A 
HETATM    7  C4  UNL     1      24.079   0.524  52.938  1.00  0.00     0.014 A 
HETATM    8  C3  UNL     1      25.008  -0.496  53.144  1.00  0.00     0.007 A 
HETATM    9  C2  UNL     1      26.262  -0.422  52.619  1.00  0.00    -0.062 A 
HETATM   10  C1  UNL     1      27.219  -1.539  52.868  1.00  0.00     0.048 C 
HETATM   11  C18 UNL     1      26.657   0.661  51.866  1.00  0.00     0.007 A 
HETATM   12  C17 UNL     1      25.724   1.668  51.669  1.00  0.00     0.014 A 
ENDBRANCH   1   6
BRANCH   3  13
HETATM   13  C7  UNL     1      20.651   4.269  50.405  1.00  0.00     0.192 A 
HETATM   14  N3  UNL     1      19.374   4.375  50.973  1.00  0.00    -0.198 NA
HETATM   15  C8  UNL     1      18.493   4.708  50.019  1.00  0.00     0.171 A 
HETATM   16  C9  UNL     1      18.779   4.939  48.572  1.00  0.00     0.111 A 
HETATM   17  S1  UNL     1      20.602   4.614  48.667  1.00  0.00    -0.058 SA
BRANCH  15  18
HETATM   18  O1  UNL     1      17.243   4.791  50.678  1.00  0.00    -0.344 OA
HETATM   19  H6  UNL     1      16.598   5.553  50.453  1.00  0.00     0.219 HD
ENDBRANCH  15  18
ENDBRANCH   3  13
BRANCH   4  20
HETATM   20  C11 UNL     1      23.274   5.920  51.079  1.00  0.00    -0.049 C 
HETATM   21  C12 UNL     1      22.657   7.070  50.792  1.00  0.00     0.025 C 
HETATM   22  C13 UNL     1      23.288   8.136  49.993  1.00  0.00     0.023 C 
HETATM   23 BR1  UNL     1      22.228   9.152  48.794  1.00  0.00    -0.050 Br
HETATM   24  C14 UNL     1      24.585   8.347  50.144  1.00  0.00     0.004 C 
HETATM   25  P1  UNL     1      25.435   6.949  49.853  1.00  0.00    -0.043 P 
HETATM   26  C15 UNL     1      24.627   5.478  50.697  1.00  0.00     0.080 C 
ENDBRANCH   4  20
TORSDOF 4
ENDMDL
