MODEL 1
REMARK VINA RESULT:      -7.3      0.000      0.000
REMARK  4 active torsions:
REMARK  status: ('A' for Active; 'I' for Inactive)
REMARK    1  A    between atoms: C2_2  and  C3_3 
REMARK    2  A    between atoms: C3_3  and  C4_4 
REMARK    3  A    between atoms: C4_4  and  N1_5 
REMARK    4  A    between atoms: C13_15  and  O1_16 
ROOT
HETATM    1  N1  UNL     1      22.077   4.095  47.949  1.00  0.00    -0.342 N 
HETATM    2  C5  UNL     1      23.187   4.466  48.600  1.00  0.00     0.010 C 
HETATM    3  C6  UNL     1      24.153   4.775  49.147  1.00  0.00    -0.059 C 
HETATM    4  C7  UNL     1      25.347   5.158  49.796  1.00  0.00     0.158 C 
HETATM    5  C8  UNL     1      26.395   5.722  48.817  1.00  0.00     0.046 C 
HETATM    6  N2  UNL     1      25.972   4.177  50.645  1.00  0.00    -0.384 N 
HETATM    7  C9  UNL     1      26.404   2.867  50.372  1.00  0.00     0.084 C 
HETATM    8  C10 UNL     1      26.605   1.783  51.083  1.00  0.00     0.027 C 
HETATM    9  C11 UNL     1      26.426   1.584  52.520  1.00  0.00    -0.018 A 
HETATM   10  C12 UNL     1      26.451   1.860  53.870  1.00  0.00     0.027 A 
HETATM   11  C13 UNL     1      25.945   0.560  53.313  1.00  0.00     0.115 A 
HETATM   12  C15 UNL     1      24.468   0.326  53.188  1.00  0.00     0.130 C 
HETATM   13  S1  UNL     1      23.649   1.365  51.985  1.00  0.00    -0.118 SA
HETATM   14  N3  UNL     1      23.592   3.056  52.420  1.00  0.00    -0.342 N 
HETATM   15  C16 UNL     1      23.509   4.348  53.077  1.00  0.00     0.091 C 
HETATM   16  C17 UNL     1      22.504   5.009  52.536  1.00  0.00    -0.003 C 
HETATM   17  C18 UNL     1      21.801   4.300  51.489  1.00  0.00     0.027 C 
HETATM   18  C19 UNL     1      20.809   4.371  50.633  1.00  0.00    -0.027 C 
HETATM   19  C20 UNL     1      19.678   5.237  50.109  1.00  0.00     0.016 C 
HETATM   20  C21 UNL     1      20.773   3.121  49.836  1.00  0.00     0.031 C 
HETATM   21  C22 UNL     1      20.887   3.442  48.372  1.00  0.00     0.133 C 
HETATM   22  H14 UNL     1      26.248   4.219  51.638  1.00  0.00     0.160 HD
HETATM   23  H23 UNL     1      23.713   2.651  51.438  1.00  0.00     0.255 HD
ENDROOT
BRANCH   1  24
HETATM   24  C4  UNL     1      22.144   4.438  46.541  1.00  0.00     0.133 C 
BRANCH  24  25
HETATM   25  C3  UNL     1      21.648   5.854  46.362  1.00  0.00     0.020 C 
BRANCH  25  26
HETATM   26  C2  UNL     1      22.643   6.630  45.484  1.00  0.00    -0.003 C 
HETATM   27  C1  UNL     1      23.471   7.489  46.411  1.00  0.00     0.005 C 
ENDBRANCH  25  26
ENDBRANCH  24  25
ENDBRANCH   1  24
BRANCH  11  28
HETATM   28  O1  UNL     1      26.639  -0.571  53.756  1.00  0.00    -0.375 OA
HETATM   29  C14 UNL     1      26.806  -1.521  52.762  1.00  0.00     0.203 C 
ENDBRANCH  11  28
TORSDOF 4
ENDMDL
MODEL 2
REMARK VINA RESULT:      -7.2      3.111      7.779
REMARK  4 active torsions:
REMARK  status: ('A' for Active; 'I' for Inactive)
REMARK    1  A    between atoms: C2_2  and  C3_3 
REMARK    2  A    between atoms: C3_3  and  C4_4 
REMARK    3  A    between atoms: C4_4  and  N1_5 
REMARK    4  A    between atoms: C13_15  and  O1_16 
ROOT
HETATM    1  N1  UNL     1      25.825  -0.499  52.695  1.00  0.00    -0.342 N 
HETATM    2  C5  UNL     1      24.583  -0.188  53.087  1.00  0.00     0.010 C 
HETATM    3  C6  UNL     1      23.508   0.063  53.418  1.00  0.00    -0.059 C 
HETATM    4  C7  UNL     1      22.188   0.347  53.831  1.00  0.00     0.158 C 
HETATM    5  C8  UNL     1      21.543  -0.827  54.593  1.00  0.00     0.046 C 
HETATM    6  N2  UNL     1      21.275   0.814  52.820  1.00  0.00    -0.384 N 
HETATM    7  C9  UNL     1      20.892   0.244  51.593  1.00  0.00     0.084 C 
HETATM    8  C10 UNL     1      20.419   0.702  50.458  1.00  0.00     0.027 C 
HETATM    9  C11 UNL     1      20.112   2.082  50.084  1.00  0.00    -0.018 A 
HETATM   10  C12 UNL     1      19.664   3.379  50.207  1.00  0.00     0.027 A 
HETATM   11  C13 UNL     1      20.261   2.839  48.938  1.00  0.00     0.115 A 
HETATM   12  C15 UNL     1      21.684   3.157  48.589  1.00  0.00     0.130 C 
HETATM   13  S1  UNL     1      22.898   2.426  49.679  1.00  0.00    -0.118 SA
HETATM   14  N3  UNL     1      22.893   3.081  51.298  1.00  0.00    -0.342 N 
HETATM   15  C16 UNL     1      22.821   3.899  52.496  1.00  0.00     0.091 C 
HETATM   16  C17 UNL     1      23.978   3.797  53.120  1.00  0.00    -0.003 C 
HETATM   17  C18 UNL     1      24.948   2.940  52.474  1.00  0.00     0.027 C 
HETATM   18  C19 UNL     1      26.165   2.459  52.552  1.00  0.00    -0.027 C 
HETATM   19  C20 UNL     1      27.445   2.441  53.367  1.00  0.00     0.016 C 
HETATM   20  C21 UNL     1      26.397   1.553  51.402  1.00  0.00     0.031 C 
HETATM   21  C22 UNL     1      26.780   0.185  51.894  1.00  0.00     0.133 C 
HETATM   22  H14 UNL     1      20.695   1.666  52.775  1.00  0.00     0.160 HD
HETATM   23  H23 UNL     1      23.078   2.066  51.019  1.00  0.00     0.255 HD
ENDROOT
BRANCH   1  24
HETATM   24  C4  UNL     1      26.235  -1.797  53.199  1.00  0.00     0.133 C 
BRANCH  24  25
HETATM   25  C3  UNL     1      27.326  -2.341  52.306  1.00  0.00     0.020 C 
BRANCH  25  26
HETATM   26  C2  UNL     1      28.513  -2.788  53.175  1.00  0.00    -0.003 C 
HETATM   27  C1  UNL     1      29.387  -1.573  53.383  1.00  0.00     0.005 C 
ENDBRANCH  25  26
ENDBRANCH  24  25
ENDBRANCH   1  24
BRANCH  11  28
HETATM   28  O1  UNL     1      19.406   2.883  47.830  1.00  0.00    -0.375 OA
HETATM   29  C14 UNL     1      20.023   3.384  46.697  1.00  0.00     0.203 C 
ENDBRANCH  11  28
TORSDOF 4
ENDMDL
MODEL 3
REMARK VINA RESULT:      -6.8      7.191     11.201
REMARK  4 active torsions:
REMARK  status: ('A' for Active; 'I' for Inactive)
REMARK    1  A    between atoms: C2_2  and  C3_3 
REMARK    2  A    between atoms: C3_3  and  C4_4 
REMARK    3  A    between atoms: C4_4  and  N1_5 
REMARK    4  A    between atoms: C13_15  and  O1_16 
ROOT
HETATM    1  N1  UNL     1      32.366   4.859  46.711  1.00  0.00    -0.342 N 
HETATM    2  C5  UNL     1      31.254   5.267  47.336  1.00  0.00     0.010 C 
HETATM    3  C6  UNL     1      30.288   5.613  47.859  1.00  0.00    -0.059 C 
HETATM    4  C7  UNL     1      29.092   6.015  48.492  1.00  0.00     0.158 C 
HETATM    5  C8  UNL     1      28.010   4.919  48.462  1.00  0.00     0.046 C 
HETATM    6  N2  UNL     1      28.514   7.262  48.062  1.00  0.00    -0.384 N 
HETATM    7  C9  UNL     1      28.122   7.702  46.785  1.00  0.00     0.084 C 
HETATM    8  C10 UNL     1      27.968   8.868  46.205  1.00  0.00     0.027 C 
HETATM    9  C11 UNL     1      28.177  10.203  46.764  1.00  0.00    -0.018 A 
HETATM   10  C12 UNL     1      28.164  11.229  47.684  1.00  0.00     0.027 A 
HETATM   11  C13 UNL     1      28.705  11.389  46.292  1.00  0.00     0.115 A 
HETATM   12  C15 UNL     1      30.186  11.354  46.058  1.00  0.00     0.130 C 
HETATM   13  S1  UNL     1      30.951   9.767  46.363  1.00  0.00    -0.118 SA
HETATM   14  N3  UNL     1      30.958   9.287  48.042  1.00  0.00    -0.342 N 
HETATM   15  C16 UNL     1      31.008   9.199  49.491  1.00  0.00     0.091 C 
HETATM   16  C17 UNL     1      31.981   8.368  49.808  1.00  0.00    -0.003 C 
HETATM   17  C18 UNL     1      32.691   7.801  48.682  1.00  0.00     0.027 C 
HETATM   18  C19 UNL     1      33.666   6.996  48.332  1.00  0.00    -0.027 C 
HETATM   19  C20 UNL     1      34.759   6.072  48.838  1.00  0.00     0.016 C 
HETATM   20  C21 UNL     1      33.731   6.938  46.852  1.00  0.00     0.031 C 
HETATM   21  C22 UNL     1      33.583   5.517  46.386  1.00  0.00     0.133 C 
HETATM   22  H14 UNL     1      28.253   8.106  48.595  1.00  0.00     0.160 HD
HETATM   23  H23 UNL     1      30.835   8.648  47.194  1.00  0.00     0.255 HD
ENDROOT
BRANCH   1  24
HETATM   24  C4  UNL     1      32.265   3.473  46.293  1.00  0.00     0.133 C 
BRANCH  24  25
HETATM   25  C3  UNL     1      33.443   2.710  46.854  1.00  0.00     0.020 C 
BRANCH  25  26
HETATM   26  C2  UNL     1      32.926   1.524  47.685  1.00  0.00    -0.003 C 
HETATM   27  C1  UNL     1      32.100   0.664  46.757  1.00  0.00     0.005 C 
ENDBRANCH  25  26
ENDBRANCH  24  25
ENDBRANCH   1  24
BRANCH  11  28
HETATM   28  O1  UNL     1      28.056  12.364  45.525  1.00  0.00    -0.375 OA
HETATM   29  C14 UNL     1      28.630  12.534  44.277  1.00  0.00     0.203 C 
ENDBRANCH  11  28
TORSDOF 4
ENDMDL
MODEL 4
REMARK VINA RESULT:      -6.6      3.354      7.042
REMARK  4 active torsions:
REMARK  status: ('A' for Active; 'I' for Inactive)
REMARK    1  A    between atoms: C2_2  and  C3_3 
REMARK    2  A    between atoms: C3_3  and  C4_4 
REMARK    3  A    between atoms: C4_4  and  N1_5 
REMARK    4  A    between atoms: C13_15  and  O1_16 
ROOT
HETATM    1  N1  UNL     1      23.665   2.047  52.310  1.00  0.00    -0.342 N 
HETATM    2  C5  UNL     1      24.211   2.684  51.266  1.00  0.00     0.010 C 
HETATM    3  C6  UNL     1      24.691   3.243  50.380  1.00  0.00    -0.059 C 
HETATM    4  C7  UNL     1      25.301   3.926  49.306  1.00  0.00     0.158 C 
HETATM    5  C8  UNL     1      26.838   3.951  49.419  1.00  0.00     0.046 C 
HETATM    6  N2  UNL     1      24.826   5.255  49.024  1.00  0.00    -0.384 N 
HETATM    7  C9  UNL     1      24.734   6.393  49.847  1.00  0.00     0.084 C 
HETATM    8  C10 UNL     1      24.003   7.481  49.856  1.00  0.00     0.027 C 
HETATM    9  C11 UNL     1      22.955   7.889  48.922  1.00  0.00    -0.018 A 
HETATM   10  C12 UNL     1      22.299   8.071  47.724  1.00  0.00     0.027 A 
HETATM   11  C13 UNL     1      21.727   8.511  49.041  1.00  0.00     0.115 A 
HETATM   12  C15 UNL     1      20.677   7.678  49.714  1.00  0.00     0.130 C 
HETATM   13  S1  UNL     1      21.248   6.086  50.294  1.00  0.00    -0.118 SA
HETATM   14  N3  UNL     1      21.665   4.967  49.018  1.00  0.00    -0.342 N 
HETATM   15  C16 UNL     1      21.767   4.174  47.806  1.00  0.00     0.091 C 
HETATM   16  C17 UNL     1      21.664   2.904  48.149  1.00  0.00    -0.003 C 
HETATM   17  C18 UNL     1      21.490   2.667  49.565  1.00  0.00     0.027 C 
HETATM   18  C19 UNL     1      21.332   1.739  50.479  1.00  0.00    -0.027 C 
HETATM   19  C20 UNL     1      21.218   0.247  50.730  1.00  0.00     0.016 C 
HETATM   20  C21 UNL     1      21.248   2.388  51.810  1.00  0.00     0.031 C 
HETATM   21  C22 UNL     1      22.317   1.844  52.715  1.00  0.00     0.133 C 
HETATM   22  H14 UNL     1      24.454   5.671  48.156  1.00  0.00     0.160 HD
HETATM   23  H23 UNL     1      22.153   5.070  49.963  1.00  0.00     0.255 HD
ENDROOT
BRANCH   1  24
HETATM   24  C4  UNL     1      24.679   1.471  53.174  1.00  0.00     0.133 C 
BRANCH  24  25
HETATM   25  C3  UNL     1      24.533  -0.032  53.159  1.00  0.00     0.020 C 
BRANCH  25  26
HETATM   26  C2  UNL     1      25.929  -0.675  53.148  1.00  0.00    -0.003 C 
HETATM   27  C1  UNL     1      26.689  -0.055  51.998  1.00  0.00     0.005 C 
ENDBRANCH  25  26
ENDBRANCH  24  25
ENDBRANCH   1  24
BRANCH  11  28
HETATM   28  O1  UNL     1      21.474   9.884  49.135  1.00  0.00    -0.375 OA
HETATM   29  C14 UNL     1      20.173  10.165  49.516  1.00  0.00     0.203 C 
ENDBRANCH  11  28
TORSDOF 4
ENDMDL
MODEL 5
REMARK VINA RESULT:      -6.5      3.641      6.794
REMARK  4 active torsions:
REMARK  status: ('A' for Active; 'I' for Inactive)
REMARK    1  A    between atoms: C2_2  and  C3_3 
REMARK    2  A    between atoms: C3_3  and  C4_4 
REMARK    3  A    between atoms: C4_4  and  N1_5 
REMARK    4  A    between atoms: C13_15  and  O1_16 
ROOT
HETATM    1  N1  UNL     1      23.404   5.132  50.270  1.00  0.00    -0.342 N 
HETATM    2  C5  UNL     1      22.801   4.314  49.399  1.00  0.00     0.010 C 
HETATM    3  C6  UNL     1      22.275   3.624  48.640  1.00  0.00    -0.059 C 
HETATM    4  C7  UNL     1      21.638   2.795  47.692  1.00  0.00     0.158 C 
HETATM    5  C8  UNL     1      21.918   3.233  46.241  1.00  0.00     0.046 C 
HETATM    6  N2  UNL     1      20.223   2.583  47.857  1.00  0.00    -0.384 N 
HETATM    7  C9  UNL     1      19.160   3.500  47.942  1.00  0.00     0.084 C 
HETATM    8  C10 UNL     1      17.955   3.487  48.461  1.00  0.00     0.027 C 
HETATM    9  C11 UNL     1      17.280   2.409  49.181  1.00  0.00    -0.018 A 
HETATM   10  C12 UNL     1      16.879   1.131  49.502  1.00  0.00     0.027 A 
HETATM   11  C13 UNL     1      16.445   2.341  50.279  1.00  0.00     0.115 A 
HETATM   12  C15 UNL     1      17.112   2.670  51.582  1.00  0.00     0.130 C 
HETATM   13  S1  UNL     1      18.826   3.159  51.437  1.00  0.00    -0.118 SA
HETATM   14  N3  UNL     1      19.896   1.873  50.933  1.00  0.00    -0.342 N 
HETATM   15  C16 UNL     1      20.594   0.623  50.691  1.00  0.00     0.091 C 
HETATM   16  C17 UNL     1      21.843   0.779  51.084  1.00  0.00    -0.003 C 
HETATM   17  C18 UNL     1      22.157   2.086  51.617  1.00  0.00     0.027 C 
HETATM   18  C19 UNL     1      23.108   2.827  52.136  1.00  0.00    -0.027 C 
HETATM   19  C20 UNL     1      24.565   2.863  52.556  1.00  0.00     0.016 C 
HETATM   20  C21 UNL     1      22.565   4.178  52.413  1.00  0.00     0.031 C 
HETATM   21  C22 UNL     1      23.375   5.216  51.689  1.00  0.00     0.133 C 
HETATM   22  H14 UNL     1      19.675   1.714  47.943  1.00  0.00     0.160 HD
HETATM   23  H23 UNL     1      19.966   2.906  50.666  1.00  0.00     0.255 HD
ENDROOT
BRANCH   1  24
HETATM   24  C4  UNL     1      24.232   6.115  49.595  1.00  0.00     0.133 C 
BRANCH  24  25
HETATM   25  C3  UNL     1      25.665   5.927  50.035  1.00  0.00     0.020 C 
BRANCH  25  26
HETATM   26  C2  UNL     1      26.423   5.135  48.958  1.00  0.00    -0.003 C 
HETATM   27  C1  UNL     1      26.630   3.740  49.502  1.00  0.00     0.005 C 
ENDBRANCH  25  26
ENDBRANCH  24  25
ENDBRANCH   1  24
BRANCH  11  28
HETATM   28  O1  UNL     1      15.061   2.545  50.311  1.00  0.00    -0.375 OA
HETATM   29  C14 UNL     1      14.717   3.831  50.691  1.00  0.00     0.203 C 
ENDBRANCH  11  28
TORSDOF 4
ENDMDL
MODEL 6
REMARK VINA RESULT:      -6.4      6.528      9.974
REMARK  4 active torsions:
REMARK  status: ('A' for Active; 'I' for Inactive)
REMARK    1  A    between atoms: C2_2  and  C3_3 
REMARK    2  A    between atoms: C3_3  and  C4_4 
REMARK    3  A    between atoms: C4_4  and  N1_5 
REMARK    4  A    between atoms: C13_15  and  O1_16 
ROOT
HETATM    1  N1  UNL     1      32.454   8.061  45.261  1.00  0.00    -0.342 N 
HETATM    2  C5  UNL     1      32.110   7.605  46.473  1.00  0.00     0.010 C 
HETATM    3  C6  UNL     1      31.810   7.196  47.507  1.00  0.00    -0.059 C 
HETATM    4  C7  UNL     1      31.457   6.674  48.771  1.00  0.00     0.158 C 
HETATM    5  C8  UNL     1      32.183   5.353  49.088  1.00  0.00     0.046 C 
HETATM    6  N2  UNL     1      30.051   6.519  49.042  1.00  0.00    -0.384 N 
HETATM    7  C9  UNL     1      29.052   5.817  48.343  1.00  0.00     0.084 C 
HETATM    8  C10 UNL     1      27.747   5.904  48.240  1.00  0.00     0.027 C 
HETATM    9  C11 UNL     1      26.840   6.851  48.885  1.00  0.00    -0.018 A 
HETATM   10  C12 UNL     1      26.306   7.656  49.869  1.00  0.00     0.027 A 
HETATM   11  C13 UNL     1      25.708   7.542  48.495  1.00  0.00     0.115 A 
HETATM   12  C15 UNL     1      25.962   8.616  47.480  1.00  0.00     0.130 C 
HETATM   13  S1  UNL     1      27.658   8.731  46.925  1.00  0.00    -0.118 SA
HETATM   14  N3  UNL     1      28.775   9.284  48.149  1.00  0.00    -0.342 N 
HETATM   15  C16 UNL     1      29.459   9.927  49.257  1.00  0.00     0.091 C 
HETATM   16  C17 UNL     1      30.536  10.517  48.774  1.00  0.00    -0.003 C 
HETATM   17  C18 UNL     1      30.728  10.366  47.349  1.00  0.00     0.027 C 
HETATM   18  C19 UNL     1      31.507  10.673  46.339  1.00  0.00    -0.027 C 
HETATM   19  C20 UNL     1      32.768  11.406  45.919  1.00  0.00     0.016 C 
HETATM   20  C21 UNL     1      30.963  10.052  45.108  1.00  0.00     0.031 C 
HETATM   21  C22 UNL     1      31.999   9.160  44.482  1.00  0.00     0.133 C 
HETATM   22  H14 UNL     1      29.466   6.880  49.810  1.00  0.00     0.160 HD
HETATM   23  H23 UNL     1      28.967   8.557  47.389  1.00  0.00     0.255 HD
ENDROOT
BRANCH   1  24
HETATM   24  C4  UNL     1      33.488   7.242  44.657  1.00  0.00     0.133 C 
BRANCH  24  25
HETATM   25  C3  UNL     1      32.866   5.953  44.172  1.00  0.00     0.020 C 
BRANCH  25  26
HETATM   26  C2  UNL     1      33.912   4.829  44.246  1.00  0.00    -0.003 C 
HETATM   27  C1  UNL     1      34.271   4.658  45.704  1.00  0.00     0.005 C 
ENDBRANCH  25  26
ENDBRANCH  24  25
ENDBRANCH   1  24
BRANCH  11  28
HETATM   28  O1  UNL     1      24.390   7.072  48.473  1.00  0.00    -0.375 OA
HETATM   29  C14 UNL     1      23.811   7.162  47.219  1.00  0.00     0.203 C 
ENDBRANCH  11  28
TORSDOF 4
ENDMDL
MODEL 7
REMARK VINA RESULT:      -6.2      3.524      7.845
REMARK  4 active torsions:
REMARK  status: ('A' for Active; 'I' for Inactive)
REMARK    1  A    between atoms: C2_2  and  C3_3 
REMARK    2  A    between atoms: C3_3  and  C4_4 
REMARK    3  A    between atoms: C4_4  and  N1_5 
REMARK    4  A    between atoms: C13_15  and  O1_16 
ROOT
HETATM    1  N1  UNL     1      22.535   0.905  51.973  1.00  0.00    -0.342 N 
HETATM    2  C5  UNL     1      21.399   1.570  51.724  1.00  0.00     0.010 C 
HETATM    3  C6  UNL     1      20.416   2.127  51.500  1.00  0.00    -0.059 C 
HETATM    4  C7  UNL     1      19.198   2.789  51.231  1.00  0.00     0.158 C 
HETATM    5  C8  UNL     1      17.969   1.925  51.573  1.00  0.00     0.046 C 
HETATM    6  N2  UNL     1      19.035   3.343  49.912  1.00  0.00    -0.384 N 
HETATM    7  C9  UNL     1      19.121   2.740  48.644  1.00  0.00     0.084 C 
HETATM    8  C10 UNL     1      19.381   3.157  47.428  1.00  0.00     0.027 C 
HETATM    9  C11 UNL     1      19.691   4.510  46.970  1.00  0.00    -0.018 A 
HETATM   10  C12 UNL     1      19.627   5.884  46.879  1.00  0.00     0.027 A 
HETATM   11  C13 UNL     1      20.563   5.054  46.047  1.00  0.00     0.115 A 
HETATM   12  C15 UNL     1      22.009   4.950  46.429  1.00  0.00     0.130 C 
HETATM   13  S1  UNL     1      22.314   4.077  47.959  1.00  0.00    -0.118 SA
HETATM   14  N3  UNL     1      21.744   4.910  49.385  1.00  0.00    -0.342 N 
HETATM   15  C16 UNL     1      21.360   5.864  50.411  1.00  0.00     0.091 C 
HETATM   16  C17 UNL     1      22.012   5.549  51.513  1.00  0.00    -0.003 C 
HETATM   17  C18 UNL     1      22.881   4.398  51.402  1.00  0.00     0.027 C 
HETATM   18  C19 UNL     1      23.728   3.635  52.050  1.00  0.00    -0.027 C 
HETATM   19  C20 UNL     1      24.419   3.394  53.380  1.00  0.00     0.016 C 
HETATM   20  C21 UNL     1      24.199   2.563  51.141  1.00  0.00     0.031 C 
HETATM   21  C22 UNL     1      23.902   1.216  51.739  1.00  0.00     0.133 C 
HETATM   22  H14 UNL     1      18.811   4.302  49.604  1.00  0.00     0.160 HD
HETATM   23  H23 UNL     1      21.739   3.855  49.216  1.00  0.00     0.255 HD
ENDROOT
BRANCH   1  24
HETATM   24  C4  UNL     1      22.275  -0.380  52.595  1.00  0.00     0.133 C 
BRANCH  24  25
HETATM   25  C3  UNL     1      23.068  -0.467  53.878  1.00  0.00     0.020 C 
BRANCH  25  26
HETATM   26  C2  UNL     1      22.250  -1.239  54.926  1.00  0.00    -0.003 C 
HETATM   27  C1  UNL     1      20.909  -1.543  54.298  1.00  0.00     0.005 C 
ENDBRANCH  25  26
ENDBRANCH  24  25
ENDBRANCH   1  24
BRANCH  11  28
HETATM   28  O1  UNL     1      20.373   5.175  44.665  1.00  0.00    -0.375 OA
HETATM   29  C14 UNL     1      20.743   4.036  43.972  1.00  0.00     0.203 C 
ENDBRANCH  11  28
TORSDOF 4
ENDMDL
MODEL 8
REMARK VINA RESULT:      -6.1      5.023      7.272
REMARK  4 active torsions:
REMARK  status: ('A' for Active; 'I' for Inactive)
REMARK    1  A    between atoms: C2_2  and  C3_3 
REMARK    2  A    between atoms: C3_3  and  C4_4 
REMARK    3  A    between atoms: C4_4  and  N1_5 
REMARK    4  A    between atoms: C13_15  and  O1_16 
ROOT
HETATM    1  N1  UNL     1      24.078   7.110  47.514  1.00  0.00    -0.342 N 
HETATM    2  C5  UNL     1      24.907   8.103  47.168  1.00  0.00     0.010 C 
HETATM    3  C6  UNL     1      25.619   8.952  46.853  1.00  0.00    -0.059 C 
HETATM    4  C7  UNL     1      26.480   9.994  46.446  1.00  0.00     0.158 C 
HETATM    5  C8  UNL     1      25.971  10.721  45.186  1.00  0.00     0.046 C 
HETATM    6  N2  UNL     1      27.870   9.662  46.271  1.00  0.00    -0.384 N 
HETATM    7  C9  UNL     1      28.488   8.684  45.471  1.00  0.00     0.084 C 
HETATM    8  C10 UNL     1      29.626   8.033  45.505  1.00  0.00     0.027 C 
HETATM    9  C11 UNL     1      30.711   8.135  46.480  1.00  0.00    -0.018 A 
HETATM   10  C12 UNL     1      31.601   8.713  47.359  1.00  0.00     0.027 A 
HETATM   11  C13 UNL     1      31.563   7.236  47.092  1.00  0.00     0.115 A 
HETATM   12  C15 UNL     1      30.892   6.317  48.069  1.00  0.00     0.130 C 
HETATM   13  S1  UNL     1      29.120   6.520  48.185  1.00  0.00    -0.118 SA
HETATM   14  N3  UNL     1      28.618   8.037  48.892  1.00  0.00    -0.342 N 
HETATM   15  C16 UNL     1      28.458   9.258  49.662  1.00  0.00     0.091 C 
HETATM   16  C17 UNL     1      27.272   9.216  50.238  1.00  0.00    -0.003 C 
HETATM   17  C18 UNL     1      26.497   8.027  49.954  1.00  0.00     0.027 C 
HETATM   18  C19 UNL     1      25.362   7.414  50.187  1.00  0.00    -0.027 C 
HETATM   19  C20 UNL     1      24.033   7.492  50.917  1.00  0.00     0.016 C 
HETATM   20  C21 UNL     1      25.341   6.139  49.431  1.00  0.00     0.031 C 
HETATM   21  C22 UNL     1      24.149   6.104  48.517  1.00  0.00     0.133 C 
HETATM   22  H14 UNL     1      28.721  10.072  46.686  1.00  0.00     0.160 HD
HETATM   23  H23 UNL     1      28.132   7.508  48.100  1.00  0.00     0.255 HD
ENDROOT
BRANCH   1  24
HETATM   24  C4  UNL     1      22.894   7.085  46.675  1.00  0.00     0.133 C 
BRANCH  24  25
HETATM   25  C3  UNL     1      22.246   5.725  46.791  1.00  0.00     0.020 C 
BRANCH  25  26
HETATM   26  C2  UNL     1      21.918   5.201  45.384  1.00  0.00    -0.003 C 
HETATM   27  C1  UNL     1      21.846   3.695  45.481  1.00  0.00     0.005 C 
ENDBRANCH  25  26
ENDBRANCH  24  25
ENDBRANCH   1  24
BRANCH  11  28
HETATM   28  O1  UNL     1      32.754   6.708  46.579  1.00  0.00    -0.375 OA
HETATM   29  C14 UNL     1      32.828   5.332  46.704  1.00  0.00     0.203 C 
ENDBRANCH  11  28
TORSDOF 4
ENDMDL
MODEL 9
REMARK VINA RESULT:      -5.7      3.961      6.954
REMARK  4 active torsions:
REMARK  status: ('A' for Active; 'I' for Inactive)
REMARK    1  A    between atoms: C2_2  and  C3_3 
REMARK    2  A    between atoms: C3_3  and  C4_4 
REMARK    3  A    between atoms: C4_4  and  N1_5 
REMARK    4  A    between atoms: C13_15  and  O1_16 
ROOT
HETATM    1  N1  UNL     1      23.283   3.587  48.524  1.00  0.00    -0.342 N 
HETATM    2  C5  UNL     1      22.980   4.836  48.146  1.00  0.00     0.010 C 
HETATM    3  C6  UNL     1      22.722   5.905  47.802  1.00  0.00    -0.059 C 
HETATM    4  C7  UNL     1      22.394   7.205  47.361  1.00  0.00     0.158 C 
HETATM    5  C8  UNL     1      21.382   7.197  46.199  1.00  0.00     0.046 C 
HETATM    6  N2  UNL     1      23.490   8.077  47.029  1.00  0.00    -0.384 N 
HETATM    7  C9  UNL     1      24.553   7.913  46.121  1.00  0.00     0.084 C 
HETATM    8  C10 UNL     1      25.765   8.400  46.005  1.00  0.00     0.027 C 
HETATM    9  C11 UNL     1      26.453   9.360  46.868  1.00  0.00    -0.018 A 
HETATM   10  C12 UNL     1      26.638  10.459  47.679  1.00  0.00     0.027 A 
HETATM   11  C13 UNL     1      27.743   9.498  47.342  1.00  0.00     0.115 A 
HETATM   12  C15 UNL     1      28.150   8.451  48.336  1.00  0.00     0.130 C 
HETATM   13  S1  UNL     1      26.913   7.196  48.643  1.00  0.00    -0.118 SA
HETATM   14  N3  UNL     1      25.492   7.781  49.474  1.00  0.00    -0.342 N 
HETATM   15  C16 UNL     1      24.519   8.453  50.317  1.00  0.00     0.091 C 
HETATM   16  C17 UNL     1      23.882   7.528  51.008  1.00  0.00    -0.003 C 
HETATM   17  C18 UNL     1      24.305   6.170  50.746  1.00  0.00     0.027 C 
HETATM   18  C19 UNL     1      24.111   4.912  51.063  1.00  0.00    -0.027 C 
HETATM   19  C20 UNL     1      23.308   3.957  51.928  1.00  0.00     0.016 C 
HETATM   20  C21 UNL     1      25.016   4.066  50.249  1.00  0.00     0.031 C 
HETATM   21  C22 UNL     1      24.217   3.067  49.462  1.00  0.00     0.133 C 
HETATM   22  H14 UNL     1      23.736   9.018  47.374  1.00  0.00     0.160 HD
HETATM   23  H23 UNL     1      25.525   7.033  48.710  1.00  0.00     0.255 HD
ENDROOT
BRANCH   1  24
HETATM   24  C4  UNL     1      22.488   2.605  47.811  1.00  0.00     0.133 C 
BRANCH  24  25
HETATM   25  C3  UNL     1      21.251   2.301  48.622  1.00  0.00     0.020 C 
BRANCH  25  26
HETATM   26  C2  UNL     1      21.302   0.837  49.091  1.00  0.00    -0.003 C 
HETATM   27  C1  UNL     1      21.433   0.863  50.596  1.00  0.00     0.005 C 
ENDBRANCH  25  26
ENDBRANCH  24  25
ENDBRANCH   1  24
BRANCH  11  28
HETATM   28  O1  UNL     1      28.834  10.076  46.684  1.00  0.00    -0.375 OA
HETATM   29  C14 UNL     1      30.020   9.402  46.919  1.00  0.00     0.203 C 
ENDBRANCH  11  28
TORSDOF 4
ENDMDL
