MODEL 1
REMARK VINA RESULT:      -8.5      0.000      0.000
REMARK  3 active torsions:
REMARK  status: ('A' for Active; 'I' for Inactive)
REMARK    1  A    between atoms: C2_2  and  O1_3 
REMARK    2  A    between atoms: O1_3  and  C3_4 
REMARK    3  A    between atoms: N2_8  and  C6_9 
ROOT
HETATM    1  C3  UNL     1      27.059  -0.622  52.934  1.00  0.00     0.146 C 
HETATM    2  C4  UNL     1      27.163   0.436  52.136  1.00  0.00     0.156 C 
HETATM    3  N1  UNL     1      26.305   1.568  52.254  1.00  0.00    -0.250 N 
HETATM    4  C5  UNL     1      26.092   2.432  51.108  1.00  0.00     0.424 C 
HETATM    5  N2  UNL     1      24.686   2.749  50.946  1.00  0.00     0.132 N 
HETATM    6  C11 UNL     1      24.093   3.284  52.131  1.00  0.00     0.293 C 
HETATM    7  C12 UNL     1      22.621   3.080  52.160  1.00  0.00     0.038 C 
HETATM    8  C13 UNL     1      22.169   1.900  52.521  1.00  0.00     0.133 C 
HETATM    9  O2  UNL     1      22.924   0.808  52.884  1.00  0.00    -0.361 OA
HETATM   10  C14 UNL     1      22.651   0.030  54.038  1.00  0.00     0.208 C 
HETATM   11  C15 UNL     1      23.613  -1.114  54.227  1.00  0.00     0.174 C 
HETATM   12  C16 UNL     1      23.953  -1.358  55.689  1.00  0.00     0.176 C 
HETATM   13  N3  UNL     1      25.006  -0.438  56.045  1.00  0.00    -0.309 N 
HETATM   14  N4  UNL     1      26.098  -0.242  55.187  1.00  0.00    -0.151 NA
HETATM   15  C17 UNL     1      26.017  -0.591  53.955  1.00  0.00     0.219 C 
HETATM   16  O3  UNL     1      24.786  -1.008  53.472  1.00  0.00    -0.322 OA
HETATM   17  C18 UNL     1      24.640   2.663  53.369  1.00  0.00     0.151 C 
HETATM   18  N5  UNL     1      25.656   1.871  53.456  1.00  0.00    -0.185 NA
HETATM   19  H18 UNL     1      24.998   0.108  56.941  1.00  0.00     0.182 HD
ENDROOT
BRANCH   5  20
HETATM   20  C6  UNL     1      24.636   3.708  49.835  1.00  0.00     0.277 A 
HETATM   21  C7  UNL     1      25.917   3.737  49.123  1.00  0.00     0.056 A 
HETATM   22  C8  UNL     1      26.486   4.945  49.207  1.00  0.00     0.136 A 
HETATM   23  F1  UNL     1      27.683   5.200  48.619  1.00  0.00    -0.205 F 
HETATM   24  C9  UNL     1      25.603   5.803  49.992  1.00  0.00     0.070 A 
HETATM   25 CL1  UNL     1      25.972   7.490  50.348  1.00  0.00    -0.081 Cl
HETATM   26  C10 UNL     1      24.538   5.104  50.357  1.00  0.00     0.040 A 
ENDBRANCH   5  20
BRANCH   1  27
HETATM   27  O1  UNL     1      27.863  -1.766  52.880  1.00  0.00    -0.318 OA
BRANCH  27  28
HETATM   28  C2  UNL     1      29.138  -1.617  53.409  1.00  0.00     0.132 C 
HETATM   29  C1  UNL     1      30.164  -0.856  53.731  1.00  0.00     0.037 C 
ENDBRANCH  27  28
ENDBRANCH   1  27
TORSDOF 3
ENDMDL
MODEL 2
REMARK VINA RESULT:      -8.5      3.354      6.748
REMARK  3 active torsions:
REMARK  status: ('A' for Active; 'I' for Inactive)
REMARK    1  A    between atoms: C2_2  and  O1_3 
REMARK    2  A    between atoms: O1_3  and  C3_4 
REMARK    3  A    between atoms: N2_8  and  C6_9 
ROOT
HETATM    1  C3  UNL     1      21.164   1.075  51.064  1.00  0.00     0.146 C 
HETATM    2  C4  UNL     1      21.783   0.449  52.060  1.00  0.00     0.156 C 
HETATM    3  N1  UNL     1      22.942   0.983  52.693  1.00  0.00    -0.250 N 
HETATM    4  C5  UNL     1      23.864   0.094  53.375  1.00  0.00     0.424 C 
HETATM    5  N2  UNL     1      25.240   0.406  53.036  1.00  0.00     0.132 N 
HETATM    6  C11 UNL     1      25.571   1.779  53.250  1.00  0.00     0.293 C 
HETATM    7  C12 UNL     1      26.721   2.214  52.414  1.00  0.00     0.038 C 
HETATM    8  C13 UNL     1      26.490   2.513  51.156  1.00  0.00     0.133 C 
HETATM    9  O2  UNL     1      25.275   2.469  50.511  1.00  0.00    -0.361 OA
HETATM   10  C14 UNL     1      24.797   3.523  49.691  1.00  0.00     0.208 C 
HETATM   11  C15 UNL     1      23.443   3.245  49.093  1.00  0.00     0.174 C 
HETATM   12  C16 UNL     1      22.568   4.487  49.023  1.00  0.00     0.176 C 
HETATM   13  N3  UNL     1      21.943   4.647  50.313  1.00  0.00    -0.309 N 
HETATM   14  N4  UNL     1      21.387   3.543  50.975  1.00  0.00    -0.151 NA
HETATM   15  C17 UNL     1      21.719   2.352  50.628  1.00  0.00     0.219 C 
HETATM   16  O3  UNL     1      22.746   2.201  49.709  1.00  0.00    -0.322 OA
HETATM   17  C18 UNL     1      24.438   2.692  52.934  1.00  0.00     0.151 C 
HETATM   18  N5  UNL     1      23.218   2.355  52.675  1.00  0.00    -0.185 NA
HETATM   19  H18 UNL     1      21.881   5.576  50.798  1.00  0.00     0.182 HD
ENDROOT
BRANCH   5  20
HETATM   20  C6  UNL     1      26.052  -0.485  53.874  1.00  0.00     0.277 A 
HETATM   21  C7  UNL     1      26.773   0.285  54.894  1.00  0.00     0.056 A 
HETATM   22  C8  UNL     1      28.096   0.176  54.731  1.00  0.00     0.136 A 
HETATM   23  F1  UNL     1      28.960   0.809  55.565  1.00  0.00    -0.205 F 
HETATM   24  C9  UNL     1      28.337  -0.686  53.577  1.00  0.00     0.070 A 
HETATM   25 CL1  UNL     1      29.954  -1.097  53.007  1.00  0.00    -0.081 Cl
HETATM   26  C10 UNL     1      27.171  -1.071  53.078  1.00  0.00     0.040 A 
ENDBRANCH   5  20
BRANCH   1  27
HETATM   27  O1  UNL     1      20.024   0.615  50.395  1.00  0.00    -0.318 OA
BRANCH  27  28
HETATM   28  C2  UNL     1      18.918   0.386  51.203  1.00  0.00     0.132 C 
HETATM   29  C1  UNL     1      18.199  -0.417  51.962  1.00  0.00     0.037 C 
ENDBRANCH  27  28
ENDBRANCH   1  27
TORSDOF 3
ENDMDL
MODEL 3
REMARK VINA RESULT:      -8.3      3.693      6.732
REMARK  3 active torsions:
REMARK  status: ('A' for Active; 'I' for Inactive)
REMARK    1  A    between atoms: C2_2  and  O1_3 
REMARK    2  A    between atoms: O1_3  and  C3_4 
REMARK    3  A    between atoms: N2_8  and  C6_9 
ROOT
HETATM    1  C3  UNL     1      26.532   5.489  49.064  1.00  0.00     0.146 C 
HETATM    2  C4  UNL     1      26.734   4.205  49.341  1.00  0.00     0.156 C 
HETATM    3  N1  UNL     1      25.670   3.322  49.685  1.00  0.00    -0.250 N 
HETATM    4  C5  UNL     1      25.947   2.126  50.458  1.00  0.00     0.424 C 
HETATM    5  N2  UNL     1      24.980   1.956  51.526  1.00  0.00     0.132 N 
HETATM    6  C11 UNL     1      23.628   1.988  51.065  1.00  0.00     0.293 C 
HETATM    7  C12 UNL     1      22.679   2.377  52.141  1.00  0.00     0.038 C 
HETATM    8  C13 UNL     1      22.563   3.653  52.428  1.00  0.00     0.133 C 
HETATM    9  O2  UNL     1      23.236   4.694  51.830  1.00  0.00    -0.361 OA
HETATM   10  C14 UNL     1      22.591   5.877  51.386  1.00  0.00     0.208 C 
HETATM   11  C15 UNL     1      23.535   6.873  50.764  1.00  0.00     0.174 C 
HETATM   12  C16 UNL     1      22.920   7.602  49.579  1.00  0.00     0.176 C 
HETATM   13  N3  UNL     1      23.080   6.755  48.422  1.00  0.00    -0.309 N 
HETATM   14  N4  UNL     1      24.302   6.111  48.177  1.00  0.00    -0.151 NA
HETATM   15  C17 UNL     1      25.159   5.979  49.124  1.00  0.00     0.219 C 
HETATM   16  O3  UNL     1      24.778   6.340  50.407  1.00  0.00    -0.322 OA
HETATM   17  C18 UNL     1      23.432   2.951  49.947  1.00  0.00     0.151 C 
HETATM   18  N5  UNL     1      24.351   3.580  49.293  1.00  0.00    -0.185 NA
HETATM   19  H18 UNL     1      22.307   6.591  47.732  1.00  0.00     0.182 HD
ENDROOT
BRANCH   5  20
HETATM   20  C6  UNL     1      25.312   0.666  52.142  1.00  0.00     0.277 A 
HETATM   21  C7  UNL     1      25.202   0.750  53.602  1.00  0.00     0.056 A 
HETATM   22  C8  UNL     1      26.386   0.532  54.186  1.00  0.00     0.136 A 
HETATM   23  F1  UNL     1      26.518   0.563  55.537  1.00  0.00    -0.205 F 
HETATM   24  C9  UNL     1      27.368   0.286  53.134  1.00  0.00     0.070 A 
HETATM   25 CL1  UNL     1      29.066  -0.050  53.465  1.00  0.00    -0.081 Cl
HETATM   26  C10 UNL     1      26.763   0.360  51.957  1.00  0.00     0.040 A 
ENDBRANCH   5  20
BRANCH   1  27
HETATM   27  O1  UNL     1      27.524   6.414  48.719  1.00  0.00    -0.318 OA
BRANCH  27  28
HETATM   28  C2  UNL     1      28.681   5.866  48.183  1.00  0.00     0.132 C 
HETATM   29  C1  UNL     1      29.994   5.749  48.166  1.00  0.00     0.037 C 
ENDBRANCH  27  28
ENDBRANCH   1  27
TORSDOF 3
ENDMDL
MODEL 4
REMARK VINA RESULT:      -8.2      3.515      6.308
REMARK  3 active torsions:
REMARK  status: ('A' for Active; 'I' for Inactive)
REMARK    1  A    between atoms: C2_2  and  O1_3 
REMARK    2  A    between atoms: O1_3  and  C3_4 
REMARK    3  A    between atoms: N2_8  and  C6_9 
ROOT
HETATM    1  C3  UNL     1      20.920   0.767  53.169  1.00  0.00     0.146 C 
HETATM    2  C4  UNL     1      22.210   0.648  53.468  1.00  0.00     0.156 C 
HETATM    3  N1  UNL     1      23.189   1.573  53.005  1.00  0.00    -0.250 N 
HETATM    4  C5  UNL     1      24.576   1.161  52.898  1.00  0.00     0.424 C 
HETATM    5  N2  UNL     1      25.155   1.591  51.639  1.00  0.00     0.132 N 
HETATM    6  C11 UNL     1      24.998   2.990  51.401  1.00  0.00     0.293 C 
HETATM    7  C12 UNL     1      25.059   3.322  49.953  1.00  0.00     0.038 C 
HETATM    8  C13 UNL     1      23.981   3.124  49.230  1.00  0.00     0.133 C 
HETATM    9  O2  UNL     1      22.773   2.635  49.672  1.00  0.00    -0.361 OA
HETATM   10  C14 UNL     1      21.530   3.236  49.347  1.00  0.00     0.208 C 
HETATM   11  C15 UNL     1      20.348   2.521  49.947  1.00  0.00     0.174 C 
HETATM   12  C16 UNL     1      19.255   3.477  50.400  1.00  0.00     0.176 C 
HETATM   13  N3  UNL     1      19.613   3.947  51.716  1.00  0.00    -0.309 N 
HETATM   14  N4  UNL     1      20.085   3.052  52.687  1.00  0.00    -0.151 NA
HETATM   15  C17 UNL     1      20.528   1.899  52.336  1.00  0.00     0.219 C 
HETATM   16  O3  UNL     1      20.674   1.639  50.982  1.00  0.00    -0.322 OA
HETATM   17  C18 UNL     1      23.698   3.510  51.909  1.00  0.00     0.151 C 
HETATM   18  N5  UNL     1      22.846   2.882  52.648  1.00  0.00    -0.185 NA
HETATM   19  H18 UNL     1      19.536   4.956  51.995  1.00  0.00     0.182 HD
ENDROOT
BRANCH   5  20
HETATM   20  C6  UNL     1      26.570   1.209  51.718  1.00  0.00     0.277 A 
HETATM   21  C7  UNL     1      26.714  -0.249  51.660  1.00  0.00     0.056 A 
HETATM   22  C8  UNL     1      27.254  -0.724  52.788  1.00  0.00     0.136 A 
HETATM   23  F1  UNL     1      27.479  -2.052  52.954  1.00  0.00    -0.205 F 
HETATM   24  C9  UNL     1      27.506   0.408  53.676  1.00  0.00     0.070 A 
HETATM   25 CL1  UNL     1      28.218   0.230  55.279  1.00  0.00    -0.081 Cl
HETATM   26  C10 UNL     1      27.118   1.522  53.072  1.00  0.00     0.040 A 
ENDBRANCH   5  20
BRANCH   1  27
HETATM   27  O1  UNL     1      19.903  -0.099  53.585  1.00  0.00    -0.318 OA
BRANCH  27  28
HETATM   28  C2  UNL     1      19.011  -0.481  52.592  1.00  0.00     0.132 C 
HETATM   29  C1  UNL     1      17.824  -0.405  52.024  1.00  0.00     0.037 C 
ENDBRANCH  27  28
ENDBRANCH   1  27
TORSDOF 3
ENDMDL
MODEL 5
REMARK VINA RESULT:      -8.0      3.318      5.103
REMARK  3 active torsions:
REMARK  status: ('A' for Active; 'I' for Inactive)
REMARK    1  A    between atoms: C2_2  and  O1_3 
REMARK    2  A    between atoms: O1_3  and  C3_4 
REMARK    3  A    between atoms: N2_8  and  C6_9 
ROOT
HETATM    1  C3  UNL     1      25.849   2.539  51.020  1.00  0.00     0.146 C 
HETATM    2  C4  UNL     1      24.595   2.691  50.606  1.00  0.00     0.156 C 
HETATM    3  N1  UNL     1      23.477   2.294  51.395  1.00  0.00    -0.250 N 
HETATM    4  C5  UNL     1      22.212   1.992  50.752  1.00  0.00     0.424 C 
HETATM    5  N2  UNL     1      21.635   0.770  51.280  1.00  0.00     0.132 N 
HETATM    6  C11 UNL     1      21.517   0.777  52.703  1.00  0.00     0.293 C 
HETATM    7  C12 UNL     1      21.477  -0.596  53.269  1.00  0.00     0.038 C 
HETATM    8  C13 UNL     1      22.615  -1.238  53.412  1.00  0.00     0.133 C 
HETATM    9  O2  UNL     1      23.868  -0.768  53.091  1.00  0.00    -0.361 OA
HETATM   10  C14 UNL     1      24.980  -0.873  53.966  1.00  0.00     0.208 C 
HETATM   11  C15 UNL     1      26.244  -0.288  53.394  1.00  0.00     0.174 C 
HETATM   12  C16 UNL     1      27.091   0.415  54.444  1.00  0.00     0.176 C 
HETATM   13  N3  UNL     1      26.565   1.750  54.597  1.00  0.00    -0.309 N 
HETATM   14  N4  UNL     1      26.228   2.514  53.470  1.00  0.00    -0.151 NA
HETATM   15  C17 UNL     1      26.051   1.940  52.335  1.00  0.00     0.219 C 
HETATM   16  O3  UNL     1      26.043   0.554  52.296  1.00  0.00    -0.322 OA
HETATM   17  C18 UNL     1      22.651   1.483  53.363  1.00  0.00     0.151 C 
HETATM   18  N5  UNL     1      23.567   2.188  52.788  1.00  0.00    -0.185 NA
HETATM   19  H18 UNL     1      26.418   2.194  55.536  1.00  0.00     0.182 HD
ENDROOT
BRANCH   5  20
HETATM   20  C6  UNL     1      20.325   0.653  50.628  1.00  0.00     0.277 A 
HETATM   21  C7  UNL     1      20.274   1.485  49.421  1.00  0.00     0.056 A 
HETATM   22  C8  UNL     1      19.343   2.438  49.534  1.00  0.00     0.136 A 
HETATM   23  F1  UNL     1      19.123   3.326  48.531  1.00  0.00    -0.205 F 
HETATM   24  C9  UNL     1      18.709   2.294  50.842  1.00  0.00     0.070 A 
HETATM   25 CL1  UNL     1      17.417   3.354  51.404  1.00  0.00    -0.081 Cl
HETATM   26  C10 UNL     1      19.264   1.273  51.478  1.00  0.00     0.040 A 
ENDBRANCH   5  20
BRANCH   1  27
HETATM   27  O1  UNL     1      26.994   2.903  50.303  1.00  0.00    -0.318 OA
BRANCH  27  28
HETATM   28  C2  UNL     1      26.807   3.905  49.361  1.00  0.00     0.132 C 
HETATM   29  C1  UNL     1      27.186   5.034  48.795  1.00  0.00     0.037 C 
ENDBRANCH  27  28
ENDBRANCH   1  27
TORSDOF 3
ENDMDL
MODEL 6
REMARK VINA RESULT:      -7.9      7.840     11.012
REMARK  3 active torsions:
REMARK  status: ('A' for Active; 'I' for Inactive)
REMARK    1  A    between atoms: C2_2  and  O1_3 
REMARK    2  A    between atoms: O1_3  and  C3_4 
REMARK    3  A    between atoms: N2_8  and  C6_9 
ROOT
HETATM    1  C3  UNL     1      28.671   7.589  48.285  1.00  0.00     0.146 C 
HETATM    2  C4  UNL     1      29.318   6.433  48.183  1.00  0.00     0.156 C 
HETATM    3  N1  UNL     1      30.729   6.331  48.353  1.00  0.00    -0.250 N 
HETATM    4  C5  UNL     1      31.449   5.225  47.749  1.00  0.00     0.424 C 
HETATM    5  N2  UNL     1      32.657   5.683  47.091  1.00  0.00     0.132 N 
HETATM    6  C11 UNL     1      33.499   6.460  47.944  1.00  0.00     0.293 C 
HETATM    7  C12 UNL     1      34.391   7.367  47.175  1.00  0.00     0.038 C 
HETATM    8  C13 UNL     1      33.885   8.493  46.725  1.00  0.00     0.133 C 
HETATM    9  O2  UNL     1      32.593   8.937  46.889  1.00  0.00    -0.361 OA
HETATM   10  C14 UNL     1      32.277  10.256  47.305  1.00  0.00     0.208 C 
HETATM   11  C15 UNL     1      30.796  10.507  47.414  1.00  0.00     0.174 C 
HETATM   12  C16 UNL     1      30.440  11.405  48.588  1.00  0.00     0.176 C 
HETATM   13  N3  UNL     1      30.365  10.570  49.762  1.00  0.00    -0.309 N 
HETATM   14  N4  UNL     1      29.703   9.334  49.713  1.00  0.00    -0.151 NA
HETATM   15  C17 UNL     1      29.465   8.777  48.581  1.00  0.00     0.219 C 
HETATM   16  O3  UNL     1      30.017   9.346  47.444  1.00  0.00    -0.322 OA
HETATM   17  C18 UNL     1      32.720   7.315  48.883  1.00  0.00     0.151 C 
HETATM   18  N5  UNL     1      31.447   7.277  49.093  1.00  0.00    -0.185 NA
HETATM   19  H18 UNL     1      30.792  10.846  50.680  1.00  0.00     0.182 HD
ENDROOT
BRANCH   5  20
HETATM   20  C6  UNL     1      33.330   4.461  46.632  1.00  0.00     0.277 A 
HETATM   21  C7  UNL     1      32.373   3.560  45.983  1.00  0.00     0.056 A 
HETATM   22  C8  UNL     1      32.271   2.405  46.651  1.00  0.00     0.136 A 
HETATM   23  F1  UNL     1      31.439   1.420  46.227  1.00  0.00    -0.205 F 
HETATM   24  C9  UNL     1      33.169   2.472  47.801  1.00  0.00     0.070 A 
HETATM   25 CL1  UNL     1      33.347   1.152  48.957  1.00  0.00    -0.081 Cl
HETATM   26  C10 UNL     1      33.781   3.647  47.800  1.00  0.00     0.040 A 
ENDBRANCH   5  20
BRANCH   1  27
HETATM   27  O1  UNL     1      27.291   7.768  48.133  1.00  0.00    -0.318 OA
BRANCH  27  28
HETATM   28  C2  UNL     1      26.519   7.340  49.204  1.00  0.00     0.132 C 
HETATM   29  C1  UNL     1      25.741   7.602  50.235  1.00  0.00     0.037 C 
ENDBRANCH  27  28
ENDBRANCH   1  27
TORSDOF 3
ENDMDL
MODEL 7
REMARK VINA RESULT:      -7.7      4.749      7.944
REMARK  3 active torsions:
REMARK  status: ('A' for Active; 'I' for Inactive)
REMARK    1  A    between atoms: C2_2  and  O1_3 
REMARK    2  A    between atoms: O1_3  and  C3_4 
REMARK    3  A    between atoms: N2_8  and  C6_9 
ROOT
HETATM    1  C3  UNL     1      28.713   6.667  48.225  1.00  0.00     0.146 C 
HETATM    2  C4  UNL     1      28.344   5.411  48.450  1.00  0.00     0.156 C 
HETATM    3  N1  UNL     1      26.990   5.047  48.704  1.00  0.00    -0.250 N 
HETATM    4  C5  UNL     1      26.697   3.826  49.432  1.00  0.00     0.424 C 
HETATM    5  N2  UNL     1      25.684   4.052  50.446  1.00  0.00     0.132 N 
HETATM    6  C11 UNL     1      24.499   4.658  49.927  1.00  0.00     0.293 C 
HETATM    7  C12 UNL     1      23.736   5.382  50.977  1.00  0.00     0.038 C 
HETATM    8  C13 UNL     1      24.145   6.583  51.319  1.00  0.00     0.133 C 
HETATM    9  O2  UNL     1      25.226   7.260  50.801  1.00  0.00    -0.361 OA
HETATM   10  C14 UNL     1      25.161   8.615  50.385  1.00  0.00     0.208 C 
HETATM   11  C15 UNL     1      26.469   9.138  49.853  1.00  0.00     0.174 C 
HETATM   12  C16 UNL     1      26.286  10.086  48.678  1.00  0.00     0.176 C 
HETATM   13  N3  UNL     1      26.149   9.278  47.490  1.00  0.00    -0.309 N 
HETATM   14  N4  UNL     1      27.003   8.188  47.270  1.00  0.00    -0.151 NA
HETATM   15  C17 UNL     1      27.668   7.686  48.247  1.00  0.00     0.219 C 
HETATM   16  O3  UNL     1      27.396   8.142  49.527  1.00  0.00    -0.322 OA
HETATM   17  C18 UNL     1      24.790   5.642  48.848  1.00  0.00     0.151 C 
HETATM   18  N5  UNL     1      25.925   5.843  48.266  1.00  0.00    -0.185 NA
HETATM   19  H18 UNL     1      25.421   9.470  46.759  1.00  0.00     0.182 HD
ENDROOT
BRANCH   5  20
HETATM   20  C6  UNL     1      25.411   2.726  51.015  1.00  0.00     0.277 A 
HETATM   21  C7  UNL     1      25.026   2.842  52.426  1.00  0.00     0.056 A 
HETATM   22  C8  UNL     1      25.907   2.219  53.216  1.00  0.00     0.136 A 
HETATM   23  F1  UNL     1      25.748   2.199  54.564  1.00  0.00    -0.205 F 
HETATM   24  C9  UNL     1      26.945   1.643  52.365  1.00  0.00     0.070 A 
HETATM   25 CL1  UNL     1      28.310   0.728  53.003  1.00  0.00    -0.081 Cl
HETATM   26  C10 UNL     1      26.670   1.927  51.101  1.00  0.00     0.040 A 
ENDBRANCH   5  20
BRANCH   1  27
HETATM   27  O1  UNL     1      30.019   7.101  47.969  1.00  0.00    -0.318 OA
BRANCH  27  28
HETATM   28  C2  UNL     1      30.564   7.934  48.935  1.00  0.00     0.132 C 
HETATM   29  C1  UNL     1      30.889   9.139  49.361  1.00  0.00     0.037 C 
ENDBRANCH  27  28
ENDBRANCH   1  27
TORSDOF 3
ENDMDL
MODEL 8
REMARK VINA RESULT:      -7.6      3.510      6.598
REMARK  3 active torsions:
REMARK  status: ('A' for Active; 'I' for Inactive)
REMARK    1  A    between atoms: C2_2  and  O1_3 
REMARK    2  A    between atoms: O1_3  and  C3_4 
REMARK    3  A    between atoms: N2_8  and  C6_9 
ROOT
HETATM    1  C3  UNL     1      23.232   4.646  49.849  1.00  0.00     0.146 C 
HETATM    2  C4  UNL     1      24.146   3.838  50.375  1.00  0.00     0.156 C 
HETATM    3  N1  UNL     1      23.823   2.543  50.873  1.00  0.00    -0.250 N 
HETATM    4  C5  UNL     1      24.676   1.921  51.869  1.00  0.00     0.424 C 
HETATM    5  N2  UNL     1      23.891   1.334  52.938  1.00  0.00     0.132 N 
HETATM    6  C11 UNL     1      22.886   0.435  52.465  1.00  0.00     0.293 C 
HETATM    7  C12 UNL     1      21.768   0.287  53.433  1.00  0.00     0.038 C 
HETATM    8  C13 UNL     1      20.849   1.225  53.463  1.00  0.00     0.133 C 
HETATM    9  O2  UNL     1      20.805   2.356  52.680  1.00  0.00    -0.361 OA
HETATM   10  C14 UNL     1      19.633   2.783  52.005  1.00  0.00     0.208 C 
HETATM   11  C15 UNL     1      19.830   4.048  51.210  1.00  0.00     0.174 C 
HETATM   12  C16 UNL     1      19.059   4.041  49.899  1.00  0.00     0.176 C 
HETATM   13  N3  UNL     1      19.861   3.331  48.932  1.00  0.00    -0.309 N 
HETATM   14  N4  UNL     1      21.238   3.579  48.832  1.00  0.00    -0.151 NA
HETATM   15  C17 UNL     1      21.858   4.159  49.796  1.00  0.00     0.219 C 
HETATM   16  O3  UNL     1      21.169   4.378  50.979  1.00  0.00    -0.322 OA
HETATM   17  C18 UNL     1      22.286   0.882  51.177  1.00  0.00     0.151 C 
HETATM   18  N5  UNL     1      22.695   1.847  50.423  1.00  0.00    -0.185 NA
HETATM   19  H18 UNL     1      19.456   2.617  48.279  1.00  0.00     0.182 HD
ENDROOT
BRANCH   5  20
HETATM   20  C6  UNL     1      24.865   0.652  53.799  1.00  0.00     0.277 A 
HETATM   21  C7  UNL     1      26.202   1.228  53.619  1.00  0.00     0.056 A 
HETATM   22  C8  UNL     1      27.055   0.319  53.136  1.00  0.00     0.136 A 
HETATM   23  F1  UNL     1      28.353   0.635  52.890  1.00  0.00    -0.205 F 
HETATM   24  C9  UNL     1      26.326  -0.935  52.964  1.00  0.00     0.070 A 
HETATM   25 CL1  UNL     1      27.077  -2.405  52.346  1.00  0.00    -0.081 Cl
HETATM   26  C10 UNL     1      25.068  -0.755  53.342  1.00  0.00     0.040 A 
ENDBRANCH   5  20
BRANCH   1  27
HETATM   27  O1  UNL     1      23.472   5.928  49.340  1.00  0.00    -0.318 OA
BRANCH  27  28
HETATM   28  C2  UNL     1      24.773   6.158  48.912  1.00  0.00     0.132 C 
HETATM   29  C1  UNL     1      25.655   6.894  48.266  1.00  0.00     0.037 C 
ENDBRANCH  27  28
ENDBRANCH   1  27
TORSDOF 3
ENDMDL
MODEL 9
REMARK VINA RESULT:      -7.6      4.415      7.117
REMARK  3 active torsions:
REMARK  status: ('A' for Active; 'I' for Inactive)
REMARK    1  A    between atoms: C2_2  and  O1_3 
REMARK    2  A    between atoms: O1_3  and  C3_4 
REMARK    3  A    between atoms: N2_8  and  C6_9 
ROOT
HETATM    1  C3  UNL     1      18.591   0.180  52.020  1.00  0.00     0.146 C 
HETATM    2  C4  UNL     1      19.674   0.291  52.782  1.00  0.00     0.156 C 
HETATM    3  N1  UNL     1      20.445   1.488  52.841  1.00  0.00    -0.250 N 
HETATM    4  C5  UNL     1      21.839   1.427  53.238  1.00  0.00     0.424 C 
HETATM    5  N2  UNL     1      22.670   2.228  52.360  1.00  0.00     0.132 N 
HETATM    6  C11 UNL     1      22.213   3.576  52.234  1.00  0.00     0.293 C 
HETATM    7  C12 UNL     1      22.674   4.208  50.971  1.00  0.00     0.038 C 
HETATM    8  C13 UNL     1      22.018   3.930  49.867  1.00  0.00     0.133 C 
HETATM    9  O2  UNL     1      20.925   3.102  49.748  1.00  0.00    -0.361 OA
HETATM   10  C14 UNL     1      19.755   3.466  49.032  1.00  0.00     0.208 C 
HETATM   11  C15 UNL     1      18.695   2.396  49.042  1.00  0.00     0.174 C 
HETATM   12  C16 UNL     1      17.288   2.967  49.136  1.00  0.00     0.176 C 
HETATM   13  N3  UNL     1      17.018   3.220  50.530  1.00  0.00    -0.309 N 
HETATM   14  N4  UNL     1      17.360   2.269  51.504  1.00  0.00    -0.151 NA
HETATM   15  C17 UNL     1      18.206   1.344  51.228  1.00  0.00     0.219 C 
HETATM   16  O3  UNL     1      18.880   1.412  50.019  1.00  0.00    -0.322 OA
HETATM   17  C18 UNL     1      20.727   3.675  52.249  1.00  0.00     0.151 C 
HETATM   18  N5  UNL     1      19.889   2.732  52.525  1.00  0.00    -0.185 NA
HETATM   19  H18 UNL     1      16.566   4.105  50.865  1.00  0.00     0.182 HD
ENDROOT
BRANCH   5  20
HETATM   20  C6  UNL     1      24.016   2.164  52.942  1.00  0.00     0.277 A 
HETATM   21  C7  UNL     1      25.023   2.570  51.955  1.00  0.00     0.056 A 
HETATM   22  C8  UNL     1      25.861   1.564  51.683  1.00  0.00     0.136 A 
HETATM   23  F1  UNL     1      26.875   1.717  50.793  1.00  0.00    -0.205 F 
HETATM   24  C9  UNL     1      25.457   0.413  52.485  1.00  0.00     0.070 A 
HETATM   25 CL1  UNL     1      26.298  -1.136  52.434  1.00  0.00    -0.081 Cl
HETATM   26  C10 UNL     1      24.399   0.746  53.211  1.00  0.00     0.040 A 
ENDBRANCH   5  20
BRANCH   1  27
HETATM   27  O1  UNL     1      17.785  -0.959  51.909  1.00  0.00    -0.318 OA
BRANCH  27  28
HETATM   28  C2  UNL     1      17.620  -1.681  53.083  1.00  0.00     0.132 C 
HETATM   29  C1  UNL     1      17.812  -2.774  53.794  1.00  0.00     0.037 C 
ENDBRANCH  27  28
ENDBRANCH   1  27
TORSDOF 3
ENDMDL
