MODEL 1
REMARK VINA RESULT:      -8.6      0.000      0.000
REMARK  4 active torsions:
REMARK  status: ('A' for Active; 'I' for Inactive)
REMARK    1  A    between atoms: O1_2  and  C2_3 
REMARK    2  A    between atoms: C6_9  and  N3_10 
REMARK    3  A    between atoms: N3_10  and  P1_11 
REMARK    4  A    between atoms: C8_13  and  C9_14 
ROOT
HETATM    1  C2  UNL     1      28.323  -0.424  53.164  1.00  0.00     0.145 A 
HETATM    2  C3  UNL     1      29.318  -0.232  54.159  1.00  0.00     0.076 A 
HETATM    3  C4  UNL     1      28.750   0.976  54.011  1.00  0.00     0.122 A 
HETATM    4  N1  UNL     1      27.996   0.879  55.216  1.00  0.00    -0.266 NA
HETATM    5  C5  UNL     1      26.976  -0.038  55.216  1.00  0.00     0.230 C 
HETATM    6  N2  UNL     1      25.766  -0.554  54.957  1.00  0.00    -0.225 NA
HETATM    7  C6  UNL     1      25.099  -0.363  53.780  1.00  0.00     0.128 C 
HETATM    8  C15 UNL     1      25.549  -0.100  52.503  1.00  0.00     0.053 C 
HETATM    9  C16 UNL     1      26.612  -0.267  51.631  1.00  0.00     0.039 C 
HETATM   10  C17 UNL     1      27.383   0.424  52.523  1.00  0.00     0.084 C 
HETATM   11  O2  UNL     1      27.145   1.869  52.690  1.00  0.00    -0.349 OA
HETATM   12  C18 UNL     1      28.289   2.353  53.546  1.00  0.00     0.212 C 
ENDROOT
BRANCH   7  13
HETATM   13  N3  UNL     1      23.673  -0.413  53.930  1.00  0.00    -0.349 N 
HETATM   14  H6  UNL     1      23.296  -1.085  54.630  1.00  0.00     0.166 HD
BRANCH  13  15
HETATM   15  P1  UNL     1      22.050   0.229  53.444  1.00  0.00    -0.007 P 
HETATM   16  C7  UNL     1      20.783   0.449  54.741  1.00  0.00     0.072 A 
HETATM   17  C8  UNL     1      20.619  -0.729  53.775  1.00  0.00     0.073 A 
BRANCH  17  18
HETATM   18  C9  UNL     1      19.334  -0.709  53.037  1.00  0.00    -0.048 A 
HETATM   19  C10 UNL     1      18.180  -1.337  53.396  1.00  0.00     0.008 A 
HETATM   20  C11 UNL     1      17.009  -1.257  52.639  1.00  0.00     0.001 A 
HETATM   21  C12 UNL     1      17.088  -0.497  51.493  1.00  0.00     0.000 A 
HETATM   22  C13 UNL     1      18.210   0.173  51.048  1.00  0.00     0.001 A 
HETATM   23  C14 UNL     1      19.336   0.034  51.871  1.00  0.00     0.008 A 
ENDBRANCH  17  18
ENDBRANCH  13  15
ENDBRANCH   7  13
BRANCH   1  24
HETATM   24  O1  UNL     1      28.366  -1.744  52.827  1.00  0.00    -0.375 OA
HETATM   25  C1  UNL     1      29.345  -2.602  53.357  1.00  0.00     0.203 C 
ENDBRANCH   1  24
TORSDOF 4
ENDMDL
MODEL 2
REMARK VINA RESULT:      -7.7      3.565      8.800
REMARK  4 active torsions:
REMARK  status: ('A' for Active; 'I' for Inactive)
REMARK    1  A    between atoms: O1_2  and  C2_3 
REMARK    2  A    between atoms: C6_9  and  N3_10 
REMARK    3  A    between atoms: N3_10  and  P1_11 
REMARK    4  A    between atoms: C8_13  and  C9_14 
ROOT
HETATM    1  C2  UNL     1      19.886   2.385  49.835  1.00  0.00     0.145 A 
HETATM    2  C3  UNL     1      18.720   3.174  50.022  1.00  0.00     0.076 A 
HETATM    3  C4  UNL     1      18.603   2.181  50.918  1.00  0.00     0.122 A 
HETATM    4  N1  UNL     1      18.967   3.002  52.024  1.00  0.00    -0.266 NA
HETATM    5  C5  UNL     1      20.275   3.415  52.062  1.00  0.00     0.230 C 
HETATM    6  N2  UNL     1      21.597   3.343  52.269  1.00  0.00    -0.225 NA
HETATM    7  C6  UNL     1      22.343   2.229  52.006  1.00  0.00     0.128 C 
HETATM    8  C15 UNL     1      22.161   1.193  51.114  1.00  0.00     0.053 C 
HETATM    9  C16 UNL     1      21.595   0.844  49.900  1.00  0.00     0.039 C 
HETATM   10  C17 UNL     1      20.383   1.193  50.424  1.00  0.00     0.084 C 
HETATM   11  O2  UNL     1      19.794   0.339  51.470  1.00  0.00    -0.349 OA
HETATM   12  C18 UNL     1      18.392   0.862  51.654  1.00  0.00     0.212 C 
ENDROOT
BRANCH   7  13
HETATM   13  N3  UNL     1      23.501   2.119  52.847  1.00  0.00    -0.349 N 
HETATM   14  H6  UNL     1      23.336   2.090  53.874  1.00  0.00     0.166 HD
BRANCH  13  15
HETATM   15  P1  UNL     1      25.301   1.963  52.975  1.00  0.00    -0.007 P 
HETATM   16  C7  UNL     1      26.259   1.717  51.439  1.00  0.00     0.072 A 
HETATM   17  C8  UNL     1      26.078   0.512  52.368  1.00  0.00     0.073 A 
BRANCH  17  18
HETATM   18  C9  UNL     1      27.359  -0.079  52.822  1.00  0.00    -0.048 A 
HETATM   19  C10 UNL     1      27.691  -1.400  52.821  1.00  0.00     0.008 A 
HETATM   20  C11 UNL     1      28.931  -1.867  53.264  1.00  0.00     0.001 A 
HETATM   21  C12 UNL     1      29.809  -0.905  53.707  1.00  0.00     0.000 A 
HETATM   22  C13 UNL     1      29.563   0.453  53.747  1.00  0.00     0.001 A 
HETATM   23  C14 UNL     1      28.294   0.828  53.285  1.00  0.00     0.008 A 
ENDBRANCH  17  18
ENDBRANCH  13  15
ENDBRANCH   7  13
BRANCH   1  24
HETATM   24  O1  UNL     1      20.613   2.999  48.859  1.00  0.00    -0.375 OA
HETATM   25  C1  UNL     1      20.082   3.209  47.576  1.00  0.00     0.203 C 
ENDBRANCH   1  24
TORSDOF 4
ENDMDL
MODEL 3
REMARK VINA RESULT:      -7.5      5.366      8.478
REMARK  4 active torsions:
REMARK  status: ('A' for Active; 'I' for Inactive)
REMARK    1  A    between atoms: O1_2  and  C2_3 
REMARK    2  A    between atoms: C6_9  and  N3_10 
REMARK    3  A    between atoms: N3_10  and  P1_11 
REMARK    4  A    between atoms: C8_13  and  C9_14 
ROOT
HETATM    1  C2  UNL     1      24.448   7.017  49.929  1.00  0.00     0.145 A 
HETATM    2  C3  UNL     1      23.639   8.083  50.402  1.00  0.00     0.076 A 
HETATM    3  C4  UNL     1      22.810   7.336  49.655  1.00  0.00     0.122 A 
HETATM    4  N1  UNL     1      22.164   6.748  50.781  1.00  0.00    -0.266 NA
HETATM    5  C5  UNL     1      22.921   5.877  51.522  1.00  0.00     0.230 C 
HETATM    6  N2  UNL     1      23.533   4.731  51.853  1.00  0.00    -0.225 NA
HETATM    7  C6  UNL     1      24.144   3.911  50.947  1.00  0.00     0.128 C 
HETATM    8  C15 UNL     1      24.717   4.168  49.719  1.00  0.00     0.053 C 
HETATM    9  C16 UNL     1      25.349   5.134  48.955  1.00  0.00     0.039 C 
HETATM   10  C17 UNL     1      24.223   5.898  49.086  1.00  0.00     0.084 C 
HETATM   11  O2  UNL     1      23.000   5.477  48.379  1.00  0.00    -0.349 OA
HETATM   12  C18 UNL     1      22.043   6.632  48.541  1.00  0.00     0.212 C 
ENDROOT
BRANCH   7  13
HETATM   13  N3  UNL     1      24.146   2.534  51.350  1.00  0.00    -0.349 N 
HETATM   14  H6  UNL     1      23.460   1.905  50.882  1.00  0.00     0.166 HD
BRANCH  13  15
HETATM   15  P1  UNL     1      24.874   1.231  52.377  1.00  0.00    -0.007 P 
HETATM   16  C7  UNL     1      26.051   1.719  53.685  1.00  0.00     0.072 A 
HETATM   17  C8  UNL     1      26.619   1.057  52.426  1.00  0.00     0.073 A 
BRANCH  17  18
HETATM   18  C9  UNL     1      27.391  -0.176  52.705  1.00  0.00    -0.048 A 
HETATM   19  C10 UNL     1      26.979  -1.458  52.498  1.00  0.00     0.008 A 
HETATM   20  C11 UNL     1      27.781  -2.565  52.786  1.00  0.00     0.001 A 
HETATM   21  C12 UNL     1      29.028  -2.284  53.298  1.00  0.00     0.000 A 
HETATM   22  C13 UNL     1      29.532  -1.022  53.543  1.00  0.00     0.001 A 
HETATM   23  C14 UNL     1      28.656   0.026  53.224  1.00  0.00     0.008 A 
ENDBRANCH  17  18
ENDBRANCH  13  15
ENDBRANCH   7  13
BRANCH   1  24
HETATM   24  O1  UNL     1      25.688   7.209  50.464  1.00  0.00    -0.375 OA
HETATM   25  C1  UNL     1      26.456   8.339  50.140  1.00  0.00     0.203 C 
ENDBRANCH   1  24
TORSDOF 4
ENDMDL
MODEL 4
REMARK VINA RESULT:      -7.4      4.458      8.382
REMARK  4 active torsions:
REMARK  status: ('A' for Active; 'I' for Inactive)
REMARK    1  A    between atoms: O1_2  and  C2_3 
REMARK    2  A    between atoms: C6_9  and  N3_10 
REMARK    3  A    between atoms: N3_10  and  P1_11 
REMARK    4  A    between atoms: C8_13  and  C9_14 
ROOT
HETATM    1  C2  UNL     1      22.429   5.114  49.598  1.00  0.00     0.145 A 
HETATM    2  C3  UNL     1      21.036   4.980  49.357  1.00  0.00     0.076 A 
HETATM    3  C4  UNL     1      21.543   3.764  49.096  1.00  0.00     0.122 A 
HETATM    4  N1  UNL     1      21.078   3.199  50.319  1.00  0.00    -0.266 NA
HETATM    5  C5  UNL     1      21.693   3.645  51.461  1.00  0.00     0.230 C 
HETATM    6  N2  UNL     1      22.639   3.754  52.404  1.00  0.00    -0.225 NA
HETATM    7  C6  UNL     1      23.979   3.726  52.136  1.00  0.00     0.128 C 
HETATM    8  C15 UNL     1      24.696   4.061  51.006  1.00  0.00     0.053 C 
HETATM    9  C16 UNL     1      24.700   4.860  49.877  1.00  0.00     0.039 C 
HETATM   10  C17 UNL     1      23.543   4.241  49.498  1.00  0.00     0.084 C 
HETATM   11  O2  UNL     1      23.604   2.833  49.067  1.00  0.00    -0.349 OA
HETATM   12  C18 UNL     1      22.234   2.538  48.510  1.00  0.00     0.212 C 
ENDROOT
BRANCH   7  13
HETATM   13  N3  UNL     1      24.758   3.218  53.229  1.00  0.00    -0.349 N 
HETATM   14  H6  UNL     1      24.573   3.625  54.170  1.00  0.00     0.166 HD
BRANCH  13  15
HETATM   15  P1  UNL     1      26.026   2.061  53.810  1.00  0.00    -0.007 P 
HETATM   16  C7  UNL     1      27.754   2.340  53.286  1.00  0.00     0.072 A 
HETATM   17  C8  UNL     1      26.987   1.186  52.631  1.00  0.00     0.073 A 
BRANCH  17  18
HETATM   18  C9  UNL     1      27.642  -0.131  52.807  1.00  0.00    -0.048 A 
HETATM   19  C10 UNL     1      28.887  -0.360  53.310  1.00  0.00     0.008 A 
HETATM   20  C11 UNL     1      29.423  -1.643  53.446  1.00  0.00     0.001 A 
HETATM   21  C12 UNL     1      28.611  -2.677  53.038  1.00  0.00     0.000 A 
HETATM   22  C13 UNL     1      27.340  -2.545  52.516  1.00  0.00     0.001 A 
HETATM   23  C14 UNL     1      26.887  -1.221  52.416  1.00  0.00     0.008 A 
ENDBRANCH  17  18
ENDBRANCH  13  15
ENDBRANCH   7  13
BRANCH   1  24
HETATM   24  O1  UNL     1      22.625   6.398  50.012  1.00  0.00    -0.375 OA
HETATM   25  C1  UNL     1      21.571   7.166  50.535  1.00  0.00     0.203 C 
ENDBRANCH   1  24
TORSDOF 4
ENDMDL
MODEL 5
REMARK VINA RESULT:      -7.4      6.961      9.067
REMARK  4 active torsions:
REMARK  status: ('A' for Active; 'I' for Inactive)
REMARK    1  A    between atoms: O1_2  and  C2_3 
REMARK    2  A    between atoms: C6_9  and  N3_10 
REMARK    3  A    between atoms: N3_10  and  P1_11 
REMARK    4  A    between atoms: C8_13  and  C9_14 
ROOT
HETATM    1  C2  UNL     1      28.256   9.167  48.624  1.00  0.00     0.145 A 
HETATM    2  C3  UNL     1      28.007  10.523  48.967  1.00  0.00     0.076 A 
HETATM    3  C4  UNL     1      27.019  10.203  48.116  1.00  0.00     0.122 A 
HETATM    4  N1  UNL     1      26.040  10.080  49.143  1.00  0.00    -0.266 NA
HETATM    5  C5  UNL     1      26.189   9.014  49.993  1.00  0.00     0.230 C 
HETATM    6  N2  UNL     1      26.130   7.744  50.419  1.00  0.00    -0.225 NA
HETATM    7  C6  UNL     1      26.377   6.666  49.617  1.00  0.00     0.128 C 
HETATM    8  C15 UNL     1      27.146   6.525  48.481  1.00  0.00     0.053 C 
HETATM    9  C16 UNL     1      28.252   7.015  47.806  1.00  0.00     0.039 C 
HETATM   10  C17 UNL     1      27.625   8.228  47.767  1.00  0.00     0.084 C 
HETATM   11  O2  UNL     1      26.446   8.385  46.897  1.00  0.00    -0.349 OA
HETATM   12  C18 UNL     1      26.149   9.864  46.910  1.00  0.00     0.212 C 
ENDROOT
BRANCH   7  13
HETATM   13  N3  UNL     1      25.668   5.488  50.028  1.00  0.00    -0.349 N 
HETATM   14  H6  UNL     1      24.727   5.627  50.451  1.00  0.00     0.166 HD
BRANCH  13  15
HETATM   15  P1  UNL     1      25.624   3.680  50.146  1.00  0.00    -0.007 P 
HETATM   16  C7  UNL     1      23.994   2.862  50.253  1.00  0.00     0.072 A 
HETATM   17  C8  UNL     1      24.841   2.934  51.527  1.00  0.00     0.073 A 
BRANCH  17  18
HETATM   18  C9  UNL     1      25.134   1.606  52.117  1.00  0.00    -0.048 A 
HETATM   19  C10 UNL     1      24.286   0.842  52.860  1.00  0.00     0.008 A 
HETATM   20  C11 UNL     1      24.647  -0.407  53.370  1.00  0.00     0.001 A 
HETATM   21  C12 UNL     1      25.924  -0.827  53.077  1.00  0.00     0.000 A 
HETATM   22  C13 UNL     1      26.853  -0.124  52.336  1.00  0.00     0.001 A 
HETATM   23  C14 UNL     1      26.402   1.117  51.866  1.00  0.00     0.008 A 
ENDBRANCH  17  18
ENDBRANCH  13  15
ENDBRANCH   7  13
BRANCH   1  24
HETATM   24  O1  UNL     1      29.360   8.789  49.328  1.00  0.00    -0.375 OA
HETATM   25  C1  UNL     1      30.532   9.562  49.319  1.00  0.00     0.203 C 
ENDBRANCH   1  24
TORSDOF 4
ENDMDL
MODEL 6
REMARK VINA RESULT:      -7.3      6.285      7.724
REMARK  4 active torsions:
REMARK  status: ('A' for Active; 'I' for Inactive)
REMARK    1  A    between atoms: O1_2  and  C2_3 
REMARK    2  A    between atoms: C6_9  and  N3_10 
REMARK    3  A    between atoms: N3_10  and  P1_11 
REMARK    4  A    between atoms: C8_13  and  C9_14 
ROOT
HETATM    1  C2  UNL     1      25.622   7.883  48.789  1.00  0.00     0.145 A 
HETATM    2  C3  UNL     1      25.169   9.211  48.572  1.00  0.00     0.076 A 
HETATM    3  C4  UNL     1      24.178   8.435  48.103  1.00  0.00     0.122 A 
HETATM    4  N1  UNL     1      23.337   8.656  49.232  1.00  0.00    -0.266 NA
HETATM    5  C5  UNL     1      23.754   8.095  50.413  1.00  0.00     0.230 C 
HETATM    6  N2  UNL     1      23.963   7.142  51.332  1.00  0.00    -0.225 NA
HETATM    7  C6  UNL     1      24.322   5.860  51.024  1.00  0.00     0.128 C 
HETATM    8  C15 UNL     1      24.994   5.331  49.942  1.00  0.00     0.053 C 
HETATM    9  C16 UNL     1      25.926   5.607  48.956  1.00  0.00     0.039 C 
HETATM   10  C17 UNL     1      25.092   6.595  48.517  1.00  0.00     0.084 C 
HETATM   11  O2  UNL     1      23.827   6.213  47.863  1.00  0.00    -0.349 OA
HETATM   12  C18 UNL     1      23.274   7.501  47.307  1.00  0.00     0.212 C 
ENDROOT
BRANCH   7  13
HETATM   13  N3  UNL     1      23.877   4.904  51.997  1.00  0.00    -0.349 N 
HETATM   14  H6  UNL     1      23.124   5.210  52.648  1.00  0.00     0.166 HD
BRANCH  13  15
HETATM   15  P1  UNL     1      24.002   3.231  52.682  1.00  0.00    -0.007 P 
HETATM   16  C7  UNL     1      24.118   1.828  51.518  1.00  0.00     0.072 A 
HETATM   17  C8  UNL     1      22.789   2.040  52.250  1.00  0.00     0.073 A 
BRANCH  17  18
HETATM   18  C9  UNL     1      22.362   0.865  53.046  1.00  0.00    -0.048 A 
HETATM   19  C10 UNL     1      23.159  -0.142  53.501  1.00  0.00     0.008 A 
HETATM   20  C11 UNL     1      22.668  -1.212  54.254  1.00  0.00     0.001 A 
HETATM   21  C12 UNL     1      21.316  -1.191  54.513  1.00  0.00     0.000 A 
HETATM   22  C13 UNL     1      20.431  -0.218  54.094  1.00  0.00     0.001 A 
HETATM   23  C14 UNL     1      21.014   0.815  53.345  1.00  0.00     0.008 A 
ENDBRANCH  17  18
ENDBRANCH  13  15
ENDBRANCH   7  13
BRANCH   1  24
HETATM   24  O1  UNL     1      26.837   7.987  49.399  1.00  0.00    -0.375 OA
HETATM   25  C1  UNL     1      27.214   9.154  50.083  1.00  0.00     0.203 C 
ENDBRANCH   1  24
TORSDOF 4
ENDMDL
MODEL 7
REMARK VINA RESULT:      -7.3      5.128      8.512
REMARK  4 active torsions:
REMARK  status: ('A' for Active; 'I' for Inactive)
REMARK    1  A    between atoms: O1_2  and  C2_3 
REMARK    2  A    between atoms: C6_9  and  N3_10 
REMARK    3  A    between atoms: N3_10  and  P1_11 
REMARK    4  A    between atoms: C8_13  and  C9_14 
ROOT
HETATM    1  C2  UNL     1      22.429   5.887  49.439  1.00  0.00     0.145 A 
HETATM    2  C3  UNL     1      23.107   6.433  48.316  1.00  0.00     0.076 A 
HETATM    3  C4  UNL     1      23.955   6.612  49.343  1.00  0.00     0.122 A 
HETATM    4  N1  UNL     1      24.808   5.539  48.956  1.00  0.00    -0.266 NA
HETATM    5  C5  UNL     1      24.288   4.277  49.090  1.00  0.00     0.230 C 
HETATM    6  N2  UNL     1      23.907   3.146  49.701  1.00  0.00    -0.225 NA
HETATM    7  C6  UNL     1      23.335   3.113  50.941  1.00  0.00     0.128 C 
HETATM    8  C15 UNL     1      22.593   4.047  51.634  1.00  0.00     0.053 C 
HETATM    9  C16 UNL     1      21.734   5.124  51.497  1.00  0.00     0.039 C 
HETATM   10  C17 UNL     1      22.732   5.767  50.820  1.00  0.00     0.084 C 
HETATM   11  O2  UNL     1      23.918   6.215  51.570  1.00  0.00    -0.349 OA
HETATM   12  C18 UNL     1      24.693   7.068  50.597  1.00  0.00     0.212 C 
ENDROOT
BRANCH   7  13
HETATM   13  N3  UNL     1      23.597   1.891  51.646  1.00  0.00    -0.349 N 
HETATM   14  H6  UNL     1      22.886   1.136  51.560  1.00  0.00     0.166 HD
BRANCH  13  15
HETATM   15  P1  UNL     1      24.712   0.934  52.706  1.00  0.00    -0.007 P 
HETATM   16  C7  UNL     1      25.846   1.843  53.812  1.00  0.00     0.072 A 
HETATM   17  C8  UNL     1      26.443   1.181  52.566  1.00  0.00     0.073 A 
BRANCH  17  18
HETATM   18  C9  UNL     1      27.517   0.207  52.875  1.00  0.00    -0.048 A 
HETATM   19  C10 UNL     1      28.773   0.495  53.314  1.00  0.00     0.008 A 
HETATM   20  C11 UNL     1      29.722  -0.494  53.588  1.00  0.00     0.001 A 
HETATM   21  C12 UNL     1      29.311  -1.791  53.385  1.00  0.00     0.000 A 
HETATM   22  C13 UNL     1      28.062  -2.180  52.942  1.00  0.00     0.001 A 
HETATM   23  C14 UNL     1      27.178  -1.121  52.693  1.00  0.00     0.008 A 
ENDBRANCH  17  18
ENDBRANCH  13  15
ENDBRANCH   7  13
BRANCH   1  24
HETATM   24  O1  UNL     1      21.244   5.402  48.972  1.00  0.00    -0.375 OA
HETATM   25  C1  UNL     1      20.807   5.672  47.665  1.00  0.00     0.203 C 
ENDBRANCH   1  24
TORSDOF 4
ENDMDL
MODEL 8
REMARK VINA RESULT:      -7.2      4.836      8.463
REMARK  4 active torsions:
REMARK  status: ('A' for Active; 'I' for Inactive)
REMARK    1  A    between atoms: O1_2  and  C2_3 
REMARK    2  A    between atoms: C6_9  and  N3_10 
REMARK    3  A    between atoms: N3_10  and  P1_11 
REMARK    4  A    between atoms: C8_13  and  C9_14 
ROOT
HETATM    1  C2  UNL     1      22.595   5.274  49.123  1.00  0.00     0.145 A 
HETATM    2  C3  UNL     1      22.307   6.573  49.620  1.00  0.00     0.076 A 
HETATM    3  C4  UNL     1      21.209   5.852  49.902  1.00  0.00     0.122 A 
HETATM    4  N1  UNL     1      21.528   5.724  51.285  1.00  0.00    -0.266 NA
HETATM    5  C5  UNL     1      22.608   4.932  51.584  1.00  0.00     0.230 C 
HETATM    6  N2  UNL     1      23.307   3.808  51.789  1.00  0.00    -0.225 NA
HETATM    7  C6  UNL     1      23.148   2.672  51.046  1.00  0.00     0.128 C 
HETATM    8  C15 UNL     1      22.714   2.477  49.751  1.00  0.00     0.053 C 
HETATM    9  C16 UNL     1      22.625   3.059  48.498  1.00  0.00     0.039 C 
HETATM   10  C17 UNL     1      21.879   4.051  49.069  1.00  0.00     0.084 C 
HETATM   11  O2  UNL     1      20.516   3.732  49.528  1.00  0.00    -0.349 OA
HETATM   12  C18 UNL     1      19.904   5.065  49.881  1.00  0.00     0.212 C 
ENDROOT
BRANCH   7  13
HETATM   13  N3  UNL     1      23.459   1.477  51.776  1.00  0.00    -0.349 N 
HETATM   14  H6  UNL     1      22.761   0.705  51.735  1.00  0.00     0.166 HD
BRANCH  13  15
HETATM   15  P1  UNL     1      24.629   0.572  52.822  1.00  0.00    -0.007 P 
HETATM   16  C7  UNL     1      25.933   1.521  53.680  1.00  0.00     0.072 A 
HETATM   17  C8  UNL     1      26.345   0.675  52.471  1.00  0.00     0.073 A 
BRANCH  17  18
HETATM   18  C9  UNL     1      27.387  -0.331  52.783  1.00  0.00    -0.048 A 
HETATM   19  C10 UNL     1      27.285  -1.681  52.635  1.00  0.00     0.008 A 
HETATM   20  C11 UNL     1      28.327  -2.557  52.950  1.00  0.00     0.001 A 
HETATM   21  C12 UNL     1      29.478  -1.970  53.424  1.00  0.00     0.000 A 
HETATM   22  C13 UNL     1      29.676  -0.616  53.609  1.00  0.00     0.001 A 
HETATM   23  C14 UNL     1      28.575   0.183  53.267  1.00  0.00     0.008 A 
ENDBRANCH  17  18
ENDBRANCH  13  15
ENDBRANCH   7  13
BRANCH   1  24
HETATM   24  O1  UNL     1      23.858   5.330  48.613  1.00  0.00    -0.375 OA
HETATM   25  C1  UNL     1      24.417   6.543  48.179  1.00  0.00     0.203 C 
ENDBRANCH   1  24
TORSDOF 4
ENDMDL
MODEL 9
REMARK VINA RESULT:      -7.2      4.955      9.005
REMARK  4 active torsions:
REMARK  status: ('A' for Active; 'I' for Inactive)
REMARK    1  A    between atoms: O1_2  and  C2_3 
REMARK    2  A    between atoms: C6_9  and  N3_10 
REMARK    3  A    between atoms: N3_10  and  P1_11 
REMARK    4  A    between atoms: C8_13  and  C9_14 
ROOT
HETATM    1  C2  UNL     1      19.961   0.372  51.355  1.00  0.00     0.145 A 
HETATM    2  C3  UNL     1      18.993   0.080  52.352  1.00  0.00     0.076 A 
HETATM    3  C4  UNL     1      20.173  -0.192  52.935  1.00  0.00     0.122 A 
HETATM    4  N1  UNL     1      20.174   1.000  53.716  1.00  0.00    -0.266 NA
HETATM    5  C5  UNL     1      20.338   2.173  53.024  1.00  0.00     0.230 C 
HETATM    6  N2  UNL     1      20.976   3.150  52.365  1.00  0.00    -0.225 NA
HETATM    7  C6  UNL     1      22.014   2.929  51.505  1.00  0.00     0.128 C 
HETATM    8  C15 UNL     1      22.353   1.833  50.739  1.00  0.00     0.053 C 
HETATM    9  C16 UNL     1      21.848   0.723  50.083  1.00  0.00     0.039 C 
HETATM   10  C17 UNL     1      21.376   0.290  51.290  1.00  0.00     0.084 C 
HETATM   11  O2  UNL     1      22.344  -0.172  52.301  1.00  0.00    -0.349 OA
HETATM   12  C18 UNL     1      21.501  -0.783  53.392  1.00  0.00     0.212 C 
ENDROOT
BRANCH   7  13
HETATM   13  N3  UNL     1      22.924   4.036  51.429  1.00  0.00    -0.349 N 
HETATM   14  H6  UNL     1      23.298   4.402  52.329  1.00  0.00     0.166 HD
BRANCH  13  15
HETATM   15  P1  UNL     1      23.847   5.202  50.394  1.00  0.00    -0.007 P 
HETATM   16  C7  UNL     1      23.822   4.957  48.584  1.00  0.00     0.072 A 
HETATM   17  C8  UNL     1      25.106   4.592  49.335  1.00  0.00     0.073 A 
BRANCH  17  18
HETATM   18  C9  UNL     1      26.301   5.320  48.848  1.00  0.00    -0.048 A 
HETATM   19  C10 UNL     1      27.565   4.825  48.734  1.00  0.00     0.008 A 
HETATM   20  C11 UNL     1      28.634   5.587  48.255  1.00  0.00     0.001 A 
HETATM   21  C12 UNL     1      28.334   6.882  47.901  1.00  0.00     0.000 A 
HETATM   22  C13 UNL     1      27.089   7.472  47.982  1.00  0.00     0.001 A 
HETATM   23  C14 UNL     1      26.079   6.632  48.474  1.00  0.00     0.008 A 
ENDBRANCH  17  18
ENDBRANCH  13  15
ENDBRANCH   7  13
BRANCH   1  24
HETATM   24  O1  UNL     1      19.270   0.823  50.270  1.00  0.00    -0.375 OA
HETATM   25  C1  UNL     1      17.869   0.916  50.283  1.00  0.00     0.203 C 
ENDBRANCH   1  24
TORSDOF 4
ENDMDL
