MODEL 1
REMARK VINA RESULT:     -10.2      0.000      0.000
REMARK  0 active torsions:
REMARK  status: ('A' for Active; 'I' for Inactive)
ROOT
HETATM    1  C1  UNL     1      23.065   3.727  52.987  1.00  0.00     0.019 C 
HETATM    2  C2  UNL     1      23.406   2.235  52.532  1.00  0.00     0.041 C 
HETATM    3  C3  UNL     1      22.185   1.945  51.886  1.00  0.00    -0.005 C 
HETATM    4  C4  UNL     1      22.086   0.765  51.276  1.00  0.00    -0.024 C 
HETATM    5  C5  UNL     1      21.641  -0.099  52.121  1.00  0.00     0.086 C 
HETATM    6  C6  UNL     1      22.805  -0.291  52.959  1.00  0.00     0.246 C 
HETATM    7  O1  UNL     1      22.958  -0.328  54.207  1.00  0.00    -0.268 OA
HETATM    8  N1  UNL     1      24.164  -0.505  52.700  1.00  0.00    -0.327 N 
HETATM    9  C7  UNL     1      25.427  -0.691  53.247  1.00  0.00     0.014 C 
HETATM   10  C8  UNL     1      26.413  -1.462  52.872  1.00  0.00     0.027 C 
HETATM   11  C9  UNL     1      27.765  -0.918  53.154  1.00  0.00     0.031 C 
HETATM   12  C10 UNL     1      27.978   0.232  53.721  1.00  0.00     0.061 C 
HETATM   13  N2  UNL     1      29.205   0.895  53.989  1.00  0.00    -0.245 NA
HETATM   14  C11 UNL     1      29.199   2.215  53.778  1.00  0.00     0.223 C 
HETATM   15  N3  UNL     1      27.949   2.846  53.309  1.00  0.00    -0.291 N 
HETATM   16  N4  UNL     1      26.733   2.049  53.091  1.00  0.00    -0.280 N 
HETATM   17  C12 UNL     1      25.963   2.453  51.966  1.00  0.00     0.060 A 
HETATM   18  C13 UNL     1      26.793   2.833  50.887  1.00  0.00     0.032 A 
HETATM   19  C14 UNL     1      26.466   3.283  49.618  1.00  0.00     0.004 A 
HETATM   20  C15 UNL     1      25.093   3.345  49.452  1.00  0.00     0.020 A 
HETATM   21  C16 UNL     1      24.203   2.993  50.451  1.00  0.00     0.020 A 
HETATM   22 BR1  UNL     1      22.457   3.273  49.738  1.00  0.00    -0.050 Br
HETATM   23  C17 UNL     1      24.617   2.554  51.688  1.00  0.00    -0.005 A 
HETATM   24  C18 UNL     1      26.772   1.089  54.119  1.00  0.00     0.166 C 
HETATM   25  C19 UNL     1      25.644   0.168  54.407  1.00  0.00     0.090 C 
HETATM   26  H7  UNL     1      24.224  -0.571  51.693  1.00  0.00     0.169 HD
HETATM   27  H11 UNL     1      27.942   3.889  53.078  1.00  0.00     0.188 HD
ENDROOT
TORSDOF 0
ENDMDL
MODEL 2
REMARK VINA RESULT:      -9.0      2.113      4.165
REMARK  0 active torsions:
REMARK  status: ('A' for Active; 'I' for Inactive)
ROOT
HETATM    1  C1  UNL     1      22.230   0.654  50.524  1.00  0.00     0.019 C 
HETATM    2  C2  UNL     1      23.049   1.583  51.531  1.00  0.00     0.041 C 
HETATM    3  C3  UNL     1      22.104   2.626  51.647  1.00  0.00    -0.005 C 
HETATM    4  C4  UNL     1      22.388   3.612  52.496  1.00  0.00    -0.024 C 
HETATM    5  C5  UNL     1      23.049   4.520  51.867  1.00  0.00     0.086 C 
HETATM    6  C6  UNL     1      24.335   3.873  51.718  1.00  0.00     0.246 C 
HETATM    7  O1  UNL     1      25.117   3.747  50.740  1.00  0.00    -0.268 OA
HETATM    8  N1  UNL     1      25.171   3.162  52.587  1.00  0.00    -0.327 N 
HETATM    9  C7  UNL     1      26.360   2.458  52.726  1.00  0.00     0.014 C 
HETATM   10  C8  UNL     1      27.217   2.418  53.711  1.00  0.00     0.027 C 
HETATM   11  C9  UNL     1      27.907   1.114  53.878  1.00  0.00     0.031 C 
HETATM   12  C10 UNL     1      27.689   0.078  53.124  1.00  0.00     0.061 C 
HETATM   13  N2  UNL     1      28.224  -1.233  53.212  1.00  0.00    -0.245 NA
HETATM   14  C11 UNL     1      27.358  -2.222  52.966  1.00  0.00     0.223 C 
HETATM   15  N3  UNL     1      25.966  -1.867  52.626  1.00  0.00    -0.291 N 
HETATM   16  N4  UNL     1      25.540  -0.463  52.543  1.00  0.00    -0.280 N 
HETATM   17  C12 UNL     1      24.228  -0.219  53.035  1.00  0.00     0.060 A 
HETATM   18  C13 UNL     1      23.958  -1.000  54.182  1.00  0.00     0.032 A 
HETATM   19  C14 UNL     1      22.822  -1.074  54.971  1.00  0.00     0.004 A 
HETATM   20  C15 UNL     1      21.836  -0.221  54.504  1.00  0.00     0.020 A 
HETATM   21  C16 UNL     1      22.011   0.581  53.390  1.00  0.00     0.020 A 
HETATM   22 BR1  UNL     1      20.377   1.536  53.155  1.00  0.00    -0.050 Br
HETATM   23  C17 UNL     1      23.179   0.591  52.662  1.00  0.00    -0.005 A 
HETATM   24  C18 UNL     1      26.657   0.196  51.997  1.00  0.00     0.166 C 
HETATM   25  C19 UNL     1      26.626   1.615  51.563  1.00  0.00     0.090 C 
HETATM   26  H7  UNL     1      24.710   3.216  53.485  1.00  0.00     0.169 HD
HETATM   27  H11 UNL     1      25.245  -2.644  52.486  1.00  0.00     0.188 HD
ENDROOT
TORSDOF 0
ENDMDL
MODEL 3
REMARK VINA RESULT:      -8.6      2.425      4.657
REMARK  0 active torsions:
REMARK  status: ('A' for Active; 'I' for Inactive)
ROOT
HETATM    1  C1  UNL     1      22.969   2.498  48.350  1.00  0.00     0.019 C 
HETATM    2  C2  UNL     1      23.946   3.151  49.430  1.00  0.00     0.041 C 
HETATM    3  C3  UNL     1      24.150   4.390  48.784  1.00  0.00    -0.005 C 
HETATM    4  C4  UNL     1      24.884   5.297  49.426  1.00  0.00    -0.024 C 
HETATM    5  C5  UNL     1      26.120   5.127  49.108  1.00  0.00     0.086 C 
HETATM    6  C6  UNL     1      26.430   3.918  49.839  1.00  0.00     0.246 C 
HETATM    7  O1  UNL     1      27.025   2.857  49.516  1.00  0.00    -0.268 OA
HETATM    8  N1  UNL     1      26.192   3.485  51.148  1.00  0.00    -0.327 N 
HETATM    9  C7  UNL     1      26.336   2.454  52.068  1.00  0.00     0.014 C 
HETATM   10  C8  UNL     1      26.598   2.483  53.347  1.00  0.00     0.027 C 
HETATM   11  C9  UNL     1      25.976   1.386  54.131  1.00  0.00     0.031 C 
HETATM   12  C10 UNL     1      25.221   0.464  53.611  1.00  0.00     0.061 C 
HETATM   13  N2  UNL     1      24.518  -0.593  54.246  1.00  0.00    -0.245 NA
HETATM   14  C11 UNL     1      23.296  -0.838  53.763  1.00  0.00     0.223 C 
HETATM   15  N3  UNL     1      22.807  -0.014  52.639  1.00  0.00    -0.291 N 
HETATM   16  N4  UNL     1      23.646   1.040  52.051  1.00  0.00    -0.280 N 
HETATM   17  C12 UNL     1      22.932   2.207  51.663  1.00  0.00     0.060 A 
HETATM   18  C13 UNL     1      21.912   2.516  52.591  1.00  0.00     0.032 A 
HETATM   19  C14 UNL     1      20.994   3.553  52.604  1.00  0.00     0.004 A 
HETATM   20  C15 UNL     1      21.160   4.378  51.505  1.00  0.00     0.020 A 
HETATM   21  C16 UNL     1      22.132   4.155  50.546  1.00  0.00     0.020 A 
HETATM   22 BR1  UNL     1      21.934   5.540  49.249  1.00  0.00    -0.050 Br
HETATM   23  C17 UNL     1      23.007   3.095  50.612  1.00  0.00    -0.005 A 
HETATM   24  C18 UNL     1      24.946   0.504  52.105  1.00  0.00     0.166 C 
HETATM   25  C19 UNL     1      26.113   1.149  51.452  1.00  0.00     0.090 C 
HETATM   26  H7  UNL     1      25.753   4.275  51.601  1.00  0.00     0.169 HD
HETATM   27  H11 UNL     1      21.811  -0.154  52.280  1.00  0.00     0.188 HD
ENDROOT
TORSDOF 0
ENDMDL
MODEL 4
REMARK VINA RESULT:      -8.3      3.377      6.520
REMARK  0 active torsions:
REMARK  status: ('A' for Active; 'I' for Inactive)
ROOT
HETATM    1  C1  UNL     1      24.460   3.584  53.518  1.00  0.00     0.019 C 
HETATM    2  C2  UNL     1      24.464   2.987  52.038  1.00  0.00     0.041 C 
HETATM    3  C3  UNL     1      25.856   2.786  51.912  1.00  0.00    -0.005 C 
HETATM    4  C4  UNL     1      26.289   2.206  50.794  1.00  0.00    -0.024 C 
HETATM    5  C5  UNL     1      26.520   3.120  49.918  1.00  0.00     0.086 C 
HETATM    6  C6  UNL     1      25.173   3.503  49.556  1.00  0.00     0.246 C 
HETATM    7  O1  UNL     1      24.614   4.622  49.414  1.00  0.00    -0.268 OA
HETATM    8  N1  UNL     1      24.013   2.789  49.233  1.00  0.00    -0.327 N 
HETATM    9  C7  UNL     1      22.669   2.865  48.888  1.00  0.00     0.014 C 
HETATM   10  C8  UNL     1      21.962   2.148  48.056  1.00  0.00     0.027 C 
HETATM   11  C9  UNL     1      20.540   1.972  48.446  1.00  0.00     0.031 C 
HETATM   12  C10 UNL     1      20.019   2.472  49.527  1.00  0.00     0.061 C 
HETATM   13  N2  UNL     1      18.707   2.328  50.048  1.00  0.00    -0.245 NA
HETATM   14  C11 UNL     1      18.632   2.180  51.374  1.00  0.00     0.223 C 
HETATM   15  N3  UNL     1      19.886   2.188  52.154  1.00  0.00    -0.291 N 
HETATM   16  N4  UNL     1      21.187   2.370  51.495  1.00  0.00    -0.280 N 
HETATM   17  C12 UNL     1      22.239   1.591  52.051  1.00  0.00     0.060 A 
HETATM   18  C13 UNL     1      21.781   0.307  52.427  1.00  0.00     0.032 A 
HETATM   19  C14 UNL     1      22.461  -0.757  52.996  1.00  0.00     0.004 A 
HETATM   20  C15 UNL     1      23.794  -0.442  53.201  1.00  0.00     0.020 A 
HETATM   21  C16 UNL     1      24.330   0.787  52.864  1.00  0.00     0.020 A 
HETATM   22 BR1  UNL     1      26.171   0.724  53.360  1.00  0.00    -0.050 Br
HETATM   23  C17 UNL     1      23.579   1.792  52.299  1.00  0.00    -0.005 A 
HETATM   24  C18 UNL     1      20.916   3.288  50.463  1.00  0.00     0.166 C 
HETATM   25  C19 UNL     1      21.979   3.912  49.636  1.00  0.00     0.090 C 
HETATM   26  H7  UNL     1      24.302   1.821  49.234  1.00  0.00     0.169 HD
HETATM   27  H11 UNL     1      19.851   2.010  53.207  1.00  0.00     0.188 HD
ENDROOT
TORSDOF 0
ENDMDL
MODEL 5
REMARK VINA RESULT:      -8.2      3.288      5.470
REMARK  0 active torsions:
REMARK  status: ('A' for Active; 'I' for Inactive)
ROOT
HETATM    1  C1  UNL     1      21.794   0.957  49.654  1.00  0.00     0.019 C 
HETATM    2  C2  UNL     1      21.760   2.319  50.485  1.00  0.00     0.041 C 
HETATM    3  C3  UNL     1      20.599   2.055  51.244  1.00  0.00    -0.005 C 
HETATM    4  C4  UNL     1      20.252   2.959  52.159  1.00  0.00    -0.024 C 
HETATM    5  C5  UNL     1      19.480   3.829  51.608  1.00  0.00     0.086 C 
HETATM    6  C6  UNL     1      20.426   4.567  50.800  1.00  0.00     0.246 C 
HETATM    7  O1  UNL     1      20.403   4.958  49.604  1.00  0.00    -0.268 OA
HETATM    8  N1  UNL     1      21.693   5.112  51.041  1.00  0.00    -0.327 N 
HETATM    9  C7  UNL     1      22.774   5.802  50.507  1.00  0.00     0.014 C 
HETATM   10  C8  UNL     1      23.544   6.717  51.032  1.00  0.00     0.027 C 
HETATM   11  C9  UNL     1      24.946   6.698  50.546  1.00  0.00     0.031 C 
HETATM   12  C10 UNL     1      25.399   5.845  49.676  1.00  0.00     0.061 C 
HETATM   13  N2  UNL     1      26.717   5.674  49.177  1.00  0.00    -0.245 NA
HETATM   14  C11 UNL     1      27.107   4.406  49.016  1.00  0.00     0.223 C 
HETATM   15  N3  UNL     1      26.154   3.330  49.353  1.00  0.00    -0.291 N 
HETATM   16  N4  UNL     1      24.802   3.639  49.840  1.00  0.00    -0.280 N 
HETATM   17  C12 UNL     1      24.326   2.754  50.846  1.00  0.00     0.060 A 
HETATM   18  C13 UNL     1      25.360   2.388  51.738  1.00  0.00     0.032 A 
HETATM   19  C14 UNL     1      25.336   1.560  52.848  1.00  0.00     0.004 A 
HETATM   20  C15 UNL     1      24.068   1.045  53.056  1.00  0.00     0.020 A 
HETATM   21  C16 UNL     1      22.996   1.347  52.237  1.00  0.00     0.020 A 
HETATM   22 BR1  UNL     1      21.503   0.383  52.928  1.00  0.00    -0.050 Br
HETATM   23  C17 UNL     1      23.109   2.184  51.150  1.00  0.00    -0.005 A 
HETATM   24  C18 UNL     1      24.440   4.790  49.116  1.00  0.00     0.166 C 
HETATM   25  C19 UNL     1      23.071   5.366  49.146  1.00  0.00     0.090 C 
HETATM   26  H7  UNL     1      21.861   4.940  52.023  1.00  0.00     0.169 HD
HETATM   27  H11 UNL     1      26.468   2.311  49.288  1.00  0.00     0.188 HD
ENDROOT
TORSDOF 0
ENDMDL
MODEL 6
REMARK VINA RESULT:      -8.0      5.374      8.074
REMARK  0 active torsions:
REMARK  status: ('A' for Active; 'I' for Inactive)
ROOT
HETATM    1  C1  UNL     1      27.141   8.759  50.033  1.00  0.00     0.019 C 
HETATM    2  C2  UNL     1      26.058   8.280  48.963  1.00  0.00     0.041 C 
HETATM    3  C3  UNL     1      26.688   8.790  47.806  1.00  0.00    -0.005 C 
HETATM    4  C4  UNL     1      26.114   8.526  46.634  1.00  0.00    -0.024 C 
HETATM    5  C5  UNL     1      25.267   9.459  46.370  1.00  0.00     0.086 C 
HETATM    6  C6  UNL     1      24.207   9.143  47.302  1.00  0.00     0.246 C 
HETATM    7  O1  UNL     1      23.534   9.848  48.097  1.00  0.00    -0.268 OA
HETATM    8  N1  UNL     1      23.546   7.961  47.658  1.00  0.00    -0.327 N 
HETATM    9  C7  UNL     1      22.580   7.378  48.468  1.00  0.00     0.014 C 
HETATM   10  C8  UNL     1      21.717   6.430  48.217  1.00  0.00     0.027 C 
HETATM   11  C9  UNL     1      21.388   5.569  49.381  1.00  0.00     0.031 C 
HETATM   12  C10 UNL     1      21.908   5.721  50.562  1.00  0.00     0.061 C 
HETATM   13  N2  UNL     1      21.734   4.939  51.734  1.00  0.00    -0.245 NA
HETATM   14  C11 UNL     1      22.841   4.738  52.457  1.00  0.00     0.223 C 
HETATM   15  N3  UNL     1      24.105   5.339  51.987  1.00  0.00    -0.291 N 
HETATM   16  N4  UNL     1      24.150   6.152  50.763  1.00  0.00    -0.280 N 
HETATM   17  C12 UNL     1      25.325   5.973  49.983  1.00  0.00     0.060 A 
HETATM   18  C13 UNL     1      25.736   4.620  49.979  1.00  0.00     0.032 A 
HETATM   19  C14 UNL     1      26.812   4.011  49.355  1.00  0.00     0.004 A 
HETATM   20  C15 UNL     1      27.559   4.932  48.641  1.00  0.00     0.020 A 
HETATM   21  C16 UNL     1      27.233   6.276  48.587  1.00  0.00     0.020 A 
HETATM   22 BR1  UNL     1      28.567   7.109  47.508  1.00  0.00    -0.050 Br
HETATM   23  C17 UNL     1      26.141   6.798  49.240  1.00  0.00    -0.005 A 
HETATM   24  C18 UNL     1      22.926   6.846  50.777  1.00  0.00     0.166 C 
HETATM   25  C19 UNL     1      22.602   7.933  49.818  1.00  0.00     0.090 C 
HETATM   26  H7  UNL     1      23.933   7.258  47.043  1.00  0.00     0.169 HD
HETATM   27  H11 UNL     1      25.011   5.138  52.517  1.00  0.00     0.188 HD
ENDROOT
TORSDOF 0
ENDMDL
MODEL 7
REMARK VINA RESULT:      -7.4      3.354      5.091
REMARK  0 active torsions:
REMARK  status: ('A' for Active; 'I' for Inactive)
ROOT
HETATM    1  C1  UNL     1      20.437   4.239  51.324  1.00  0.00     0.019 C 
HETATM    2  C2  UNL     1      21.716   3.317  51.079  1.00  0.00     0.041 C 
HETATM    3  C3  UNL     1      21.163   2.094  51.520  1.00  0.00    -0.005 C 
HETATM    4  C4  UNL     1      21.922   1.006  51.404  1.00  0.00    -0.024 C 
HETATM    5  C5  UNL     1      22.621   0.874  52.477  1.00  0.00     0.086 C 
HETATM    6  C6  UNL     1      23.589   1.936  52.309  1.00  0.00     0.246 C 
HETATM    7  O1  UNL     1      24.020   2.826  53.086  1.00  0.00    -0.268 OA
HETATM    8  N1  UNL     1      24.393   2.359  51.244  1.00  0.00    -0.327 N 
HETATM    9  C7  UNL     1      25.333   3.281  50.802  1.00  0.00     0.014 C 
HETATM   10  C8  UNL     1      26.372   3.133  50.024  1.00  0.00     0.027 C 
HETATM   11  C9  UNL     1      26.691   4.317  49.187  1.00  0.00     0.031 C 
HETATM   12  C10 UNL     1      26.003   5.420  49.201  1.00  0.00     0.061 C 
HETATM   13  N2  UNL     1      26.157   6.592  48.415  1.00  0.00    -0.245 NA
HETATM   14  C11 UNL     1      25.017   7.155  48.000  1.00  0.00     0.223 C 
HETATM   15  N3  UNL     1      23.740   6.528  48.395  1.00  0.00    -0.291 N 
HETATM   16  N4  UNL     1      23.714   5.323  49.236  1.00  0.00    -0.280 N 
HETATM   17  C12 UNL     1      22.699   4.389  48.891  1.00  0.00     0.060 A 
HETATM   18  C13 UNL     1      22.534   4.307  47.490  1.00  0.00     0.032 A 
HETATM   19  C14 UNL     1      21.671   3.533  46.732  1.00  0.00     0.004 A 
HETATM   20  C15 UNL     1      20.875   2.740  47.540  1.00  0.00     0.020 A 
HETATM   21  C16 UNL     1      20.966   2.753  48.920  1.00  0.00     0.020 A 
HETATM   22 BR1  UNL     1      19.660   1.518  49.556  1.00  0.00    -0.050 Br
HETATM   23  C17 UNL     1      21.857   3.556  49.594  1.00  0.00    -0.005 A 
HETATM   24  C18 UNL     1      24.787   5.514  50.128  1.00  0.00     0.166 C 
HETATM   25  C19 UNL     1      25.039   4.625  51.291  1.00  0.00     0.090 C 
HETATM   26  H7  UNL     1      24.218   1.685  50.510  1.00  0.00     0.169 HD
HETATM   27  H11 UNL     1      22.822   6.928  48.023  1.00  0.00     0.188 HD
ENDROOT
TORSDOF 0
ENDMDL
MODEL 8
REMARK VINA RESULT:      -7.3      8.731     11.399
REMARK  0 active torsions:
REMARK  status: ('A' for Active; 'I' for Inactive)
ROOT
HETATM    1  C1  UNL     1      30.898   8.271  44.562  1.00  0.00     0.019 C 
HETATM    2  C2  UNL     1      31.740   8.445  45.907  1.00  0.00     0.041 C 
HETATM    3  C3  UNL     1      31.406   9.791  46.174  1.00  0.00    -0.005 C 
HETATM    4  C4  UNL     1      31.871  10.320  47.304  1.00  0.00    -0.024 C 
HETATM    5  C5  UNL     1      33.027  10.837  47.073  1.00  0.00     0.086 C 
HETATM    6  C6  UNL     1      33.840   9.648  46.942  1.00  0.00     0.246 C 
HETATM    7  O1  UNL     1      34.709   9.299  46.101  1.00  0.00    -0.268 OA
HETATM    8  N1  UNL     1      33.965   8.468  47.685  1.00  0.00    -0.327 N 
HETATM    9  C7  UNL     1      34.591   7.233  47.794  1.00  0.00     0.014 C 
HETATM   10  C8  UNL     1      35.014   6.583  48.845  1.00  0.00     0.027 C 
HETATM   11  C9  UNL     1      34.933   5.105  48.731  1.00  0.00     0.031 C 
HETATM   12  C10 UNL     1      34.474   4.484  47.686  1.00  0.00     0.061 C 
HETATM   13  N2  UNL     1      34.281   3.094  47.471  1.00  0.00    -0.245 NA
HETATM   14  C11 UNL     1      33.160   2.766  46.821  1.00  0.00     0.223 C 
HETATM   15  N3  UNL     1      32.255   3.850  46.389  1.00  0.00    -0.291 N 
HETATM   16  N4  UNL     1      32.581   5.259  46.652  1.00  0.00    -0.280 N 
HETATM   17  C12 UNL     1      31.460   6.067  46.988  1.00  0.00     0.060 A 
HETATM   18  C13 UNL     1      30.547   5.362  47.804  1.00  0.00     0.032 A 
HETATM   19  C14 UNL     1      29.341   5.763  48.355  1.00  0.00     0.004 A 
HETATM   20  C15 UNL     1      29.047   7.071  48.010  1.00  0.00     0.020 A 
HETATM   21  C16 UNL     1      29.881   7.838  47.216  1.00  0.00     0.020 A 
HETATM   22 BR1  UNL     1      29.027   9.531  47.020  1.00  0.00    -0.050 Br
HETATM   23  C17 UNL     1      31.066   7.357  46.709  1.00  0.00    -0.005 A 
HETATM   24  C18 UNL     1      33.979   5.315  46.497  1.00  0.00     0.166 C 
HETATM   25  C19 UNL     1      34.742   6.589  46.493  1.00  0.00     0.090 C 
HETATM   26  H7  UNL     1      33.354   8.603  48.479  1.00  0.00     0.169 HD
HETATM   27  H11 UNL     1      31.326   3.605  45.923  1.00  0.00     0.188 HD
ENDROOT
TORSDOF 0
ENDMDL
MODEL 9
REMARK VINA RESULT:      -7.3      7.181      9.671
REMARK  0 active torsions:
REMARK  status: ('A' for Active; 'I' for Inactive)
ROOT
HETATM    1  C1  UNL     1      27.208   8.440  45.436  1.00  0.00     0.019 C 
HETATM    2  C2  UNL     1      27.743   8.899  46.868  1.00  0.00     0.041 C 
HETATM    3  C3  UNL     1      26.681   9.767  47.203  1.00  0.00    -0.005 C 
HETATM    4  C4  UNL     1      26.710  10.325  48.413  1.00  0.00    -0.024 C 
HETATM    5  C5  UNL     1      27.361  11.433  48.341  1.00  0.00     0.086 C 
HETATM    6  C6  UNL     1      28.717  10.949  48.200  1.00  0.00     0.246 C 
HETATM    7  O1  UNL     1      29.658  11.264  47.427  1.00  0.00    -0.268 OA
HETATM    8  N1  UNL     1      29.474   9.972  48.858  1.00  0.00    -0.327 N 
HETATM    9  C7  UNL     1      30.695   9.314  48.934  1.00  0.00     0.014 C 
HETATM   10  C8  UNL     1      31.377   8.901  49.968  1.00  0.00     0.027 C 
HETATM   11  C9  UNL     1      32.171   7.669  49.733  1.00  0.00     0.031 C 
HETATM   12  C10 UNL     1      32.196   7.029  48.601  1.00  0.00     0.061 C 
HETATM   13  N2  UNL     1      32.852   5.818  48.261  1.00  0.00    -0.245 NA
HETATM   14  C11 UNL     1      32.154   4.990  47.477  1.00  0.00     0.223 C 
HETATM   15  N3  UNL     1      30.805   5.405  47.042  1.00  0.00    -0.291 N 
HETATM   16  N4  UNL     1      30.245   6.703  47.445  1.00  0.00    -0.280 N 
HETATM   17  C12 UNL     1      28.851   6.677  47.727  1.00  0.00     0.060 A 
HETATM   18  C13 UNL     1      28.485   5.483  48.390  1.00  0.00     0.032 A 
HETATM   19  C14 UNL     1      27.251   5.052  48.846  1.00  0.00     0.004 A 
HETATM   20  C15 UNL     1      26.266   5.988  48.575  1.00  0.00     0.020 A 
HETATM   21  C16 UNL     1      26.531   7.183  47.931  1.00  0.00     0.020 A 
HETATM   22 BR1  UNL     1      24.862   8.094  47.782  1.00  0.00    -0.050 Br
HETATM   23  C17 UNL     1      27.794   7.533  47.511  1.00  0.00    -0.005 A 
HETATM   24  C18 UNL     1      31.356   7.566  47.437  1.00  0.00     0.166 C 
HETATM   25  C19 UNL     1      31.240   9.036  47.609  1.00  0.00     0.090 C 
HETATM   26  H7  UNL     1      28.869   9.635  49.595  1.00  0.00     0.169 HD
HETATM   27  H11 UNL     1      30.208   4.732  46.466  1.00  0.00     0.188 HD
ENDROOT
TORSDOF 0
ENDMDL
