MODEL 1
REMARK VINA RESULT:      -8.8      0.000      0.000
REMARK  4 active torsions:
REMARK  status: ('A' for Active; 'I' for Inactive)
REMARK    1  A    between atoms: C7_7  and  N1_8 
REMARK    2  A    between atoms: N1_8  and  C8_9 
REMARK    3  A    between atoms: C9_10  and  C10_11 
REMARK    4  A    between atoms: N4_17  and  C14_18 
ROOT
HETATM    1  C10 UNL     1      25.807   1.066  51.682  1.00  0.00     0.151 C 
HETATM    2  C11 UNL     1      26.659  -0.134  51.994  1.00  0.00     0.120 C 
HETATM    3  N2  UNL     1      27.328  -0.284  53.111  1.00  0.00    -0.256 NA
HETATM    4  C12 UNL     1      27.390   0.624  54.228  1.00  0.00     0.228 C 
HETATM    5  N3  UNL     1      26.700   1.656  54.531  1.00  0.00    -0.263 NA
HETATM    6  C13 UNL     1      25.573   2.319  53.855  1.00  0.00     0.275 C 
HETATM    7  N4  UNL     1      25.084   1.338  52.909  1.00  0.00    -0.350 N 
ENDROOT
BRANCH   1   8
HETATM    8  C9  UNL     1      26.680   2.213  51.286  1.00  0.00     0.020 C 
HETATM    9  C8  UNL     1      26.383   2.916  50.208  1.00  0.00     0.086 C 
BRANCH   9  10
HETATM   10  N1  UNL     1      27.066   4.038  49.649  1.00  0.00    -0.366 N 
HETATM   11  H8  UNL     1      28.084   3.867  49.791  1.00  0.00     0.165 HD
BRANCH  10  12
HETATM   12  C7  UNL     1      26.640   5.208  49.007  1.00  0.00     0.037 A 
HETATM   13  C2  UNL     1      27.544   6.041  48.363  1.00  0.00    -0.035 A 
HETATM   14  C1  UNL     1      28.984   5.729  48.330  1.00  0.00     0.050 C 
HETATM   15  C3  UNL     1      27.014   7.152  47.773  1.00  0.00     0.009 A 
HETATM   16  C4  UNL     1      25.655   7.450  47.803  1.00  0.00     0.001 A 
HETATM   17  C5  UNL     1      24.777   6.603  48.450  1.00  0.00     0.002 A 
HETATM   18  C6  UNL     1      25.281   5.467  49.061  1.00  0.00     0.030 A 
ENDBRANCH  10  12
ENDBRANCH   9  10
ENDBRANCH   1   8
BRANCH   7  19
HETATM   19  C14 UNL     1      23.894   0.597  53.127  1.00  0.00     0.033 A 
HETATM   20  C15 UNL     1      23.713  -0.383  54.070  1.00  0.00     0.029 A 
HETATM   21  C16 UNL     1      22.564  -1.098  54.268  1.00  0.00     0.004 A 
HETATM   22  C17 UNL     1      21.474  -0.826  53.455  1.00  0.00     0.019 A 
HETATM   23  C18 UNL     1      21.620   0.160  52.488  1.00  0.00     0.013 A 
HETATM   24 BR1  UNL     1      20.080   0.464  51.423  1.00  0.00    -0.051 Br
HETATM   25  C19 UNL     1      22.802   0.850  52.333  1.00  0.00     0.048 A 
ENDBRANCH   7  19
TORSDOF 4
ENDMDL
MODEL 2
REMARK VINA RESULT:      -7.8      3.395      8.308
REMARK  4 active torsions:
REMARK  status: ('A' for Active; 'I' for Inactive)
REMARK    1  A    between atoms: C7_7  and  N1_8 
REMARK    2  A    between atoms: N1_8  and  C8_9 
REMARK    3  A    between atoms: C9_10  and  C10_11 
REMARK    4  A    between atoms: N4_17  and  C14_18 
ROOT
HETATM    1  C10 UNL     1      23.872   3.349  49.948  1.00  0.00     0.151 C 
HETATM    2  C11 UNL     1      22.949   3.775  48.839  1.00  0.00     0.120 C 
HETATM    3  N2  UNL     1      22.162   4.821  48.906  1.00  0.00    -0.256 NA
HETATM    4  C12 UNL     1      22.017   5.744  50.003  1.00  0.00     0.228 C 
HETATM    5  N3  UNL     1      22.709   5.932  51.062  1.00  0.00    -0.263 NA
HETATM    6  C13 UNL     1      23.924   5.275  51.570  1.00  0.00     0.275 C 
HETATM    7  N4  UNL     1      24.472   4.579  50.425  1.00  0.00    -0.350 N 
ENDROOT
BRANCH   1   8
HETATM    8  C9  UNL     1      23.088   2.661  51.018  1.00  0.00     0.020 C 
HETATM    9  C8  UNL     1      22.654   1.430  50.819  1.00  0.00     0.086 C 
BRANCH   9  10
HETATM   10  N1  UNL     1      21.896   0.590  51.690  1.00  0.00    -0.366 N 
HETATM   11  H8  UNL     1      20.950   0.498  51.265  1.00  0.00     0.165 HD
BRANCH  10  12
HETATM   12  C7  UNL     1      22.184  -0.062  52.896  1.00  0.00     0.037 A 
HETATM   13  C2  UNL     1      21.167  -0.560  53.700  1.00  0.00    -0.035 A 
HETATM   14  C1  UNL     1      19.751  -0.423  53.318  1.00  0.00     0.050 C 
HETATM   15  C3  UNL     1      21.567  -1.176  54.851  1.00  0.00     0.009 A 
HETATM   16  C4  UNL     1      22.904  -1.307  55.215  1.00  0.00     0.001 A 
HETATM   17  C5  UNL     1      23.895  -0.803  54.396  1.00  0.00     0.002 A 
HETATM   18  C6  UNL     1      23.525  -0.171  53.220  1.00  0.00     0.030 A 
ENDBRANCH  10  12
ENDBRANCH   9  10
ENDBRANCH   1   8
BRANCH   7  19
HETATM   19  C14 UNL     1      25.605   5.054  49.716  1.00  0.00     0.033 A 
HETATM   20  C15 UNL     1      26.687   4.306  49.324  1.00  0.00     0.029 A 
HETATM   21  C16 UNL     1      27.779   4.774  48.648  1.00  0.00     0.004 A 
HETATM   22  C17 UNL     1      27.819   6.121  48.318  1.00  0.00     0.019 A 
HETATM   23  C18 UNL     1      26.742   6.910  48.700  1.00  0.00     0.013 A 
HETATM   24 BR1  UNL     1      26.882   8.738  48.209  1.00  0.00    -0.051 Br
HETATM   25  C19 UNL     1      25.666   6.385  49.381  1.00  0.00     0.048 A 
ENDBRANCH   7  19
TORSDOF 4
ENDMDL
MODEL 3
REMARK VINA RESULT:      -7.8      2.118      2.951
REMARK  4 active torsions:
REMARK  status: ('A' for Active; 'I' for Inactive)
REMARK    1  A    between atoms: C7_7  and  N1_8 
REMARK    2  A    between atoms: N1_8  and  C8_9 
REMARK    3  A    between atoms: C9_10  and  C10_11 
REMARK    4  A    between atoms: N4_17  and  C14_18 
ROOT
HETATM    1  C10 UNL     1      24.439   2.309  51.570  1.00  0.00     0.151 C 
HETATM    2  C11 UNL     1      24.137   3.458  52.493  1.00  0.00     0.120 C 
HETATM    3  N2  UNL     1      23.148   4.299  52.312  1.00  0.00    -0.256 NA
HETATM    4  C12 UNL     1      22.184   4.306  51.241  1.00  0.00     0.228 C 
HETATM    5  N3  UNL     1      21.894   3.442  50.344  1.00  0.00    -0.263 NA
HETATM    6  C13 UNL     1      22.435   2.104  50.058  1.00  0.00     0.275 C 
HETATM    7  N4  UNL     1      23.147   1.729  51.262  1.00  0.00    -0.350 N 
ENDROOT
BRANCH   1   8
HETATM    8  C9  UNL     1      25.127   2.817  50.343  1.00  0.00     0.020 C 
HETATM    9  C8  UNL     1      26.112   3.689  50.462  1.00  0.00     0.086 C 
BRANCH   9  10
HETATM   10  N1  UNL     1      26.900   4.302  49.442  1.00  0.00    -0.366 N 
HETATM   11  H8  UNL     1      27.659   3.629  49.208  1.00  0.00     0.165 HD
BRANCH  10  12
HETATM   12  C7  UNL     1      26.828   5.530  48.772  1.00  0.00     0.037 A 
HETATM   13  C2  UNL     1      27.959   6.103  48.205  1.00  0.00    -0.035 A 
HETATM   14  C1  UNL     1      29.274   5.444  48.286  1.00  0.00     0.050 C 
HETATM   15  C3  UNL     1      27.768   7.301  47.579  1.00  0.00     0.009 A 
HETATM   16  C4  UNL     1      26.527   7.926  47.502  1.00  0.00     0.001 A 
HETATM   17  C5  UNL     1      25.419   7.333  48.074  1.00  0.00     0.002 A 
HETATM   18  C6  UNL     1      25.576   6.118  48.719  1.00  0.00     0.030 A 
ENDBRANCH  10  12
ENDBRANCH   9  10
ENDBRANCH   1   8
BRANCH   7  19
HETATM   19  C14 UNL     1      22.628   0.794  52.193  1.00  0.00     0.033 A 
HETATM   20  C15 UNL     1      23.352   0.095  53.126  1.00  0.00     0.029 A 
HETATM   21  C16 UNL     1      22.845  -0.811  54.016  1.00  0.00     0.004 A 
HETATM   22  C17 UNL     1      21.481  -1.062  53.991  1.00  0.00     0.019 A 
HETATM   23  C18 UNL     1      20.716  -0.374  53.059  1.00  0.00     0.013 A 
HETATM   24 BR1  UNL     1      18.862  -0.780  53.096  1.00  0.00    -0.051 Br
HETATM   25  C19 UNL     1      21.280   0.530  52.186  1.00  0.00     0.048 A 
ENDBRANCH   7  19
TORSDOF 4
ENDMDL
MODEL 4
REMARK VINA RESULT:      -7.8      3.748      6.075
REMARK  4 active torsions:
REMARK  status: ('A' for Active; 'I' for Inactive)
REMARK    1  A    between atoms: C7_7  and  N1_8 
REMARK    2  A    between atoms: N1_8  and  C8_9 
REMARK    3  A    between atoms: C9_10  and  C10_11 
REMARK    4  A    between atoms: N4_17  and  C14_18 
ROOT
HETATM    1  C10 UNL     1      22.028   1.654  52.147  1.00  0.00     0.151 C 
HETATM    2  C11 UNL     1      21.388   3.006  52.308  1.00  0.00     0.120 C 
HETATM    3  N2  UNL     1      20.923   3.717  51.310  1.00  0.00    -0.256 NA
HETATM    4  C12 UNL     1      20.926   3.375  49.910  1.00  0.00     0.228 C 
HETATM    5  N3  UNL     1      21.162   2.279  49.297  1.00  0.00    -0.263 NA
HETATM    6  C13 UNL     1      21.525   0.939  49.785  1.00  0.00     0.275 C 
HETATM    7  N4  UNL     1      21.188   0.957  51.193  1.00  0.00    -0.350 N 
ENDROOT
BRANCH   1   8
HETATM    8  C9  UNL     1      23.425   1.817  51.643  1.00  0.00     0.020 C 
HETATM    9  C8  UNL     1      24.392   1.072  52.150  1.00  0.00     0.086 C 
BRANCH   9  10
HETATM   10  N1  UNL     1      25.782   1.058  51.825  1.00  0.00    -0.366 N 
HETATM   11  H8  UNL     1      25.845   1.102  50.787  1.00  0.00     0.165 HD
BRANCH  10  12
HETATM   12  C7  UNL     1      26.953   1.001  52.592  1.00  0.00     0.037 A 
HETATM   13  C2  UNL     1      27.498  -0.217  52.976  1.00  0.00    -0.035 A 
HETATM   14  C1  UNL     1      26.867  -1.493  52.594  1.00  0.00     0.050 C 
HETATM   15  C3  UNL     1      28.640  -0.149  53.720  1.00  0.00     0.009 A 
HETATM   16  C4  UNL     1      29.238   1.054  54.083  1.00  0.00     0.001 A 
HETATM   17  C5  UNL     1      28.674   2.251  53.687  1.00  0.00     0.002 A 
HETATM   18  C6  UNL     1      27.515   2.220  52.931  1.00  0.00     0.030 A 
ENDBRANCH  10  12
ENDBRANCH   9  10
ENDBRANCH   1   8
BRANCH   7  19
HETATM   19  C14 UNL     1      20.037   0.308  51.709  1.00  0.00     0.033 A 
HETATM   20  C15 UNL     1      19.948  -0.346  52.912  1.00  0.00     0.029 A 
HETATM   21  C16 UNL     1      18.837  -0.976  53.399  1.00  0.00     0.004 A 
HETATM   22  C17 UNL     1      17.686  -0.966  52.625  1.00  0.00     0.019 A 
HETATM   23  C18 UNL     1      17.738  -0.314  51.400  1.00  0.00     0.013 A 
HETATM   24 BR1  UNL     1      16.119  -0.352  50.410  1.00  0.00    -0.051 Br
HETATM   25  C19 UNL     1      18.887   0.305  50.959  1.00  0.00     0.048 A 
ENDBRANCH   7  19
TORSDOF 4
ENDMDL
MODEL 5
REMARK VINA RESULT:      -7.8      3.376      7.636
REMARK  4 active torsions:
REMARK  status: ('A' for Active; 'I' for Inactive)
REMARK    1  A    between atoms: C7_7  and  N1_8 
REMARK    2  A    between atoms: N1_8  and  C8_9 
REMARK    3  A    between atoms: C9_10  and  C10_11 
REMARK    4  A    between atoms: N4_17  and  C14_18 
ROOT
HETATM    1  C10 UNL     1      24.750   3.490  49.938  1.00  0.00     0.151 C 
HETATM    2  C11 UNL     1      23.544   3.100  49.129  1.00  0.00     0.120 C 
HETATM    3  N2  UNL     1      22.317   3.450  49.432  1.00  0.00    -0.256 NA
HETATM    4  C12 UNL     1      21.880   4.244  50.551  1.00  0.00     0.228 C 
HETATM    5  N3  UNL     1      22.520   4.966  51.390  1.00  0.00    -0.263 NA
HETATM    6  C13 UNL     1      23.953   5.265  51.538  1.00  0.00     0.275 C 
HETATM    7  N4  UNL     1      24.540   4.885  50.270  1.00  0.00    -0.350 N 
ENDROOT
BRANCH   1   8
HETATM    8  C9  UNL     1      24.833   2.634  51.161  1.00  0.00     0.020 C 
HETATM    9  C8  UNL     1      25.989   2.095  51.502  1.00  0.00     0.086 C 
BRANCH   9  10
HETATM   10  N1  UNL     1      26.297   1.254  52.614  1.00  0.00    -0.366 N 
HETATM   11  H8  UNL     1      25.498   1.333  53.277  1.00  0.00     0.165 HD
BRANCH  10  12
HETATM   12  C7  UNL     1      27.383   0.426  52.929  1.00  0.00     0.037 A 
HETATM   13  C2  UNL     1      28.555   0.953  53.454  1.00  0.00    -0.035 A 
HETATM   14  C1  UNL     1      28.704   2.398  53.700  1.00  0.00     0.050 C 
HETATM   15  C3  UNL     1      29.545   0.051  53.722  1.00  0.00     0.009 A 
HETATM   16  C4  UNL     1      29.408  -1.314  53.490  1.00  0.00     0.001 A 
HETATM   17  C5  UNL     1      28.231  -1.811  52.967  1.00  0.00     0.002 A 
HETATM   18  C6  UNL     1      27.205  -0.924  52.683  1.00  0.00     0.030 A 
ENDBRANCH  10  12
ENDBRANCH   9  10
ENDBRANCH   1   8
BRANCH   7  19
HETATM   19  C14 UNL     1      24.933   5.839  49.296  1.00  0.00     0.033 A 
HETATM   20  C15 UNL     1      24.092   6.637  48.561  1.00  0.00     0.029 A 
HETATM   21  C16 UNL     1      24.478   7.549  47.618  1.00  0.00     0.004 A 
HETATM   22  C17 UNL     1      25.834   7.697  47.366  1.00  0.00     0.019 A 
HETATM   23  C18 UNL     1      26.715   6.905  48.090  1.00  0.00     0.013 A 
HETATM   24 BR1  UNL     1      28.548   7.174  47.678  1.00  0.00    -0.051 Br
HETATM   25  C19 UNL     1      26.270   6.002  49.030  1.00  0.00     0.048 A 
ENDBRANCH   7  19
TORSDOF 4
ENDMDL
MODEL 6
REMARK VINA RESULT:      -7.8      2.197      3.766
REMARK  4 active torsions:
REMARK  status: ('A' for Active; 'I' for Inactive)
REMARK    1  A    between atoms: C7_7  and  N1_8 
REMARK    2  A    between atoms: N1_8  and  C8_9 
REMARK    3  A    between atoms: C9_10  and  C10_11 
REMARK    4  A    between atoms: N4_17  and  C14_18 
ROOT
HETATM    1  C10 UNL     1      24.295   3.384  51.421  1.00  0.00     0.151 C 
HETATM    2  C11 UNL     1      23.446   4.238  52.323  1.00  0.00     0.120 C 
HETATM    3  N2  UNL     1      22.147   4.365  52.199  1.00  0.00    -0.256 NA
HETATM    4  C12 UNL     1      21.293   3.747  51.217  1.00  0.00     0.228 C 
HETATM    5  N3  UNL     1      21.494   2.800  50.382  1.00  0.00    -0.263 NA
HETATM    6  C13 UNL     1      22.679   1.974  50.099  1.00  0.00     0.275 C 
HETATM    7  N4  UNL     1      23.539   2.159  51.249  1.00  0.00    -0.350 N 
ENDROOT
BRANCH   1   8
HETATM    8  C9  UNL     1      24.512   4.090  50.121  1.00  0.00     0.020 C 
HETATM    9  C8  UNL     1      25.479   4.984  50.018  1.00  0.00     0.086 C 
BRANCH   9  10
HETATM   10  N1  UNL     1      25.862   5.769  48.889  1.00  0.00    -0.366 N 
HETATM   11  H8  UNL     1      24.981   6.066  48.420  1.00  0.00     0.165 HD
BRANCH  10  12
HETATM   12  C7  UNL     1      27.099   6.166  48.364  1.00  0.00     0.037 A 
HETATM   13  C2  UNL     1      27.236   7.373  47.692  1.00  0.00    -0.035 A 
HETATM   14  C1  UNL     1      26.090   8.281  47.505  1.00  0.00     0.050 C 
HETATM   15  C3  UNL     1      28.487   7.655  47.224  1.00  0.00     0.009 A 
HETATM   16  C4  UNL     1      29.571   6.799  47.397  1.00  0.00     0.001 A 
HETATM   17  C5  UNL     1      29.406   5.605  48.070  1.00  0.00     0.002 A 
HETATM   18  C6  UNL     1      28.150   5.287  48.559  1.00  0.00     0.030 A 
ENDBRANCH  10  12
ENDBRANCH   9  10
ENDBRANCH   1   8
BRANCH   7  19
HETATM   19  C14 UNL     1      23.685   1.172  52.257  1.00  0.00     0.033 A 
HETATM   20  C15 UNL     1      24.863   0.790  52.850  1.00  0.00     0.029 A 
HETATM   21  C16 UNL     1      24.997  -0.169  53.815  1.00  0.00     0.004 A 
HETATM   22  C17 UNL     1      23.855  -0.827  54.249  1.00  0.00     0.019 A 
HETATM   23  C18 UNL     1      22.645  -0.468  53.670  1.00  0.00     0.013 A 
HETATM   24 BR1  UNL     1      21.138  -1.420  54.322  1.00  0.00    -0.051 Br
HETATM   25  C19 UNL     1      22.568   0.507  52.700  1.00  0.00     0.048 A 
ENDBRANCH   7  19
TORSDOF 4
ENDMDL
MODEL 7
REMARK VINA RESULT:      -7.6      3.517      6.252
REMARK  4 active torsions:
REMARK  status: ('A' for Active; 'I' for Inactive)
REMARK    1  A    between atoms: C7_7  and  N1_8 
REMARK    2  A    between atoms: N1_8  and  C8_9 
REMARK    3  A    between atoms: C9_10  and  C10_11 
REMARK    4  A    between atoms: N4_17  and  C14_18 
ROOT
HETATM    1  C10 UNL     1      22.099   2.202  51.999  1.00  0.00     0.151 C 
HETATM    2  C11 UNL     1      21.566   3.604  52.106  1.00  0.00     0.120 C 
HETATM    3  N2  UNL     1      21.496   4.438  51.096  1.00  0.00    -0.256 NA
HETATM    4  C12 UNL     1      21.896   4.203  49.732  1.00  0.00     0.228 C 
HETATM    5  N3  UNL     1      22.208   3.134  49.103  1.00  0.00    -0.263 NA
HETATM    6  C13 UNL     1      22.281   1.728  49.531  1.00  0.00     0.275 C 
HETATM    7  N4  UNL     1      21.532   1.681  50.770  1.00  0.00    -0.350 N 
ENDROOT
BRANCH   1   8
HETATM    8  C9  UNL     1      23.592   2.234  51.952  1.00  0.00     0.020 C 
HETATM    9  C8  UNL     1      24.285   1.890  53.023  1.00  0.00     0.086 C 
BRANCH   9  10
HETATM   10  N1  UNL     1      25.701   1.848  53.203  1.00  0.00    -0.366 N 
HETATM   11  H8  UNL     1      26.006   2.826  53.387  1.00  0.00     0.165 HD
BRANCH  10  12
HETATM   12  C7  UNL     1      26.648   0.816  53.178  1.00  0.00     0.037 A 
HETATM   13  C2  UNL     1      27.994   1.074  53.399  1.00  0.00    -0.035 A 
HETATM   14  C1  UNL     1      28.478   2.440  53.668  1.00  0.00     0.050 C 
HETATM   15  C3  UNL     1      28.823  -0.009  53.350  1.00  0.00     0.009 A 
HETATM   16  C4  UNL     1      28.370  -1.300  53.096  1.00  0.00     0.001 A 
HETATM   17  C5  UNL     1      27.025  -1.528  52.881  1.00  0.00     0.002 A 
HETATM   18  C6  UNL     1      26.155  -0.452  52.922  1.00  0.00     0.030 A 
ENDBRANCH  10  12
ENDBRANCH   9  10
ENDBRANCH   1   8
BRANCH   7  19
HETATM   19  C14 UNL     1      20.225   1.138  50.849  1.00  0.00     0.033 A 
HETATM   20  C15 UNL     1      19.179   1.420  50.006  1.00  0.00     0.029 A 
HETATM   21  C16 UNL     1      17.918   0.897  50.095  1.00  0.00     0.004 A 
HETATM   22  C17 UNL     1      17.650   0.001  51.119  1.00  0.00     0.019 A 
HETATM   23  C18 UNL     1      18.684  -0.308  51.992  1.00  0.00     0.013 A 
HETATM   24 BR1  UNL     1      18.227  -1.541  53.361  1.00  0.00    -0.051 Br
HETATM   25  C19 UNL     1      19.937   0.249  51.856  1.00  0.00     0.048 A 
ENDBRANCH   7  19
TORSDOF 4
ENDMDL
MODEL 8
REMARK VINA RESULT:      -7.4      4.048      9.097
REMARK  4 active torsions:
REMARK  status: ('A' for Active; 'I' for Inactive)
REMARK    1  A    between atoms: C7_7  and  N1_8 
REMARK    2  A    between atoms: N1_8  and  C8_9 
REMARK    3  A    between atoms: C9_10  and  C10_11 
REMARK    4  A    between atoms: N4_17  and  C14_18 
ROOT
HETATM    1  C10 UNL     1      21.533   0.565  51.054  1.00  0.00     0.151 C 
HETATM    2  C11 UNL     1      21.432   0.839  49.578  1.00  0.00     0.120 C 
HETATM    3  N2  UNL     1      21.056   1.989  49.073  1.00  0.00    -0.256 NA
HETATM    4  C12 UNL     1      20.676   3.181  49.786  1.00  0.00     0.228 C 
HETATM    5  N3  UNL     1      20.790   3.517  51.015  1.00  0.00    -0.263 NA
HETATM    6  C13 UNL     1      21.354   2.813  52.177  1.00  0.00     0.275 C 
HETATM    7  N4  UNL     1      22.157   1.750  51.609  1.00  0.00    -0.350 N 
ENDROOT
BRANCH   1   8
HETATM    8  C9  UNL     1      20.167   0.340  51.618  1.00  0.00     0.020 C 
HETATM    9  C8  UNL     1      20.030  -0.345  52.739  1.00  0.00     0.086 C 
BRANCH   9  10
HETATM   10  N1  UNL     1      18.837  -0.678  53.450  1.00  0.00    -0.366 N 
HETATM   11  H8  UNL     1      18.810  -0.062  54.289  1.00  0.00     0.165 HD
BRANCH  10  12
HETATM   12  C7  UNL     1      17.806  -1.600  53.229  1.00  0.00     0.037 A 
HETATM   13  C2  UNL     1      16.677  -1.250  52.501  1.00  0.00    -0.035 A 
HETATM   14  C1  UNL     1      16.519   0.101  51.935  1.00  0.00     0.050 C 
HETATM   15  C3  UNL     1      15.739  -2.230  52.351  1.00  0.00     0.009 A 
HETATM   16  C4  UNL     1      15.885  -3.507  52.885  1.00  0.00     0.001 A 
HETATM   17  C5  UNL     1      17.019  -3.828  53.604  1.00  0.00     0.002 A 
HETATM   18  C6  UNL     1      17.991  -2.858  53.777  1.00  0.00     0.030 A 
ENDBRANCH  10  12
ENDBRANCH   9  10
ENDBRANCH   1   8
BRANCH   7  19
HETATM   19  C14 UNL     1      23.573   1.808  51.562  1.00  0.00     0.033 A 
HETATM   20  C15 UNL     1      24.322   2.744  50.894  1.00  0.00     0.029 A 
HETATM   21  C16 UNL     1      25.688   2.788  50.846  1.00  0.00     0.004 A 
HETATM   22  C17 UNL     1      26.400   1.810  51.525  1.00  0.00     0.019 A 
HETATM   23  C18 UNL     1      25.675   0.845  52.212  1.00  0.00     0.013 A 
HETATM   24 BR1  UNL     1      26.730  -0.452  53.111  1.00  0.00    -0.051 Br
HETATM   25  C19 UNL     1      24.298   0.849  52.227  1.00  0.00     0.048 A 
ENDBRANCH   7  19
TORSDOF 4
ENDMDL
MODEL 9
REMARK VINA RESULT:      -7.3      3.520      7.907
REMARK  4 active torsions:
REMARK  status: ('A' for Active; 'I' for Inactive)
REMARK    1  A    between atoms: C7_7  and  N1_8 
REMARK    2  A    between atoms: N1_8  and  C8_9 
REMARK    3  A    between atoms: C9_10  and  C10_11 
REMARK    4  A    between atoms: N4_17  and  C14_18 
ROOT
HETATM    1  C10 UNL     1      24.601   4.147  49.453  1.00  0.00     0.151 C 
HETATM    2  C11 UNL     1      23.273   4.021  48.757  1.00  0.00     0.120 C 
HETATM    3  N2  UNL     1      22.172   4.599  49.175  1.00  0.00    -0.256 NA
HETATM    4  C12 UNL     1      22.004   5.437  50.334  1.00  0.00     0.228 C 
HETATM    5  N3  UNL     1      22.847   5.999  51.114  1.00  0.00    -0.263 NA
HETATM    6  C13 UNL     1      24.318   6.006  51.129  1.00  0.00     0.275 C 
HETATM    7  N4  UNL     1      24.702   5.548  49.810  1.00  0.00    -0.350 N 
ENDROOT
BRANCH   1   8
HETATM    8  C9  UNL     1      24.622   3.263  50.658  1.00  0.00     0.020 C 
HETATM    9  C8  UNL     1      25.702   2.551  50.925  1.00  0.00     0.086 C 
BRANCH   9  10
HETATM   10  N1  UNL     1      25.942   1.651  52.007  1.00  0.00    -0.366 N 
HETATM   11  H8  UNL     1      25.021   1.232  52.255  1.00  0.00     0.165 HD
BRANCH  10  12
HETATM   12  C7  UNL     1      27.091   1.276  52.716  1.00  0.00     0.037 A 
HETATM   13  C2  UNL     1      27.423  -0.061  52.883  1.00  0.00    -0.035 A 
HETATM   14  C1  UNL     1      26.584  -1.136  52.326  1.00  0.00     0.050 C 
HETATM   15  C3  UNL     1      28.565  -0.306  53.591  1.00  0.00     0.009 A 
HETATM   16  C4  UNL     1      29.360   0.707  54.120  1.00  0.00     0.001 A 
HETATM   17  C5  UNL     1      29.006   2.028  53.937  1.00  0.00     0.002 A 
HETATM   18  C6  UNL     1      27.853   2.313  53.224  1.00  0.00     0.030 A 
ENDBRANCH  10  12
ENDBRANCH   9  10
ENDBRANCH   1   8
BRANCH   7  19
HETATM   19  C14 UNL     1      25.186   6.429  48.810  1.00  0.00     0.033 A 
HETATM   20  C15 UNL     1      24.424   7.258  48.024  1.00  0.00     0.029 A 
HETATM   21  C16 UNL     1      24.898   8.099  47.055  1.00  0.00     0.004 A 
HETATM   22  C17 UNL     1      26.266   8.134  46.829  1.00  0.00     0.019 A 
HETATM   23  C18 UNL     1      27.069   7.308  47.605  1.00  0.00     0.013 A 
HETATM   24 BR1  UNL     1      28.925   7.420  47.226  1.00  0.00    -0.051 Br
HETATM   25  C19 UNL     1      26.537   6.479  48.568  1.00  0.00     0.048 A 
ENDBRANCH   7  19
TORSDOF 4
ENDMDL
