MODEL 1
REMARK VINA RESULT:      -7.3      0.000      0.000
REMARK  9 active torsions:
REMARK  status: ('A' for Active; 'I' for Inactive)
REMARK    1  A    between atoms: O1_2  and  C2_3 
REMARK    2  A    between atoms: C2_3  and  C3_4 
REMARK    3  A    between atoms: C3_4  and  O2_5 
REMARK    4  A    between atoms: O2_5  and  C4_6 
REMARK    5  A    between atoms: C8_12  and  N3_13 
REMARK    6  A    between atoms: N3_13  and  C9_14 
REMARK    7  A    between atoms: C9_14  and  C10_15 
REMARK    8  A    between atoms: C17_23  and  C18_24 
REMARK    9  A    between atoms: C18_24  and  O4_25 
ROOT
HETATM    1  C4  UNL     1      25.572   1.031  52.355  1.00  0.00     0.080 A 
HETATM    2  C5  UNL     1      25.161   0.231  53.323  1.00  0.00     0.069 A 
HETATM    3  C6  UNL     1      23.733  -0.012  53.384  1.00  0.00     0.093 A 
HETATM    4  N1  UNL     1      23.483  -0.803  54.371  1.00  0.00    -0.239 NA
HETATM    5  C7  UNL     1      22.310  -1.412  54.953  1.00  0.00     0.236 A 
HETATM    6  N2  UNL     1      21.042  -1.386  54.694  1.00  0.00    -0.225 NA
HETATM    7  C8  UNL     1      20.184  -0.757  53.720  1.00  0.00     0.125 A 
HETATM    8  C14 UNL     1      20.399   0.058  52.698  1.00  0.00     0.053 A 
HETATM    9  C15 UNL     1      21.606   0.656  52.135  1.00  0.00     0.043 A 
HETATM   10  C16 UNL     1      22.900   0.641  52.386  1.00  0.00     0.098 A 
HETATM   11  O3  UNL     1      23.403   1.466  51.403  1.00  0.00    -0.335 OA
HETATM   12  C17 UNL     1      24.787   1.727  51.307  1.00  0.00     0.209 A 
ENDROOT
BRANCH   7  13
HETATM   13  N3  UNL     1      18.832  -1.145  53.983  1.00  0.00    -0.371 N 
HETATM   14  H10 UNL     1      18.447  -0.869  54.935  1.00  0.00     0.161 HD
BRANCH  13  15
HETATM   15  C9  UNL     1      17.978  -1.871  53.061  1.00  0.00     0.148 C 
BRANCH  15  16
HETATM   16  C10 UNL     1      17.671  -3.230  53.621  1.00  0.00    -0.005 C 
HETATM   17  C11 UNL     1      16.503  -3.816  53.330  1.00  0.00    -0.090 C 
HETATM   18  C12 UNL     1      16.228  -5.162  53.900  1.00  0.00     0.042 C 
HETATM   19  C13 UNL     1      15.529  -3.130  52.466  1.00  0.00     0.042 C 
ENDBRANCH  15  16
ENDBRANCH  13  15
ENDBRANCH   7  13
BRANCH  12  20
HETATM   20  C18 UNL     1      24.913   3.233  51.424  1.00  0.00     0.206 C 
BRANCH  20  21
HETATM   21  O4  UNL     1      24.147   3.811  52.392  1.00  0.00    -0.393 OA
HETATM   22  C19 UNL     1      23.432   4.925  52.041  1.00  0.00     0.201 C 
ENDBRANCH  20  21
ENDBRANCH  12  20
BRANCH   1  23
HETATM   23  O2  UNL     1      26.949   1.173  52.418  1.00  0.00    -0.350 OA
BRANCH  23  24
HETATM   24  C3  UNL     1      27.660   1.857  53.429  1.00  0.00     0.201 C 
BRANCH  24  25
HETATM   25  C2  UNL     1      28.947   1.218  53.793  1.00  0.00     0.193 C 
BRANCH  25  26
HETATM   26  O1  UNL     1      28.824  -0.103  54.159  1.00  0.00    -0.394 OA
HETATM   27  C1  UNL     1      29.769  -0.903  53.565  1.00  0.00     0.201 C 
ENDBRANCH  25  26
ENDBRANCH  24  25
ENDBRANCH  23  24
ENDBRANCH   1  23
TORSDOF 9
ENDMDL
MODEL 2
REMARK VINA RESULT:      -7.1      1.746      3.701
REMARK  9 active torsions:
REMARK  status: ('A' for Active; 'I' for Inactive)
REMARK    1  A    between atoms: O1_2  and  C2_3 
REMARK    2  A    between atoms: C2_3  and  C3_4 
REMARK    3  A    between atoms: C3_4  and  O2_5 
REMARK    4  A    between atoms: O2_5  and  C4_6 
REMARK    5  A    between atoms: C8_12  and  N3_13 
REMARK    6  A    between atoms: N3_13  and  C9_14 
REMARK    7  A    between atoms: C9_14  and  C10_15 
REMARK    8  A    between atoms: C17_23  and  C18_24 
REMARK    9  A    between atoms: C18_24  and  O4_25 
ROOT
HETATM    1  C4  UNL     1      24.851   1.205  52.284  1.00  0.00     0.080 A 
HETATM    2  C5  UNL     1      23.665   1.393  51.732  1.00  0.00     0.069 A 
HETATM    3  C6  UNL     1      22.565   0.652  52.320  1.00  0.00     0.093 A 
HETATM    4  N1  UNL     1      21.480   0.933  51.683  1.00  0.00    -0.239 NA
HETATM    5  C7  UNL     1      20.091   0.549  51.763  1.00  0.00     0.236 A 
HETATM    6  N2  UNL     1      19.402  -0.241  52.522  1.00  0.00    -0.225 NA
HETATM    7  C8  UNL     1      19.665  -1.111  53.642  1.00  0.00     0.125 A 
HETATM    8  C14 UNL     1      20.758  -1.427  54.321  1.00  0.00     0.053 A 
HETATM    9  C15 UNL     1      22.155  -1.017  54.212  1.00  0.00     0.043 A 
HETATM   10  C16 UNL     1      22.871  -0.217  53.447  1.00  0.00     0.098 A 
HETATM   11  O3  UNL     1      24.138  -0.361  53.969  1.00  0.00    -0.335 OA
HETATM   12  C17 UNL     1      25.236   0.343  53.428  1.00  0.00     0.209 A 
ENDROOT
BRANCH   7  13
HETATM   13  N3  UNL     1      18.438  -1.726  54.042  1.00  0.00    -0.371 N 
HETATM   14  H10 UNL     1      18.207  -1.671  55.079  1.00  0.00     0.161 HD
BRANCH  13  15
HETATM   15  C9  UNL     1      17.513  -2.401  53.151  1.00  0.00     0.148 C 
BRANCH  15  16
HETATM   16  C10 UNL     1      17.156  -3.746  53.718  1.00  0.00    -0.005 C 
HETATM   17  C11 UNL     1      16.051  -4.370  53.290  1.00  0.00    -0.090 C 
HETATM   18  C12 UNL     1      15.724  -5.700  53.872  1.00  0.00     0.042 C 
HETATM   19  C13 UNL     1      15.196  -3.741  52.272  1.00  0.00     0.042 C 
ENDBRANCH  15  16
ENDBRANCH  13  15
ENDBRANCH   7  13
BRANCH  12  20
HETATM   20  C18 UNL     1      26.224  -0.728  53.011  1.00  0.00     0.206 C 
BRANCH  20  21
HETATM   21  O4  UNL     1      27.224  -0.981  53.902  1.00  0.00    -0.393 OA
HETATM   22  C19 UNL     1      27.761   0.092  54.560  1.00  0.00     0.201 C 
ENDBRANCH  20  21
ENDBRANCH  12  20
BRANCH   1  23
HETATM   23  O2  UNL     1      25.800   1.970  51.625  1.00  0.00    -0.350 OA
BRANCH  23  24
HETATM   24  C3  UNL     1      25.536   3.129  50.862  1.00  0.00     0.201 C 
BRANCH  24  25
HETATM   25  C2  UNL     1      26.578   3.433  49.853  1.00  0.00     0.193 C 
BRANCH  25  26
HETATM   26  O1  UNL     1      26.327   4.574  49.126  1.00  0.00    -0.394 OA
HETATM   27  C1  UNL     1      25.657   5.525  49.856  1.00  0.00     0.201 C 
ENDBRANCH  25  26
ENDBRANCH  24  25
ENDBRANCH  23  24
ENDBRANCH   1  23
TORSDOF 9
ENDMDL
MODEL 3
REMARK VINA RESULT:      -7.0      4.391      9.507
REMARK  9 active torsions:
REMARK  status: ('A' for Active; 'I' for Inactive)
REMARK    1  A    between atoms: O1_2  and  C2_3 
REMARK    2  A    between atoms: C2_3  and  C3_4 
REMARK    3  A    between atoms: C3_4  and  O2_5 
REMARK    4  A    between atoms: O2_5  and  C4_6 
REMARK    5  A    between atoms: C8_12  and  N3_13 
REMARK    6  A    between atoms: N3_13  and  C9_14 
REMARK    7  A    between atoms: C9_14  and  C10_15 
REMARK    8  A    between atoms: C17_23  and  C18_24 
REMARK    9  A    between atoms: C18_24  and  O4_25 
ROOT
HETATM    1  C4  UNL     1      25.156   0.803  52.957  1.00  0.00     0.080 A 
HETATM    2  C5  UNL     1      24.419   1.899  52.904  1.00  0.00     0.069 A 
HETATM    3  C6  UNL     1      24.806   2.877  51.905  1.00  0.00     0.093 A 
HETATM    4  N1  UNL     1      24.004   3.884  51.970  1.00  0.00    -0.239 NA
HETATM    5  C7  UNL     1      23.846   5.143  51.281  1.00  0.00     0.236 A 
HETATM    6  N2  UNL     1      24.470   5.743  50.318  1.00  0.00    -0.225 NA
HETATM    7  C8  UNL     1      25.603   5.465  49.470  1.00  0.00     0.125 A 
HETATM    8  C14 UNL     1      26.448   4.450  49.372  1.00  0.00     0.053 A 
HETATM    9  C15 UNL     1      26.578   3.186  50.089  1.00  0.00     0.043 A 
HETATM   10  C16 UNL     1      25.954   2.562  51.070  1.00  0.00     0.098 A 
HETATM   11  O3  UNL     1      26.677   1.394  51.185  1.00  0.00    -0.335 OA
HETATM   12  C17 UNL     1      26.332   0.414  52.143  1.00  0.00     0.209 A 
ENDROOT
BRANCH   7  13
HETATM   13  N3  UNL     1      25.786   6.566  48.575  1.00  0.00    -0.371 N 
HETATM   14  H10 UNL     1      25.135   6.595  47.735  1.00  0.00     0.161 HD
BRANCH  13  15
HETATM   15  C9  UNL     1      26.775   7.615  48.736  1.00  0.00     0.148 C 
BRANCH  15  16
HETATM   16  C10 UNL     1      27.267   8.056  47.387  1.00  0.00    -0.005 C 
HETATM   17  C11 UNL     1      28.449   7.614  46.938  1.00  0.00    -0.090 C 
HETATM   18  C12 UNL     1      28.908   8.069  45.598  1.00  0.00     0.042 C 
HETATM   19  C13 UNL     1      29.257   6.702  47.763  1.00  0.00     0.042 C 
ENDBRANCH  15  16
ENDBRANCH  13  15
ENDBRANCH   7  13
BRANCH  12  20
HETATM   20  C18 UNL     1      27.572   0.247  52.999  1.00  0.00     0.206 C 
BRANCH  20  21
HETATM   21  O4  UNL     1      28.112  -1.005  53.010  1.00  0.00    -0.393 OA
HETATM   22  C19 UNL     1      29.379  -1.135  53.511  1.00  0.00     0.201 C 
ENDBRANCH  20  21
ENDBRANCH  12  20
BRANCH   1  23
HETATM   23  O2  UNL     1      24.675  -0.036  53.950  1.00  0.00    -0.350 OA
BRANCH  23  24
HETATM   24  C3  UNL     1      23.452  -0.740  53.910  1.00  0.00     0.201 C 
BRANCH  24  25
HETATM   25  C2  UNL     1      23.060  -1.336  55.210  1.00  0.00     0.193 C 
BRANCH  25  26
HETATM   26  O1  UNL     1      21.789  -1.862  55.214  1.00  0.00    -0.394 OA
HETATM   27  C1  UNL     1      21.043  -1.444  54.139  1.00  0.00     0.201 C 
ENDBRANCH  25  26
ENDBRANCH  24  25
ENDBRANCH  23  24
ENDBRANCH   1  23
TORSDOF 9
ENDMDL
MODEL 4
REMARK VINA RESULT:      -6.8      1.294      1.837
REMARK  9 active torsions:
REMARK  status: ('A' for Active; 'I' for Inactive)
REMARK    1  A    between atoms: O1_2  and  C2_3 
REMARK    2  A    between atoms: C2_3  and  C3_4 
REMARK    3  A    between atoms: C3_4  and  O2_5 
REMARK    4  A    between atoms: O2_5  and  C4_6 
REMARK    5  A    between atoms: C8_12  and  N3_13 
REMARK    6  A    between atoms: N3_13  and  C9_14 
REMARK    7  A    between atoms: C9_14  and  C10_15 
REMARK    8  A    between atoms: C17_23  and  C18_24 
REMARK    9  A    between atoms: C18_24  and  O4_25 
ROOT
HETATM    1  C4  UNL     1      25.804   1.009  52.365  1.00  0.00     0.080 A 
HETATM    2  C5  UNL     1      25.376   0.234  53.347  1.00  0.00     0.069 A 
HETATM    3  C6  UNL     1      23.944   0.006  53.400  1.00  0.00     0.093 A 
HETATM    4  N1  UNL     1      23.677  -0.761  54.401  1.00  0.00    -0.239 NA
HETATM    5  C7  UNL     1      22.493  -1.345  54.985  1.00  0.00     0.236 A 
HETATM    6  N2  UNL     1      21.228  -1.313  54.713  1.00  0.00    -0.225 NA
HETATM    7  C8  UNL     1      20.385  -0.697  53.717  1.00  0.00     0.125 A 
HETATM    8  C14 UNL     1      20.619   0.093  52.680  1.00  0.00     0.053 A 
HETATM    9  C15 UNL     1      21.836   0.667  52.115  1.00  0.00     0.043 A 
HETATM   10  C16 UNL     1      23.128   0.645  52.380  1.00  0.00     0.098 A 
HETATM   11  O3  UNL     1      23.648   1.443  51.383  1.00  0.00    -0.335 OA
HETATM   12  C17 UNL     1      25.036   1.689  51.295  1.00  0.00     0.209 A 
ENDROOT
BRANCH   7  13
HETATM   13  N3  UNL     1      19.027  -1.065  53.976  1.00  0.00    -0.371 N 
HETATM   14  H10 UNL     1      18.661  -0.835  54.947  1.00  0.00     0.161 HD
BRANCH  13  15
HETATM   15  C9  UNL     1      18.144  -1.715  53.026  1.00  0.00     0.148 C 
BRANCH  15  16
HETATM   16  C10 UNL     1      16.861  -0.941  52.917  1.00  0.00    -0.005 C 
HETATM   17  C11 UNL     1      16.624  -0.207  51.823  1.00  0.00    -0.090 C 
HETATM   18  C12 UNL     1      15.344   0.548  51.746  1.00  0.00     0.042 C 
HETATM   19  C13 UNL     1      17.614  -0.161  50.736  1.00  0.00     0.042 C 
ENDBRANCH  15  16
ENDBRANCH  13  15
ENDBRANCH   7  13
BRANCH  12  20
HETATM   20  C18 UNL     1      25.176   3.196  51.380  1.00  0.00     0.206 C 
BRANCH  20  21
HETATM   21  O4  UNL     1      24.249   3.910  50.682  1.00  0.00    -0.393 OA
HETATM   22  C19 UNL     1      24.674   4.542  49.544  1.00  0.00     0.201 C 
ENDBRANCH  20  21
ENDBRANCH  12  20
BRANCH   1  23
HETATM   23  O2  UNL     1      27.182   1.138  52.438  1.00  0.00    -0.350 OA
BRANCH  23  24
HETATM   24  C3  UNL     1      27.887   1.893  53.402  1.00  0.00     0.201 C 
BRANCH  24  25
HETATM   25  C2  UNL     1      29.063   1.193  53.970  1.00  0.00     0.193 C 
BRANCH  25  26
HETATM   26  O1  UNL     1      28.845  -0.145  54.209  1.00  0.00    -0.394 OA
HETATM   27  C1  UNL     1      29.879  -0.933  53.767  1.00  0.00     0.201 C 
ENDBRANCH  25  26
ENDBRANCH  24  25
ENDBRANCH  23  24
ENDBRANCH   1  23
TORSDOF 9
ENDMDL
MODEL 5
REMARK VINA RESULT:      -6.6      4.085      7.539
REMARK  9 active torsions:
REMARK  status: ('A' for Active; 'I' for Inactive)
REMARK    1  A    between atoms: O1_2  and  C2_3 
REMARK    2  A    between atoms: C2_3  and  C3_4 
REMARK    3  A    between atoms: C3_4  and  O2_5 
REMARK    4  A    between atoms: O2_5  and  C4_6 
REMARK    5  A    between atoms: C8_12  and  N3_13 
REMARK    6  A    between atoms: N3_13  and  C9_14 
REMARK    7  A    between atoms: C9_14  and  C10_15 
REMARK    8  A    between atoms: C17_23  and  C18_24 
REMARK    9  A    between atoms: C18_24  and  O4_25 
ROOT
HETATM    1  C4  UNL     1      26.125   0.542  52.313  1.00  0.00     0.080 A 
HETATM    2  C5  UNL     1      26.412   1.436  51.381  1.00  0.00     0.069 A 
HETATM    3  C6  UNL     1      25.658   2.674  51.435  1.00  0.00     0.093 A 
HETATM    4  N1  UNL     1      26.042   3.441  50.472  1.00  0.00    -0.239 NA
HETATM    5  C7  UNL     1      25.704   4.759  49.987  1.00  0.00     0.236 A 
HETATM    6  N2  UNL     1      24.869   5.680  50.346  1.00  0.00    -0.225 NA
HETATM    7  C8  UNL     1      23.883   5.853  51.384  1.00  0.00     0.125 A 
HETATM    8  C14 UNL     1      23.461   5.094  52.384  1.00  0.00     0.053 A 
HETATM    9  C15 UNL     1      23.826   3.760  52.848  1.00  0.00     0.043 A 
HETATM   10  C16 UNL     1      24.671   2.811  52.495  1.00  0.00     0.098 A 
HETATM   11  O3  UNL     1      24.428   1.831  53.433  1.00  0.00    -0.335 OA
HETATM   12  C17 UNL     1      25.140   0.612  53.418  1.00  0.00     0.209 A 
ENDROOT
BRANCH   7  13
HETATM   13  N3  UNL     1      23.278   7.140  51.230  1.00  0.00    -0.371 N 
HETATM   14  H10 UNL     1      23.286   7.763  52.092  1.00  0.00     0.161 HD
BRANCH  13  15
HETATM   15  C9  UNL     1      22.671   7.636  50.009  1.00  0.00     0.148 C 
BRANCH  15  16
HETATM   16  C10 UNL     1      21.224   7.952  50.256  1.00  0.00    -0.005 C 
HETATM   17  C11 UNL     1      20.667   9.011  49.656  1.00  0.00    -0.090 C 
HETATM   18  C12 UNL     1      19.232   9.298  49.922  1.00  0.00     0.042 C 
HETATM   19  C13 UNL     1      21.470   9.858  48.760  1.00  0.00     0.042 C 
ENDBRANCH  15  16
ENDBRANCH  13  15
ENDBRANCH   7  13
BRANCH  12  20
HETATM   20  C18 UNL     1      24.080  -0.463  53.289  1.00  0.00     0.206 C 
BRANCH  20  21
HETATM   21  O4  UNL     1      23.590  -0.948  54.465  1.00  0.00    -0.393 OA
HETATM   22  C19 UNL     1      22.234  -1.106  54.560  1.00  0.00     0.201 C 
ENDBRANCH  20  21
ENDBRANCH  12  20
BRANCH   1  23
HETATM   23  O2  UNL     1      26.916  -0.583  52.140  1.00  0.00    -0.350 OA
BRANCH  23  24
HETATM   24  C3  UNL     1      27.657  -1.230  53.153  1.00  0.00     0.201 C 
BRANCH  24  25
HETATM   25  C2  UNL     1      28.937  -0.559  53.482  1.00  0.00     0.193 C 
BRANCH  25  26
HETATM   26  O1  UNL     1      28.865   0.253  54.591  1.00  0.00    -0.394 OA
HETATM   27  C1  UNL     1      29.124   1.569  54.295  1.00  0.00     0.201 C 
ENDBRANCH  25  26
ENDBRANCH  24  25
ENDBRANCH  23  24
ENDBRANCH   1  23
TORSDOF 9
ENDMDL
MODEL 6
REMARK VINA RESULT:      -6.6      2.129      4.245
REMARK  9 active torsions:
REMARK  status: ('A' for Active; 'I' for Inactive)
REMARK    1  A    between atoms: O1_2  and  C2_3 
REMARK    2  A    between atoms: C2_3  and  C3_4 
REMARK    3  A    between atoms: C3_4  and  O2_5 
REMARK    4  A    between atoms: O2_5  and  C4_6 
REMARK    5  A    between atoms: C8_12  and  N3_13 
REMARK    6  A    between atoms: N3_13  and  C9_14 
REMARK    7  A    between atoms: C9_14  and  C10_15 
REMARK    8  A    between atoms: C17_23  and  C18_24 
REMARK    9  A    between atoms: C18_24  and  O4_25 
ROOT
HETATM    1  C4  UNL     1      24.627   2.859  50.426  1.00  0.00     0.080 A 
HETATM    2  C5  UNL     1      23.441   2.471  49.990  1.00  0.00     0.069 A 
HETATM    3  C6  UNL     1      22.631   1.720  50.930  1.00  0.00     0.093 A 
HETATM    4  N1  UNL     1      21.512   1.413  50.369  1.00  0.00    -0.239 NA
HETATM    5  C7  UNL     1      20.314   0.700  50.746  1.00  0.00     0.236 A 
HETATM    6  N2  UNL     1      19.910   0.090  51.813  1.00  0.00    -0.225 NA
HETATM    7  C8  UNL     1      20.436  -0.179  53.129  1.00  0.00     0.125 A 
HETATM    8  C14 UNL     1      21.573   0.117  53.740  1.00  0.00     0.053 A 
HETATM    9  C15 UNL     1      22.770   0.843  53.326  1.00  0.00     0.043 A 
HETATM   10  C16 UNL     1      23.196   1.468  52.246  1.00  0.00     0.098 A 
HETATM   11  O3  UNL     1      24.446   1.906  52.630  1.00  0.00    -0.335 OA
HETATM   12  C17 UNL     1      25.265   2.642  51.747  1.00  0.00     0.209 A 
ENDROOT
BRANCH   7  13
HETATM   13  N3  UNL     1      19.464  -0.927  53.866  1.00  0.00    -0.371 N 
HETATM   14  H10 UNL     1      19.739  -1.195  54.857  1.00  0.00     0.161 HD
BRANCH  13  15
HETATM   15  C9  UNL     1      18.165  -1.331  53.362  1.00  0.00     0.148 C 
BRANCH  15  16
HETATM   16  C10 UNL     1      17.912  -2.769  53.713  1.00  0.00    -0.005 C 
HETATM   17  C11 UNL     1      16.784  -3.361  53.301  1.00  0.00    -0.090 C 
HETATM   18  C12 UNL     1      16.563  -4.787  53.666  1.00  0.00     0.042 C 
HETATM   19  C13 UNL     1      15.802  -2.606  52.509  1.00  0.00     0.042 C 
ENDBRANCH  15  16
ENDBRANCH  13  15
ENDBRANCH   7  13
BRANCH  12  20
HETATM   20  C18 UNL     1      26.539   1.830  51.623  1.00  0.00     0.206 C 
BRANCH  20  21
HETATM   21  O4  UNL     1      27.681   2.472  52.000  1.00  0.00    -0.393 OA
HETATM   22  C19 UNL     1      28.192   2.164  53.233  1.00  0.00     0.201 C 
ENDBRANCH  20  21
ENDBRANCH  12  20
BRANCH   1  23
HETATM   23  O2  UNL     1      25.286   3.560  49.429  1.00  0.00    -0.350 OA
BRANCH  23  24
HETATM   24  C3  UNL     1      25.991   4.772  49.605  1.00  0.00     0.201 C 
BRANCH  24  25
HETATM   25  C2  UNL     1      25.343   5.941  48.965  1.00  0.00     0.193 C 
BRANCH  25  26
HETATM   26  O1  UNL     1      24.060   5.694  48.535  1.00  0.00    -0.394 OA
HETATM   27  C1  UNL     1      23.117   6.335  49.301  1.00  0.00     0.201 C 
ENDBRANCH  25  26
ENDBRANCH  24  25
ENDBRANCH  23  24
ENDBRANCH   1  23
TORSDOF 9
ENDMDL
MODEL 7
REMARK VINA RESULT:      -6.3      4.241      9.504
REMARK  9 active torsions:
REMARK  status: ('A' for Active; 'I' for Inactive)
REMARK    1  A    between atoms: O1_2  and  C2_3 
REMARK    2  A    between atoms: C2_3  and  C3_4 
REMARK    3  A    between atoms: C3_4  and  O2_5 
REMARK    4  A    between atoms: O2_5  and  C4_6 
REMARK    5  A    between atoms: C8_12  and  N3_13 
REMARK    6  A    between atoms: N3_13  and  C9_14 
REMARK    7  A    between atoms: C9_14  and  C10_15 
REMARK    8  A    between atoms: C17_23  and  C18_24 
REMARK    9  A    between atoms: C18_24  and  O4_25 
ROOT
HETATM    1  C4  UNL     1      24.694   0.499  53.043  1.00  0.00     0.080 A 
HETATM    2  C5  UNL     1      23.906   1.497  52.682  1.00  0.00     0.069 A 
HETATM    3  C6  UNL     1      24.477   2.456  51.757  1.00  0.00     0.093 A 
HETATM    4  N1  UNL     1      23.599   3.364  51.498  1.00  0.00    -0.239 NA
HETATM    5  C7  UNL     1      23.535   4.556  50.685  1.00  0.00     0.236 A 
HETATM    6  N2  UNL     1      24.356   5.169  49.895  1.00  0.00    -0.225 NA
HETATM    7  C8  UNL     1      25.711   4.979  49.439  1.00  0.00     0.125 A 
HETATM    8  C14 UNL     1      26.640   4.066  49.679  1.00  0.00     0.053 A 
HETATM    9  C15 UNL     1      26.671   2.867  50.512  1.00  0.00     0.043 A 
HETATM   10  C16 UNL     1      25.846   2.231  51.321  1.00  0.00     0.098 A 
HETATM   11  O3  UNL     1      26.609   1.163  51.742  1.00  0.00    -0.335 OA
HETATM   12  C17 UNL     1      26.091   0.205  52.642  1.00  0.00     0.209 A 
ENDROOT
BRANCH   7  13
HETATM   13  N3  UNL     1      26.046   6.042  48.543  1.00  0.00    -0.371 N 
HETATM   14  H10 UNL     1      25.229   6.500  48.040  1.00  0.00     0.161 HD
BRANCH  13  15
HETATM   15  C9  UNL     1      27.391   6.521  48.282  1.00  0.00     0.148 C 
BRANCH  15  16
HETATM   16  C10 UNL     1      27.557   7.898  48.859  1.00  0.00    -0.005 C 
HETATM   17  C11 UNL     1      27.680   8.948  48.037  1.00  0.00    -0.090 C 
HETATM   18  C12 UNL     1      27.843  10.299  48.639  1.00  0.00     0.042 C 
HETATM   19  C13 UNL     1      27.651   8.751  46.579  1.00  0.00     0.042 C 
ENDBRANCH  15  16
ENDBRANCH  13  15
ENDBRANCH   7  13
BRANCH  12  20
HETATM   20  C18 UNL     1      27.030   0.232  53.831  1.00  0.00     0.206 C 
BRANCH  20  21
HETATM   21  O4  UNL     1      28.356   0.127  53.532  1.00  0.00    -0.393 OA
HETATM   22  C19 UNL     1      28.856  -1.134  53.346  1.00  0.00     0.201 C 
ENDBRANCH  20  21
ENDBRANCH  12  20
BRANCH   1  23
HETATM   23  O2  UNL     1      24.022  -0.334  53.924  1.00  0.00    -0.350 OA
BRANCH  23  24
HETATM   24  C3  UNL     1      22.808  -1.004  53.657  1.00  0.00     0.201 C 
BRANCH  24  25
HETATM   25  C2  UNL     1      21.874  -1.034  54.808  1.00  0.00     0.193 C 
BRANCH  25  26
HETATM   26  O1  UNL     1      21.143   0.122  54.955  1.00  0.00    -0.394 OA
HETATM   27  C1  UNL     1      20.477   0.472  53.806  1.00  0.00     0.201 C 
ENDBRANCH  25  26
ENDBRANCH  24  25
ENDBRANCH  23  24
ENDBRANCH   1  23
TORSDOF 9
ENDMDL
MODEL 8
REMARK VINA RESULT:      -6.3      6.031      8.232
REMARK  9 active torsions:
REMARK  status: ('A' for Active; 'I' for Inactive)
REMARK    1  A    between atoms: O1_2  and  C2_3 
REMARK    2  A    between atoms: C2_3  and  C3_4 
REMARK    3  A    between atoms: C3_4  and  O2_5 
REMARK    4  A    between atoms: O2_5  and  C4_6 
REMARK    5  A    between atoms: C8_12  and  N3_13 
REMARK    6  A    between atoms: N3_13  and  C9_14 
REMARK    7  A    between atoms: C9_14  and  C10_15 
REMARK    8  A    between atoms: C17_23  and  C18_24 
REMARK    9  A    between atoms: C18_24  and  O4_25 
ROOT
HETATM    1  C4  UNL     1      29.132   6.794  47.889  1.00  0.00     0.080 A 
HETATM    2  C5  UNL     1      28.885   5.576  48.342  1.00  0.00     0.069 A 
HETATM    3  C6  UNL     1      27.500   5.281  48.652  1.00  0.00     0.093 A 
HETATM    4  N1  UNL     1      27.414   4.068  49.080  1.00  0.00    -0.239 NA
HETATM    5  C7  UNL     1      26.361   3.193  49.538  1.00  0.00     0.236 A 
HETATM    6  N2  UNL     1      25.081   3.305  49.694  1.00  0.00    -0.225 NA
HETATM    7  C8  UNL     1      24.087   4.330  49.494  1.00  0.00     0.125 A 
HETATM    8  C14 UNL     1      24.133   5.581  49.060  1.00  0.00     0.053 A 
HETATM    9  C15 UNL     1      25.222   6.439  48.602  1.00  0.00     0.043 A 
HETATM   10  C16 UNL     1      26.526   6.342  48.439  1.00  0.00     0.098 A 
HETATM   11  O3  UNL     1      26.860   7.591  47.962  1.00  0.00    -0.335 OA
HETATM   12  C17 UNL     1      28.197   7.919  47.646  1.00  0.00     0.209 A 
ENDROOT
BRANCH   7  13
HETATM   13  N3  UNL     1      22.808   3.807  49.866  1.00  0.00    -0.371 N 
HETATM   14  H10 UNL     1      22.201   3.454  49.068  1.00  0.00     0.161 HD
BRANCH  13  15
HETATM   15  C9  UNL     1      22.302   3.730  51.223  1.00  0.00     0.148 C 
BRANCH  15  16
HETATM   16  C10 UNL     1      22.353   2.307  51.702  1.00  0.00    -0.005 C 
HETATM   17  C11 UNL     1      23.281   1.944  52.596  1.00  0.00    -0.090 C 
HETATM   18  C12 UNL     1      23.305   0.527  53.050  1.00  0.00     0.042 C 
HETATM   19  C13 UNL     1      24.242   2.934  53.105  1.00  0.00     0.042 C 
ENDBRANCH  15  16
ENDBRANCH  13  15
ENDBRANCH   7  13
BRANCH  12  20
HETATM   20  C18 UNL     1      28.526   9.115  48.516  1.00  0.00     0.206 C 
BRANCH  20  21
HETATM   21  O4  UNL     1      29.303  10.070  47.931  1.00  0.00    -0.393 OA
HETATM   22  C19 UNL     1      30.434  10.453  48.600  1.00  0.00     0.201 C 
ENDBRANCH  20  21
ENDBRANCH  12  20
BRANCH   1  23
HETATM   23  O2  UNL     1      30.487   6.933  47.637  1.00  0.00    -0.350 OA
BRANCH  23  24
HETATM   24  C3  UNL     1      31.520   6.793  48.591  1.00  0.00     0.201 C 
BRANCH  24  25
HETATM   25  C2  UNL     1      32.540   5.782  48.225  1.00  0.00     0.193 C 
BRANCH  25  26
HETATM   26  O1  UNL     1      32.110   4.484  48.376  1.00  0.00    -0.394 OA
HETATM   27  C1  UNL     1      32.250   3.747  47.226  1.00  0.00     0.201 C 
ENDBRANCH  25  26
ENDBRANCH  24  25
ENDBRANCH  23  24
ENDBRANCH   1  23
TORSDOF 9
ENDMDL
MODEL 9
REMARK VINA RESULT:      -6.3      4.249      8.725
REMARK  9 active torsions:
REMARK  status: ('A' for Active; 'I' for Inactive)
REMARK    1  A    between atoms: O1_2  and  C2_3 
REMARK    2  A    between atoms: C2_3  and  C3_4 
REMARK    3  A    between atoms: C3_4  and  O2_5 
REMARK    4  A    between atoms: O2_5  and  C4_6 
REMARK    5  A    between atoms: C8_12  and  N3_13 
REMARK    6  A    between atoms: N3_13  and  C9_14 
REMARK    7  A    between atoms: C9_14  and  C10_15 
REMARK    8  A    between atoms: C17_23  and  C18_24 
REMARK    9  A    between atoms: C18_24  and  O4_25 
ROOT
HETATM    1  C4  UNL     1      25.814   0.931  52.896  1.00  0.00     0.080 A 
HETATM    2  C5  UNL     1      26.591   1.474  51.974  1.00  0.00     0.069 A 
HETATM    3  C6  UNL     1      26.013   2.570  51.221  1.00  0.00     0.093 A 
HETATM    4  N1  UNL     1      26.878   2.995  50.366  1.00  0.00    -0.239 NA
HETATM    5  C7  UNL     1      26.931   4.023  49.353  1.00  0.00     0.236 A 
HETATM    6  N2  UNL     1      26.107   4.921  48.917  1.00  0.00    -0.225 NA
HETATM    7  C8  UNL     1      24.759   5.338  49.215  1.00  0.00     0.125 A 
HETATM    8  C14 UNL     1      23.842   4.930  50.079  1.00  0.00     0.053 A 
HETATM    9  C15 UNL     1      23.823   3.882  51.094  1.00  0.00     0.043 A 
HETATM   10  C16 UNL     1      24.650   2.961  51.549  1.00  0.00     0.098 A 
HETATM   11  O3  UNL     1      23.900   2.345  52.527  1.00  0.00    -0.335 OA
HETATM   12  C17 UNL     1      24.426   1.275  53.285  1.00  0.00     0.209 A 
ENDROOT
BRANCH   7  13
HETATM   13  N3  UNL     1      24.415   6.425  48.350  1.00  0.00    -0.371 N 
HETATM   14  H10 UNL     1      23.666   6.221  47.623  1.00  0.00     0.161 HD
BRANCH  13  15
HETATM   15  C9  UNL     1      25.006   7.749  48.399  1.00  0.00     0.148 C 
BRANCH  15  16
HETATM   16  C10 UNL     1      25.722   8.031  47.109  1.00  0.00    -0.005 C 
HETATM   17  C11 UNL     1      27.057   8.130  47.103  1.00  0.00    -0.090 C 
HETATM   18  C12 UNL     1      27.737   8.410  45.810  1.00  0.00     0.042 C 
HETATM   19  C13 UNL     1      27.815   7.963  48.353  1.00  0.00     0.042 C 
ENDBRANCH  15  16
ENDBRANCH  13  15
ENDBRANCH   7  13
BRANCH  12  20
HETATM   20  C18 UNL     1      23.476   0.118  53.044  1.00  0.00     0.206 C 
BRANCH  20  21
HETATM   21  O4  UNL     1      22.368   0.096  53.836  1.00  0.00    -0.393 OA
HETATM   22  C19 UNL     1      22.041  -1.098  54.421  1.00  0.00     0.201 C 
ENDBRANCH  20  21
ENDBRANCH  12  20
BRANCH   1  23
HETATM   23  O2  UNL     1      26.492  -0.098  53.531  1.00  0.00    -0.350 OA
BRANCH  23  24
HETATM   24  C3  UNL     1      27.460   0.060  54.548  1.00  0.00     0.201 C 
BRANCH  24  25
HETATM   25  C2  UNL     1      28.819  -0.384  54.157  1.00  0.00     0.193 C 
BRANCH  25  26
HETATM   26  O1  UNL     1      29.633   0.641  53.733  1.00  0.00    -0.394 OA
HETATM   27  C1  UNL     1      29.335   1.836  54.342  1.00  0.00     0.201 C 
ENDBRANCH  25  26
ENDBRANCH  24  25
ENDBRANCH  23  24
ENDBRANCH   1  23
TORSDOF 9
ENDMDL
