MODEL 1
REMARK VINA RESULT:      -8.2      0.000      0.000
REMARK  5 active torsions:
REMARK  status: ('A' for Active; 'I' for Inactive)
REMARK    1  A    between atoms: O1_2  and  C2_3 
REMARK    2  A    between atoms: N1_10  and  C8_11 
REMARK    3  A    between atoms: N2_12  and  C9_13 
REMARK    4  A    between atoms: C9_13  and  N3_14 
REMARK    5  A    between atoms: N3_14  and  C10_15 
ROOT
HETATM    1  C2  UNL     1      25.669   0.047  54.323  1.00  0.00     0.155 C 
HETATM    2  C3  UNL     1      26.824   0.733  54.923  1.00  0.00     0.200 C 
HETATM    3  O2  UNL     1      28.019   1.074  54.410  1.00  0.00    -0.387 OA
HETATM    4  C4  UNL     1      27.989   1.712  53.101  1.00  0.00     0.182 C 
HETATM    5  C5  UNL     1      26.681   1.114  52.586  1.00  0.00     0.017 A 
HETATM    6  C6  UNL     1      26.032   2.117  53.173  1.00  0.00     0.013 C 
HETATM    7  C7  UNL     1      24.547   2.187  52.772  1.00  0.00     0.034 C 
HETATM    8  N1  UNL     1      23.591   2.911  52.614  1.00  0.00    -0.247 NA
HETATM    9  C16 UNL     1      24.214   0.702  52.436  1.00  0.00     0.072 C 
HETATM   10  C17 UNL     1      25.586   0.094  52.758  1.00  0.00     0.012 A 
HETATM   11  C18 UNL     1      26.675  -0.276  52.139  1.00  0.00     0.019 A 
ENDROOT
BRANCH   8  12
HETATM   12  C8  UNL     1      23.517   4.324  52.803  1.00  0.00     0.228 C 
HETATM   13  N2  UNL     1      23.168   5.332  52.076  1.00  0.00    -0.263 NA
BRANCH  13  14
HETATM   14  C9  UNL     1      22.713   5.212  50.714  1.00  0.00     0.272 C 
BRANCH  14  15
HETATM   15  N3  UNL     1      23.445   4.260  49.935  1.00  0.00    -0.372 N 
HETATM   16  H13 UNL     1      22.935   3.386  49.680  1.00  0.00     0.161 HD
BRANCH  15  17
HETATM   17  C10 UNL     1      24.789   4.471  49.521  1.00  0.00     0.031 A 
HETATM   18  C11 UNL     1      25.704   3.447  49.665  1.00  0.00     0.032 A 
HETATM   19  C12 UNL     1      26.987   3.696  49.253  1.00  0.00     0.046 A 
HETATM   20  C13 UNL     1      27.392   4.915  48.706  1.00  0.00     0.138 A 
HETATM   21  F1  UNL     1      28.652   5.145  48.306  1.00  0.00    -0.204 F 
HETATM   22  C14 UNL     1      26.446   5.892  48.587  1.00  0.00     0.074 A 
HETATM   23 CL1  UNL     1      26.803   7.465  47.923  1.00  0.00    -0.081 Cl
HETATM   24  C15 UNL     1      25.146   5.689  48.987  1.00  0.00     0.056 A 
ENDBRANCH  15  17
ENDBRANCH  14  15
ENDBRANCH  13  14
ENDBRANCH   8  12
BRANCH   1  25
HETATM   25  O1  UNL     1      25.359  -1.186  54.837  1.00  0.00    -0.388 OA
HETATM   26  C1  UNL     1      24.175  -1.294  55.514  1.00  0.00     0.202 C 
ENDBRANCH   1  25
TORSDOF 5
ENDMDL
MODEL 2
REMARK VINA RESULT:      -8.0      3.485      5.005
REMARK  5 active torsions:
REMARK  status: ('A' for Active; 'I' for Inactive)
REMARK    1  A    between atoms: O1_2  and  C2_3 
REMARK    2  A    between atoms: N1_10  and  C8_11 
REMARK    3  A    between atoms: N2_12  and  C9_13 
REMARK    4  A    between atoms: C9_13  and  N3_14 
REMARK    5  A    between atoms: N3_14  and  C10_15 
ROOT
HETATM    1  C2  UNL     1      28.509  -0.184  53.310  1.00  0.00     0.155 C 
HETATM    2  C3  UNL     1      27.765  -1.346  52.801  1.00  0.00     0.200 C 
HETATM    3  O2  UNL     1      26.577  -1.865  53.158  1.00  0.00    -0.387 OA
HETATM    4  C4  UNL     1      25.489  -0.908  53.317  1.00  0.00     0.182 C 
HETATM    5  C5  UNL     1      26.320   0.325  53.665  1.00  0.00     0.017 A 
HETATM    6  C6  UNL     1      26.442   0.567  52.361  1.00  0.00     0.013 C 
HETATM    7  C7  UNL     1      27.049   1.950  52.062  1.00  0.00     0.034 C 
HETATM    8  N1  UNL     1      27.099   2.868  51.275  1.00  0.00    -0.247 NA
HETATM    9  C16 UNL     1      27.927   2.217  53.322  1.00  0.00     0.072 C 
HETATM   10  C17 UNL     1      27.656   0.898  54.058  1.00  0.00     0.012 A 
HETATM   11  C18 UNL     1      26.887   0.432  55.006  1.00  0.00     0.019 A 
ENDROOT
BRANCH   8  12
HETATM   12  C8  UNL     1      26.421   2.992  50.026  1.00  0.00     0.228 C 
HETATM   13  N2  UNL     1      25.485   3.748  49.558  1.00  0.00    -0.263 NA
BRANCH  13  14
HETATM   14  C9  UNL     1      24.837   4.780  50.326  1.00  0.00     0.272 C 
BRANCH  14  15
HETATM   15  N3  UNL     1      24.446   4.371  51.641  1.00  0.00    -0.372 N 
HETATM   16  H13 UNL     1      25.119   4.587  52.408  1.00  0.00     0.161 HD
BRANCH  15  17
HETATM   17  C10 UNL     1      23.217   3.708  51.911  1.00  0.00     0.031 A 
HETATM   18  C11 UNL     1      22.055   4.452  51.981  1.00  0.00     0.032 A 
HETATM   19  C12 UNL     1      20.896   3.770  52.244  1.00  0.00     0.046 A 
HETATM   20  C13 UNL     1      20.847   2.388  52.437  1.00  0.00     0.138 A 
HETATM   21  F1  UNL     1      19.704   1.734  52.692  1.00  0.00    -0.204 F 
HETATM   22  C14 UNL     1      22.026   1.703  52.356  1.00  0.00     0.074 A 
HETATM   23 CL1  UNL     1      22.122  -0.025  52.574  1.00  0.00    -0.081 Cl
HETATM   24  C15 UNL     1      23.214   2.343  52.095  1.00  0.00     0.056 A 
ENDBRANCH  15  17
ENDBRANCH  14  15
ENDBRANCH  13  14
ENDBRANCH   8  12
BRANCH   1  25
HETATM   25  O1  UNL     1      29.701  -0.450  53.935  1.00  0.00    -0.388 OA
HETATM   26  C1  UNL     1      30.143  -1.744  53.899  1.00  0.00     0.202 C 
ENDBRANCH   1  25
TORSDOF 5
ENDMDL
MODEL 3
REMARK VINA RESULT:      -7.9      3.461      4.372
REMARK  5 active torsions:
REMARK  status: ('A' for Active; 'I' for Inactive)
REMARK    1  A    between atoms: O1_2  and  C2_3 
REMARK    2  A    between atoms: N1_10  and  C8_11 
REMARK    3  A    between atoms: N2_12  and  C9_13 
REMARK    4  A    between atoms: C9_13  and  N3_14 
REMARK    5  A    between atoms: N3_14  and  C10_15 
ROOT
HETATM    1  C2  UNL     1      27.353  -0.559  53.738  1.00  0.00     0.155 C 
HETATM    2  C3  UNL     1      27.602   0.565  54.654  1.00  0.00     0.200 C 
HETATM    3  O2  UNL     1      27.577   1.894  54.456  1.00  0.00    -0.387 OA
HETATM    4  C4  UNL     1      26.424   2.404  53.725  1.00  0.00     0.182 C 
HETATM    5  C5  UNL     1      26.088   1.148  52.924  1.00  0.00     0.017 A 
HETATM    6  C6  UNL     1      25.348   0.734  53.951  1.00  0.00     0.013 C 
HETATM    7  C7  UNL     1      24.486  -0.495  53.611  1.00  0.00     0.034 C 
HETATM    8  N1  UNL     1      23.462  -1.092  53.855  1.00  0.00    -0.247 NA
HETATM    9  C16 UNL     1      25.316  -1.196  52.494  1.00  0.00     0.072 C 
HETATM   10  C17 UNL     1      26.503  -0.224  52.464  1.00  0.00     0.012 A 
HETATM   11  C18 UNL     1      26.924   0.805  51.777  1.00  0.00     0.019 A 
ENDROOT
BRANCH   8  12
HETATM   12  C8  UNL     1      22.447  -0.749  54.797  1.00  0.00     0.228 C 
HETATM   13  N2  UNL     1      21.371  -0.035  54.772  1.00  0.00    -0.263 NA
BRANCH  13  14
HETATM   14  C9  UNL     1      20.909   0.667  53.602  1.00  0.00     0.272 C 
BRANCH  14  15
HETATM   15  N3  UNL     1      21.200   0.001  52.368  1.00  0.00    -0.372 N 
HETATM   16  H13 UNL     1      21.104  -1.037  52.373  1.00  0.00     0.161 HD
BRANCH  15  17
HETATM   17  C10 UNL     1      21.599   0.695  51.192  1.00  0.00     0.031 A 
HETATM   18  C11 UNL     1      20.835   0.570  50.048  1.00  0.00     0.032 A 
HETATM   19  C12 UNL     1      21.258   1.255  48.940  1.00  0.00     0.046 A 
HETATM   20  C13 UNL     1      22.402   2.055  48.925  1.00  0.00     0.138 A 
HETATM   21  F1  UNL     1      22.804   2.721  47.832  1.00  0.00    -0.204 F 
HETATM   22  C14 UNL     1      23.120   2.142  50.084  1.00  0.00     0.074 A 
HETATM   23 CL1  UNL     1      24.570   3.102  50.217  1.00  0.00    -0.081 Cl
HETATM   24  C15 UNL     1      22.735   1.473  51.221  1.00  0.00     0.056 A 
ENDBRANCH  15  17
ENDBRANCH  14  15
ENDBRANCH  13  14
ENDBRANCH   8  12
BRANCH   1  25
HETATM   25  O1  UNL     1      28.424  -1.372  53.466  1.00  0.00    -0.388 OA
HETATM   26  C1  UNL     1      29.668  -0.865  53.725  1.00  0.00     0.202 C 
ENDBRANCH   1  25
TORSDOF 5
ENDMDL
MODEL 4
REMARK VINA RESULT:      -7.7      4.178      7.153
REMARK  5 active torsions:
REMARK  status: ('A' for Active; 'I' for Inactive)
REMARK    1  A    between atoms: O1_2  and  C2_3 
REMARK    2  A    between atoms: N1_10  and  C8_11 
REMARK    3  A    between atoms: N2_12  and  C9_13 
REMARK    4  A    between atoms: C9_13  and  N3_14 
REMARK    5  A    between atoms: N3_14  and  C10_15 
ROOT
HETATM    1  C2  UNL     1      25.113   5.036  50.049  1.00  0.00     0.155 C 
HETATM    2  C3  UNL     1      24.149   5.446  51.081  1.00  0.00     0.200 C 
HETATM    3  O2  UNL     1      22.952   4.944  51.430  1.00  0.00    -0.387 OA
HETATM    4  C4  UNL     1      22.892   3.496  51.579  1.00  0.00     0.182 C 
HETATM    5  C5  UNL     1      24.028   3.121  50.630  1.00  0.00     0.017 A 
HETATM    6  C6  UNL     1      24.877   3.265  51.645  1.00  0.00     0.013 C 
HETATM    7  C7  UNL     1      26.291   2.748  51.324  1.00  0.00     0.034 C 
HETATM    8  N1  UNL     1      27.305   2.271  51.779  1.00  0.00    -0.247 NA
HETATM    9  C16 UNL     1      26.377   2.930  49.778  1.00  0.00     0.072 C 
HETATM   10  C17 UNL     1      24.992   3.552  49.556  1.00  0.00     0.012 A 
HETATM   11  C18 UNL     1      23.791   3.191  49.191  1.00  0.00     0.019 A 
ENDROOT
BRANCH   8  12
HETATM   12  C8  UNL     1      27.590   1.946  53.139  1.00  0.00     0.228 C 
HETATM   13  N2  UNL     1      27.309   0.964  53.928  1.00  0.00    -0.263 NA
BRANCH  13  14
HETATM   14  C9  UNL     1      26.530  -0.181  53.529  1.00  0.00     0.272 C 
BRANCH  14  15
HETATM   15  N3  UNL     1      25.617  -0.643  54.531  1.00  0.00    -0.372 N 
HETATM   16  H13 UNL     1      26.038  -0.913  55.446  1.00  0.00     0.161 HD
BRANCH  15  17
HETATM   17  C10 UNL     1      24.214  -0.735  54.313  1.00  0.00     0.031 A 
HETATM   18  C11 UNL     1      23.417  -1.276  55.302  1.00  0.00     0.032 A 
HETATM   19  C12 UNL     1      22.072  -1.345  55.048  1.00  0.00     0.046 A 
HETATM   20  C13 UNL     1      21.494  -0.900  53.858  1.00  0.00     0.138 A 
HETATM   21  F1  UNL     1      20.175  -0.973  53.623  1.00  0.00    -0.204 F 
HETATM   22  C14 UNL     1      22.330  -0.374  52.915  1.00  0.00     0.074 A 
HETATM   23 CL1  UNL     1      21.754   0.223  51.381  1.00  0.00    -0.081 Cl
HETATM   24  C15 UNL     1      23.686  -0.284  53.124  1.00  0.00     0.056 A 
ENDBRANCH  15  17
ENDBRANCH  14  15
ENDBRANCH  13  14
ENDBRANCH   8  12
BRANCH   1  25
HETATM   25  O1  UNL     1      25.323   5.923  49.024  1.00  0.00    -0.388 OA
HETATM   26  C1  UNL     1      26.620   6.271  48.764  1.00  0.00     0.202 C 
ENDBRANCH   1  25
TORSDOF 5
ENDMDL
MODEL 5
REMARK VINA RESULT:      -7.3      3.212      3.939
REMARK  5 active torsions:
REMARK  status: ('A' for Active; 'I' for Inactive)
REMARK    1  A    between atoms: O1_2  and  C2_3 
REMARK    2  A    between atoms: N1_10  and  C8_11 
REMARK    3  A    between atoms: N2_12  and  C9_13 
REMARK    4  A    between atoms: C9_13  and  N3_14 
REMARK    5  A    between atoms: N3_14  and  C10_15 
ROOT
HETATM    1  C2  UNL     1      26.480   0.820  54.164  1.00  0.00     0.155 C 
HETATM    2  C3  UNL     1      26.864   2.120  53.592  1.00  0.00     0.200 C 
HETATM    3  O2  UNL     1      27.233   2.468  52.347  1.00  0.00    -0.387 OA
HETATM    4  C4  UNL     1      26.402   1.945  51.270  1.00  0.00     0.182 C 
HETATM    5  C5  UNL     1      25.880   0.694  51.972  1.00  0.00     0.017 A 
HETATM    6  C6  UNL     1      24.893   1.431  52.476  1.00  0.00     0.013 C 
HETATM    7  C7  UNL     1      23.801   0.586  53.157  1.00  0.00     0.034 C 
HETATM    8  N1  UNL     1      22.628   0.519  53.446  1.00  0.00    -0.247 NA
HETATM    9  C16 UNL     1      24.588  -0.676  53.626  1.00  0.00     0.072 C 
HETATM   10  C17 UNL     1      25.981  -0.255  53.137  1.00  0.00     0.012 A 
HETATM   11  C18 UNL     1      26.774  -0.452  52.118  1.00  0.00     0.019 A 
ENDROOT
BRANCH   8  12
HETATM   12  C8  UNL     1      21.599   1.468  53.169  1.00  0.00     0.228 C 
HETATM   13  N2  UNL     1      20.641   1.561  52.309  1.00  0.00    -0.263 NA
BRANCH  13  14
HETATM   14  C9  UNL     1      20.378   0.568  51.299  1.00  0.00     0.272 C 
BRANCH  14  15
HETATM   15  N3  UNL     1      21.387   0.485  50.286  1.00  0.00    -0.372 N 
HETATM   16  H13 UNL     1      21.877  -0.431  50.201  1.00  0.00     0.161 HD
BRANCH  15  17
HETATM   17  C10 UNL     1      21.717   1.575  49.434  1.00  0.00     0.031 A 
HETATM   18  C11 UNL     1      22.923   2.224  49.612  1.00  0.00     0.032 A 
HETATM   19  C12 UNL     1      23.198   3.268  48.768  1.00  0.00     0.046 A 
HETATM   20  C13 UNL     1      22.327   3.689  47.762  1.00  0.00     0.138 A 
HETATM   21  F1  UNL     1      22.610   4.712  46.942  1.00  0.00    -0.204 F 
HETATM   22  C14 UNL     1      21.149   3.011  47.630  1.00  0.00     0.074 A 
HETATM   23 CL1  UNL     1      19.962   3.421  46.420  1.00  0.00    -0.081 Cl
HETATM   24  C15 UNL     1      20.828   1.957  48.454  1.00  0.00     0.056 A 
ENDBRANCH  15  17
ENDBRANCH  14  15
ENDBRANCH  13  14
ENDBRANCH   8  12
BRANCH   1  25
HETATM   25  O1  UNL     1      27.321   0.300  55.114  1.00  0.00    -0.388 OA
HETATM   26  C1  UNL     1      28.664   0.415  54.882  1.00  0.00     0.202 C 
ENDBRANCH   1  25
TORSDOF 5
ENDMDL
MODEL 6
REMARK VINA RESULT:      -7.3      4.681      6.008
REMARK  5 active torsions:
REMARK  status: ('A' for Active; 'I' for Inactive)
REMARK    1  A    between atoms: O1_2  and  C2_3 
REMARK    2  A    between atoms: N1_10  and  C8_11 
REMARK    3  A    between atoms: N2_12  and  C9_13 
REMARK    4  A    between atoms: C9_13  and  N3_14 
REMARK    5  A    between atoms: N3_14  and  C10_15 
ROOT
HETATM    1  C2  UNL     1      25.679  -0.141  54.470  1.00  0.00     0.155 C 
HETATM    2  C3  UNL     1      26.718   0.819  54.872  1.00  0.00     0.200 C 
HETATM    3  O2  UNL     1      27.874   1.174  54.284  1.00  0.00    -0.387 OA
HETATM    4  C4  UNL     1      27.799   1.455  52.856  1.00  0.00     0.182 C 
HETATM    5  C5  UNL     1      26.594   0.581  52.515  1.00  0.00     0.017 A 
HETATM    6  C6  UNL     1      25.806   1.605  52.834  1.00  0.00     0.013 C 
HETATM    7  C7  UNL     1      24.336   1.377  52.435  1.00  0.00     0.034 C 
HETATM    8  N1  UNL     1      23.299   1.906  52.105  1.00  0.00    -0.247 NA
HETATM    9  C16 UNL     1      24.205  -0.176  52.486  1.00  0.00     0.072 C 
HETATM   10  C17 UNL     1      25.635  -0.498  52.944  1.00  0.00     0.012 A 
HETATM   11  C18 UNL     1      26.779  -0.865  52.432  1.00  0.00     0.019 A 
ENDROOT
BRANCH   8  12
HETATM   12  C8  UNL     1      23.039   3.298  51.932  1.00  0.00     0.228 C 
HETATM   13  N2  UNL     1      21.996   4.055  52.003  1.00  0.00    -0.263 NA
BRANCH  13  14
HETATM   14  C9  UNL     1      20.678   3.567  52.321  1.00  0.00     0.272 C 
BRANCH  14  15
HETATM   15  N3  UNL     1      20.245   2.479  51.499  1.00  0.00    -0.372 N 
HETATM   16  H13 UNL     1      20.354   2.608  50.470  1.00  0.00     0.161 HD
BRANCH  15  17
HETATM   17  C10 UNL     1      19.694   1.280  52.032  1.00  0.00     0.031 A 
HETATM   18  C11 UNL     1      18.419   0.903  51.657  1.00  0.00     0.032 A 
HETATM   19  C12 UNL     1      17.931  -0.258  52.196  1.00  0.00     0.046 A 
HETATM   20  C13 UNL     1      18.655  -1.054  53.085  1.00  0.00     0.138 A 
HETATM   21  F1  UNL     1      18.163  -2.189  53.604  1.00  0.00    -0.204 F 
HETATM   22  C14 UNL     1      19.910  -0.633  53.421  1.00  0.00     0.074 A 
HETATM   23 CL1  UNL     1      20.933  -1.521  54.520  1.00  0.00    -0.081 Cl
HETATM   24  C15 UNL     1      20.443   0.525  52.907  1.00  0.00     0.056 A 
ENDBRANCH  15  17
ENDBRANCH  14  15
ENDBRANCH  13  14
ENDBRANCH   8  12
BRANCH   1  25
HETATM   25  O1  UNL     1      25.515  -1.236  55.279  1.00  0.00    -0.388 OA
HETATM   26  C1  UNL     1      24.313  -1.356  55.922  1.00  0.00     0.202 C 
ENDBRANCH   1  25
TORSDOF 5
ENDMDL
MODEL 7
REMARK VINA RESULT:      -7.3      4.054      5.740
REMARK  5 active torsions:
REMARK  status: ('A' for Active; 'I' for Inactive)
REMARK    1  A    between atoms: O1_2  and  C2_3 
REMARK    2  A    between atoms: N1_10  and  C8_11 
REMARK    3  A    between atoms: N2_12  and  C9_13 
REMARK    4  A    between atoms: C9_13  and  N3_14 
REMARK    5  A    between atoms: N3_14  and  C10_15 
ROOT
HETATM    1  C2  UNL     1      28.446  -0.084  53.307  1.00  0.00     0.155 C 
HETATM    2  C3  UNL     1      27.829  -1.288  52.729  1.00  0.00     0.200 C 
HETATM    3  O2  UNL     1      26.704  -1.951  53.050  1.00  0.00    -0.387 OA
HETATM    4  C4  UNL     1      25.521  -1.127  53.261  1.00  0.00     0.182 C 
HETATM    5  C5  UNL     1      26.216   0.165  53.683  1.00  0.00     0.017 A 
HETATM    6  C6  UNL     1      26.307   0.496  52.397  1.00  0.00     0.013 C 
HETATM    7  C7  UNL     1      26.761   1.951  52.182  1.00  0.00     0.034 C 
HETATM    8  N1  UNL     1      26.711   2.913  51.450  1.00  0.00    -0.247 NA
HETATM    9  C16 UNL     1      27.610   2.236  53.458  1.00  0.00     0.072 C 
HETATM   10  C17 UNL     1      27.484   0.854  54.115  1.00  0.00     0.012 A 
HETATM   11  C18 UNL     1      26.772   0.254  55.031  1.00  0.00     0.019 A 
ENDROOT
BRANCH   8  12
HETATM   12  C8  UNL     1      26.020   3.036  50.207  1.00  0.00     0.228 C 
HETATM   13  N2  UNL     1      24.785   3.000  49.834  1.00  0.00    -0.263 NA
BRANCH  13  14
HETATM   14  C9  UNL     1      23.684   2.796  50.742  1.00  0.00     0.272 C 
BRANCH  14  15
HETATM   15  N3  UNL     1      23.492   1.431  51.128  1.00  0.00    -0.372 N 
HETATM   16  H13 UNL     1      24.266   0.774  50.891  1.00  0.00     0.161 HD
BRANCH  15  17
HETATM   17  C10 UNL     1      22.323   0.975  51.799  1.00  0.00     0.031 A 
HETATM   18  C11 UNL     1      22.388   0.706  53.151  1.00  0.00     0.032 A 
HETATM   19  C12 UNL     1      21.237   0.268  53.754  1.00  0.00     0.046 A 
HETATM   20  C13 UNL     1      20.034   0.091  53.068  1.00  0.00     0.138 A 
HETATM   21  F1  UNL     1      18.915  -0.337  53.672  1.00  0.00    -0.204 F 
HETATM   22  C14 UNL     1      20.027   0.373  51.732  1.00  0.00     0.074 A 
HETATM   23 CL1  UNL     1      18.600   0.199  50.745  1.00  0.00    -0.081 Cl
HETATM   24  C15 UNL     1      21.157   0.814  51.084  1.00  0.00     0.056 A 
ENDBRANCH  15  17
ENDBRANCH  14  15
ENDBRANCH  13  14
ENDBRANCH   8  12
BRANCH   1  25
HETATM   25  O1  UNL     1      29.661  -0.257  53.919  1.00  0.00    -0.388 OA
HETATM   26  C1  UNL     1      30.216  -1.506  53.852  1.00  0.00     0.202 C 
ENDBRANCH   1  25
TORSDOF 5
ENDMDL
MODEL 8
REMARK VINA RESULT:      -7.2      1.734      2.521
REMARK  5 active torsions:
REMARK  status: ('A' for Active; 'I' for Inactive)
REMARK    1  A    between atoms: O1_2  and  C2_3 
REMARK    2  A    between atoms: N1_10  and  C8_11 
REMARK    3  A    between atoms: N2_12  and  C9_13 
REMARK    4  A    between atoms: C9_13  and  N3_14 
REMARK    5  A    between atoms: N3_14  and  C10_15 
ROOT
HETATM    1  C2  UNL     1      26.344   1.096  54.043  1.00  0.00     0.155 C 
HETATM    2  C3  UNL     1      27.058   2.200  53.383  1.00  0.00     0.200 C 
HETATM    3  O2  UNL     1      27.637   2.286  52.172  1.00  0.00    -0.387 OA
HETATM    4  C4  UNL     1      26.848   1.782  51.056  1.00  0.00     0.182 C 
HETATM    5  C5  UNL     1      25.995   0.770  51.818  1.00  0.00     0.017 A 
HETATM    6  C6  UNL     1      25.132   1.749  52.082  1.00  0.00     0.013 C 
HETATM    7  C7  UNL     1      23.814   1.239  52.693  1.00  0.00     0.034 C 
HETATM    8  N1  UNL     1      22.628   1.442  52.814  1.00  0.00    -0.247 NA
HETATM    9  C16 UNL     1      24.257  -0.069  53.417  1.00  0.00     0.072 C 
HETATM   10  C17 UNL     1      25.755  -0.000  53.090  1.00  0.00     0.012 A 
HETATM   11  C18 UNL     1      26.604  -0.493  52.227  1.00  0.00     0.019 A 
ENDROOT
BRANCH   8  12
HETATM   12  C8  UNL     1      21.861   2.521  52.280  1.00  0.00     0.228 C 
HETATM   13  N2  UNL     1      22.008   3.801  52.198  1.00  0.00    -0.263 NA
BRANCH  13  14
HETATM   14  C9  UNL     1      23.155   4.506  52.710  1.00  0.00     0.272 C 
BRANCH  14  15
HETATM   15  N3  UNL     1      23.241   5.869  52.282  1.00  0.00    -0.372 N 
HETATM   16  H13 UNL     1      22.676   6.558  52.825  1.00  0.00     0.161 HD
BRANCH  15  17
HETATM   17  C10 UNL     1      24.044   6.284  51.183  1.00  0.00     0.031 A 
HETATM   18  C11 UNL     1      23.919   7.576  50.712  1.00  0.00     0.032 A 
HETATM   19  C12 UNL     1      24.712   7.930  49.652  1.00  0.00     0.046 A 
HETATM   20  C13 UNL     1      25.618   7.057  49.047  1.00  0.00     0.138 A 
HETATM   21  F1  UNL     1      26.388   7.418  48.011  1.00  0.00    -0.204 F 
HETATM   22  C14 UNL     1      25.700   5.791  49.554  1.00  0.00     0.074 A 
HETATM   23 CL1  UNL     1      26.784   4.590  48.904  1.00  0.00    -0.081 Cl
HETATM   24  C15 UNL     1      24.924   5.389  50.616  1.00  0.00     0.056 A 
ENDBRANCH  15  17
ENDBRANCH  14  15
ENDBRANCH  13  14
ENDBRANCH   8  12
BRANCH   1  25
HETATM   25  O1  UNL     1      26.939   0.568  55.160  1.00  0.00    -0.388 OA
HETATM   26  C1  UNL     1      28.273   0.278  55.073  1.00  0.00     0.202 C 
ENDBRANCH   1  25
TORSDOF 5
ENDMDL
MODEL 9
REMARK VINA RESULT:      -7.1      3.589      4.677
REMARK  5 active torsions:
REMARK  status: ('A' for Active; 'I' for Inactive)
REMARK    1  A    between atoms: O1_2  and  C2_3 
REMARK    2  A    between atoms: N1_10  and  C8_11 
REMARK    3  A    between atoms: N2_12  and  C9_13 
REMARK    4  A    between atoms: C9_13  and  N3_14 
REMARK    5  A    between atoms: N3_14  and  C10_15 
ROOT
HETATM    1  C2  UNL     1      26.460  -0.109  54.152  1.00  0.00     0.155 C 
HETATM    2  C3  UNL     1      27.148   0.773  55.107  1.00  0.00     0.200 C 
HETATM    3  O2  UNL     1      28.455   0.968  55.353  1.00  0.00    -0.387 OA
HETATM    4  C4  UNL     1      29.302   1.143  54.181  1.00  0.00     0.182 C 
HETATM    5  C5  UNL     1      28.458   0.367  53.172  1.00  0.00     0.017 A 
HETATM    6  C6  UNL     1      27.774   1.484  52.937  1.00  0.00     0.013 C 
HETATM    7  C7  UNL     1      26.839   1.370  51.720  1.00  0.00     0.034 C 
HETATM    8  N1  UNL     1      26.294   1.971  50.821  1.00  0.00    -0.247 NA
HETATM    9  C16 UNL     1      26.512  -0.154  51.681  1.00  0.00     0.072 C 
HETATM   10  C17 UNL     1      27.312  -0.577  52.921  1.00  0.00     0.012 A 
HETATM   11  C18 UNL     1      28.474  -1.093  53.222  1.00  0.00     0.019 A 
ENDROOT
BRANCH   8  12
HETATM   12  C8  UNL     1      26.369   3.364  50.523  1.00  0.00     0.228 C 
HETATM   13  N2  UNL     1      25.540   4.353  50.534  1.00  0.00    -0.263 NA
BRANCH  13  14
HETATM   14  C9  UNL     1      24.154   4.226  50.907  1.00  0.00     0.272 C 
BRANCH  14  15
HETATM   15  N3  UNL     1      23.486   3.114  50.302  1.00  0.00    -0.372 N 
HETATM   16  H13 UNL     1      23.758   2.894  49.320  1.00  0.00     0.161 HD
BRANCH  15  17
HETATM   17  C10 UNL     1      22.506   2.338  50.982  1.00  0.00     0.031 A 
HETATM   18  C11 UNL     1      22.882   1.143  51.564  1.00  0.00     0.032 A 
HETATM   19  C12 UNL     1      21.904   0.431  52.207  1.00  0.00     0.046 A 
HETATM   20  C13 UNL     1      20.578   0.858  52.295  1.00  0.00     0.138 A 
HETATM   21  F1  UNL     1      19.631   0.150  52.929  1.00  0.00    -0.204 F 
HETATM   22  C14 UNL     1      20.262   2.047  51.702  1.00  0.00     0.074 A 
HETATM   23 CL1  UNL     1      18.649   2.708  51.729  1.00  0.00    -0.081 Cl
HETATM   24  C15 UNL     1      21.209   2.797  51.045  1.00  0.00     0.056 A 
ENDBRANCH  15  17
ENDBRANCH  14  15
ENDBRANCH  13  14
ENDBRANCH   8  12
BRANCH   1  25
HETATM   25  O1  UNL     1      25.702  -1.117  54.690  1.00  0.00    -0.388 OA
HETATM   26  C1  UNL     1      24.346  -0.933  54.703  1.00  0.00     0.202 C 
ENDBRANCH   1  25
TORSDOF 5
ENDMDL
