MODEL 1
REMARK VINA RESULT:      -8.9      0.000      0.000
REMARK  8 active torsions:
REMARK  status: ('A' for Active; 'I' for Inactive)
REMARK    1  A    between atoms: C2_2  and  N1_4 
REMARK    2  A    between atoms: N1_4  and  C4_5 
REMARK    3  A    between atoms: N1_4  and  C21_30 
REMARK    4  A    between atoms: C4_5  and  C5_6 
REMARK    5  A    between atoms: C6_7  and  C7_8 
REMARK       I    between atoms: C7_8  and  N2_10 
REMARK    6  A    between atoms: N2_10  and  C8_11 
REMARK    7  A    between atoms: C11_14  and  N3_15 
REMARK    8  A    between atoms: N3_15  and  C12_16 
ROOT
HETATM    1  C8  UNL     1      24.524   3.478  50.113  1.00  0.00     0.131 A 
HETATM    2  C9  UNL     1      24.792   2.798  51.287  1.00  0.00     0.068 A 
HETATM    3  C10 UNL     1      24.007   1.794  51.808  1.00  0.00     0.044 A 
HETATM    4  C11 UNL     1      24.259   1.114  52.964  1.00  0.00     0.142 A 
HETATM    5  N4  UNL     1      23.363   0.177  53.282  1.00  0.00    -0.224 NA
HETATM    6  C18 UNL     1      22.269  -0.148  52.588  1.00  0.00     0.236 A 
HETATM    7  N5  UNL     1      22.053   0.553  51.440  1.00  0.00    -0.240 NA
HETATM    8  C19 UNL     1      22.896   1.502  51.049  1.00  0.00     0.089 A 
HETATM    9  C20 UNL     1      22.589   2.150  49.878  1.00  0.00     0.151 A 
HETATM   10  N6  UNL     1      23.412   3.116  49.449  1.00  0.00    -0.241 NA
ENDROOT
BRANCH   1  11
HETATM   11  N2  UNL     1      25.360   4.512  49.610  1.00  0.00    -0.301 N 
HETATM   12  C7  UNL     1      26.656   4.211  49.170  1.00  0.00     0.302 C 
HETATM   13  O1  UNL     1      27.056   3.029  49.229  1.00  0.00    -0.258 OA
HETATM   14  H10 UNL     1      25.036   5.493  49.557  1.00  0.00     0.171 HD
BRANCH  12  15
HETATM   15  C6  UNL     1      27.579   5.176  48.644  1.00  0.00    -0.004 C 
HETATM   16  C5  UNL     1      28.349   5.987  48.183  1.00  0.00    -0.066 C 
BRANCH  16  17
HETATM   17  C4  UNL     1      29.279   6.986  47.597  1.00  0.00     0.367 C 
BRANCH  17  18
HETATM   18  N1  UNL     1      29.967   7.572  48.731  1.00  0.00     0.107 N 
BRANCH  18  19
HETATM   19  C2  UNL     1      29.569   8.922  48.902  1.00  0.00     0.216 C 
HETATM   20  C1  UNL     1      30.663   9.811  49.454  1.00  0.00     0.042 C 
HETATM   21  C3  UNL     1      28.290   9.159  49.614  1.00  0.00     0.042 C 
ENDBRANCH  18  19
BRANCH  18  22
HETATM   22  C21 UNL     1      31.354   7.275  48.761  1.00  0.00     0.216 C 
HETATM   23  C22 UNL     1      31.768   6.172  49.697  1.00  0.00     0.042 C 
HETATM   24  C23 UNL     1      31.885   6.912  47.370  1.00  0.00     0.042 C 
ENDBRANCH  18  22
ENDBRANCH  17  18
ENDBRANCH  16  17
ENDBRANCH  12  15
ENDBRANCH   1  11
BRANCH   4  25
HETATM   25  N3  UNL     1      25.415   1.435  53.716  1.00  0.00    -0.340 N 
HETATM   26  H12 UNL     1      25.407   2.168  54.434  1.00  0.00     0.167 HD
BRANCH  25  27
HETATM   27  C12 UNL     1      26.724   0.885  53.668  1.00  0.00     0.035 A 
HETATM   28  C13 UNL     1      27.902   1.559  53.908  1.00  0.00     0.032 A 
HETATM   29  C14 UNL     1      29.142   0.978  53.854  1.00  0.00     0.046 A 
HETATM   30  C15 UNL     1      29.276  -0.359  53.546  1.00  0.00     0.138 A 
HETATM   31  F1  UNL     1      30.541  -0.822  53.522  1.00  0.00    -0.204 F 
HETATM   32  C16 UNL     1      28.117  -1.066  53.300  1.00  0.00     0.074 A 
HETATM   33 CL1  UNL     1      28.370  -2.759  52.915  1.00  0.00    -0.081 Cl
HETATM   34  C17 UNL     1      26.892  -0.450  53.363  1.00  0.00     0.056 A 
ENDBRANCH  25  27
ENDBRANCH   4  25
TORSDOF 8
ENDMDL
MODEL 2
REMARK VINA RESULT:      -8.7      1.076      1.926
REMARK  8 active torsions:
REMARK  status: ('A' for Active; 'I' for Inactive)
REMARK    1  A    between atoms: C2_2  and  N1_4 
REMARK    2  A    between atoms: N1_4  and  C4_5 
REMARK    3  A    between atoms: N1_4  and  C21_30 
REMARK    4  A    between atoms: C4_5  and  C5_6 
REMARK    5  A    between atoms: C6_7  and  C7_8 
REMARK       I    between atoms: C7_8  and  N2_10 
REMARK    6  A    between atoms: N2_10  and  C8_11 
REMARK    7  A    between atoms: C11_14  and  N3_15 
REMARK    8  A    between atoms: N3_15  and  C12_16 
ROOT
HETATM    1  C8  UNL     1      24.434   3.281  50.476  1.00  0.00     0.131 A 
HETATM    2  C9  UNL     1      24.746   2.575  51.622  1.00  0.00     0.068 A 
HETATM    3  C10 UNL     1      24.009   1.525  52.121  1.00  0.00     0.044 A 
HETATM    4  C11 UNL     1      24.304   0.818  53.251  1.00  0.00     0.142 A 
HETATM    5  N4  UNL     1      23.450  -0.163  53.551  1.00  0.00    -0.224 NA
HETATM    6  C18 UNL     1      22.359  -0.508  52.862  1.00  0.00     0.236 A 
HETATM    7  N5  UNL     1      22.098   0.221  51.741  1.00  0.00    -0.240 NA
HETATM    8  C19 UNL     1      22.898   1.215  51.370  1.00  0.00     0.089 A 
HETATM    9  C20 UNL     1      22.548   1.888  50.225  1.00  0.00     0.151 A 
HETATM   10  N6  UNL     1      23.327   2.898  49.816  1.00  0.00    -0.241 NA
ENDROOT
BRANCH   1  11
HETATM   11  N2  UNL     1      25.222   4.363  49.994  1.00  0.00    -0.301 N 
HETATM   12  C7  UNL     1      26.428   4.107  49.327  1.00  0.00     0.302 C 
HETATM   13  O1  UNL     1      26.791   2.922  49.167  1.00  0.00    -0.258 OA
HETATM   14  H10 UNL     1      24.929   5.346  50.123  1.00  0.00     0.171 HD
BRANCH  12  15
HETATM   15  C6  UNL     1      27.297   5.121  48.802  1.00  0.00    -0.004 C 
HETATM   16  C5  UNL     1      28.012   5.987  48.353  1.00  0.00    -0.066 C 
BRANCH  16  17
HETATM   17  C4  UNL     1      28.871   7.065  47.800  1.00  0.00     0.367 C 
BRANCH  17  18
HETATM   18  N1  UNL     1      28.036   8.252  47.805  1.00  0.00     0.107 N 
BRANCH  18  19
HETATM   19  C2  UNL     1      27.816   8.701  46.479  1.00  0.00     0.216 C 
HETATM   20  C1  UNL     1      26.388   8.519  46.008  1.00  0.00     0.042 C 
HETATM   21  C3  UNL     1      28.772   8.236  45.446  1.00  0.00     0.042 C 
ENDBRANCH  18  19
BRANCH  18  22
HETATM   22  C21 UNL     1      28.425   9.208  48.779  1.00  0.00     0.216 C 
HETATM   23  C22 UNL     1      27.589   9.246  50.029  1.00  0.00     0.042 C 
HETATM   24  C23 UNL     1      29.881   9.011  49.214  1.00  0.00     0.042 C 
ENDBRANCH  18  22
ENDBRANCH  17  18
ENDBRANCH  16  17
ENDBRANCH  12  15
ENDBRANCH   1  11
BRANCH   4  25
HETATM   25  N3  UNL     1      25.459   1.158  53.996  1.00  0.00    -0.340 N 
HETATM   26  H12 UNL     1      25.425   1.831  54.769  1.00  0.00     0.167 HD
BRANCH  25  27
HETATM   27  C12 UNL     1      26.800   0.706  53.871  1.00  0.00     0.035 A 
HETATM   28  C13 UNL     1      27.938   1.460  54.063  1.00  0.00     0.032 A 
HETATM   29  C14 UNL     1      29.212   0.971  53.936  1.00  0.00     0.046 A 
HETATM   30  C15 UNL     1      29.425  -0.347  53.596  1.00  0.00     0.138 A 
HETATM   31  F1  UNL     1      30.717  -0.717  53.500  1.00  0.00    -0.204 F 
HETATM   32  C16 UNL     1      28.309  -1.133  53.397  1.00  0.00     0.074 A 
HETATM   33 CL1  UNL     1      28.662  -2.797  52.968  1.00  0.00    -0.081 Cl
HETATM   34  C17 UNL     1      27.048  -0.609  53.533  1.00  0.00     0.056 A 
ENDBRANCH  25  27
ENDBRANCH   4  25
TORSDOF 8
ENDMDL
MODEL 3
REMARK VINA RESULT:      -8.6      1.814      2.524
REMARK  8 active torsions:
REMARK  status: ('A' for Active; 'I' for Inactive)
REMARK    1  A    between atoms: C2_2  and  N1_4 
REMARK    2  A    between atoms: N1_4  and  C4_5 
REMARK    3  A    between atoms: N1_4  and  C21_30 
REMARK    4  A    between atoms: C4_5  and  C5_6 
REMARK    5  A    between atoms: C6_7  and  C7_8 
REMARK       I    between atoms: C7_8  and  N2_10 
REMARK    6  A    between atoms: N2_10  and  C8_11 
REMARK    7  A    between atoms: C11_14  and  N3_15 
REMARK    8  A    between atoms: N3_15  and  C12_16 
ROOT
HETATM    1  C8  UNL     1      25.394   5.012  49.657  1.00  0.00     0.131 A 
HETATM    2  C9  UNL     1      25.342   4.287  50.832  1.00  0.00     0.068 A 
HETATM    3  C10 UNL     1      24.226   3.628  51.297  1.00  0.00     0.044 A 
HETATM    4  C11 UNL     1      24.159   2.908  52.455  1.00  0.00     0.142 A 
HETATM    5  N4  UNL     1      22.974   2.349  52.713  1.00  0.00    -0.224 NA
HETATM    6  C18 UNL     1      21.875   2.429  51.959  1.00  0.00     0.236 A 
HETATM    7  N5  UNL     1      21.982   3.155  50.811  1.00  0.00    -0.240 NA
HETATM    8  C19 UNL     1      23.126   3.744  50.479  1.00  0.00     0.089 A 
HETATM    9  C20 UNL     1      23.130   4.453  49.302  1.00  0.00     0.151 A 
HETATM   10  N6  UNL     1      24.263   5.063  48.930  1.00  0.00    -0.241 NA
ENDROOT
BRANCH   1  11
HETATM   11  N2  UNL     1      26.567   5.682  49.212  1.00  0.00    -0.301 N 
HETATM   12  C7  UNL     1      27.670   4.940  48.766  1.00  0.00     0.302 C 
HETATM   13  O1  UNL     1      27.600   3.692  48.769  1.00  0.00    -0.258 OA
HETATM   14  H10 UNL     1      26.633   6.714  49.207  1.00  0.00     0.171 HD
BRANCH  12  15
HETATM   15  C6  UNL     1      28.898   5.514  48.297  1.00  0.00    -0.004 C 
HETATM   16  C5  UNL     1      29.939   5.979  47.894  1.00  0.00    -0.066 C 
BRANCH  16  17
HETATM   17  C4  UNL     1      31.219   6.532  47.382  1.00  0.00     0.367 C 
BRANCH  17  18
HETATM   18  N1  UNL     1      32.239   5.605  47.836  1.00  0.00     0.107 N 
BRANCH  18  19
HETATM   19  C2  UNL     1      33.130   6.255  48.726  1.00  0.00     0.216 C 
HETATM   20  C1  UNL     1      33.139   7.762  48.579  1.00  0.00     0.042 C 
HETATM   21  C3  UNL     1      34.513   5.726  48.795  1.00  0.00     0.042 C 
ENDBRANCH  18  19
BRANCH  18  22
HETATM   22  C21 UNL     1      32.790   4.820  46.790  1.00  0.00     0.216 C 
HETATM   23  C22 UNL     1      32.161   3.469  46.582  1.00  0.00     0.042 C 
HETATM   24  C23 UNL     1      32.741   5.555  45.446  1.00  0.00     0.042 C 
ENDBRANCH  18  22
ENDBRANCH  17  18
ENDBRANCH  16  17
ENDBRANCH  12  15
ENDBRANCH   1  11
BRANCH   4  25
HETATM   25  N3  UNL     1      25.312   2.803  53.270  1.00  0.00    -0.340 N 
HETATM   26  H12 UNL     1      25.501   3.468  54.029  1.00  0.00     0.167 HD
BRANCH  25  27
HETATM   27  C12 UNL     1      26.373   1.860  53.244  1.00  0.00     0.035 A 
HETATM   28  C13 UNL     1      27.691   2.103  53.569  1.00  0.00     0.032 A 
HETATM   29  C14 UNL     1      28.678   1.152  53.531  1.00  0.00     0.046 A 
HETATM   30  C15 UNL     1      28.389  -0.142  53.154  1.00  0.00     0.138 A 
HETATM   31  F1  UNL     1      29.435  -0.990  53.155  1.00  0.00    -0.204 F 
HETATM   32  C16 UNL     1      27.080  -0.422  52.822  1.00  0.00     0.074 A 
HETATM   33 CL1  UNL     1      26.793  -2.088  52.352  1.00  0.00    -0.081 Cl
HETATM   34  C17 UNL     1      26.118   0.556  52.871  1.00  0.00     0.056 A 
ENDBRANCH  25  27
ENDBRANCH   4  25
TORSDOF 8
ENDMDL
MODEL 4
REMARK VINA RESULT:      -8.4      2.164      2.637
REMARK  8 active torsions:
REMARK  status: ('A' for Active; 'I' for Inactive)
REMARK    1  A    between atoms: C2_2  and  N1_4 
REMARK    2  A    between atoms: N1_4  and  C4_5 
REMARK    3  A    between atoms: N1_4  and  C21_30 
REMARK    4  A    between atoms: C4_5  and  C5_6 
REMARK    5  A    between atoms: C6_7  and  C7_8 
REMARK       I    between atoms: C7_8  and  N2_10 
REMARK    6  A    between atoms: N2_10  and  C8_11 
REMARK    7  A    between atoms: C11_14  and  N3_15 
REMARK    8  A    between atoms: N3_15  and  C12_16 
ROOT
HETATM    1  C8  UNL     1      24.168   5.137  51.025  1.00  0.00     0.131 A 
HETATM    2  C9  UNL     1      23.988   3.807  51.356  1.00  0.00     0.068 A 
HETATM    3  C10 UNL     1      22.809   3.266  51.817  1.00  0.00     0.044 A 
HETATM    4  C11 UNL     1      22.616   1.956  52.147  1.00  0.00     0.142 A 
HETATM    5  N4  UNL     1      21.388   1.649  52.573  1.00  0.00    -0.224 NA
HETATM    6  C18 UNL     1      20.357   2.488  52.702  1.00  0.00     0.236 A 
HETATM    7  N5  UNL     1      20.589   3.786  52.362  1.00  0.00    -0.240 NA
HETATM    8  C19 UNL     1      21.782   4.177  51.928  1.00  0.00     0.089 A 
HETATM    9  C20 UNL     1      21.914   5.507  51.611  1.00  0.00     0.151 A 
HETATM   10  N6  UNL     1      23.101   5.943  51.170  1.00  0.00    -0.241 NA
ENDROOT
BRANCH   1  11
HETATM   11  N2  UNL     1      25.405   5.656  50.553  1.00  0.00    -0.301 N 
HETATM   12  C7  UNL     1      25.625   5.796  49.176  1.00  0.00     0.302 C 
HETATM   13  O1  UNL     1      24.723   5.458  48.382  1.00  0.00    -0.258 OA
HETATM   14  H10 UNL     1      26.157   5.939  51.205  1.00  0.00     0.171 HD
BRANCH  12  15
HETATM   15  C6  UNL     1      26.833   6.309  48.596  1.00  0.00    -0.004 C 
HETATM   16  C5  UNL     1      27.845   6.760  48.110  1.00  0.00    -0.066 C 
BRANCH  16  17
HETATM   17  C4  UNL     1      29.083   7.336  47.526  1.00  0.00     0.367 C 
BRANCH  17  18
HETATM   18  N1  UNL     1      30.058   7.304  48.599  1.00  0.00     0.107 N 
BRANCH  18  19
HETATM   19  C2  UNL     1      30.886   8.453  48.543  1.00  0.00     0.216 C 
HETATM   20  C1  UNL     1      30.431   9.572  49.457  1.00  0.00     0.042 C 
HETATM   21  C3  UNL     1      31.216   8.977  47.196  1.00  0.00     0.042 C 
ENDBRANCH  18  19
BRANCH  18  22
HETATM   22  C21 UNL     1      30.679   6.038  48.756  1.00  0.00     0.216 C 
HETATM   23  C22 UNL     1      31.163   5.385  47.490  1.00  0.00     0.042 C 
HETATM   24  C23 UNL     1      31.873   6.109  49.715  1.00  0.00     0.042 C 
ENDBRANCH  18  22
ENDBRANCH  17  18
ENDBRANCH  16  17
ENDBRANCH  12  15
ENDBRANCH   1  11
BRANCH   4  25
HETATM   25  N3  UNL     1      23.691   1.045  52.013  1.00  0.00    -0.340 N 
HETATM   26  H12 UNL     1      23.787   0.439  51.190  1.00  0.00     0.167 HD
BRANCH  25  27
HETATM   27  C12 UNL     1      24.779   0.773  52.884  1.00  0.00     0.035 A 
HETATM   28  C13 UNL     1      24.849  -0.246  53.811  1.00  0.00     0.032 A 
HETATM   29  C14 UNL     1      25.928  -0.468  54.626  1.00  0.00     0.046 A 
HETATM   30  C15 UNL     1      27.038   0.346  54.555  1.00  0.00     0.138 A 
HETATM   31  F1  UNL     1      28.038   0.034  55.402  1.00  0.00    -0.204 F 
HETATM   32  C16 UNL     1      27.004   1.376  53.639  1.00  0.00     0.074 A 
HETATM   33 CL1  UNL     1      28.452   2.367  53.609  1.00  0.00    -0.081 Cl
HETATM   34  C17 UNL     1      25.905   1.569  52.839  1.00  0.00     0.056 A 
ENDBRANCH  25  27
ENDBRANCH   4  25
TORSDOF 8
ENDMDL
MODEL 5
REMARK VINA RESULT:      -8.3      1.905      2.649
REMARK  8 active torsions:
REMARK  status: ('A' for Active; 'I' for Inactive)
REMARK    1  A    between atoms: C2_2  and  N1_4 
REMARK    2  A    between atoms: N1_4  and  C4_5 
REMARK    3  A    between atoms: N1_4  and  C21_30 
REMARK    4  A    between atoms: C4_5  and  C5_6 
REMARK    5  A    between atoms: C6_7  and  C7_8 
REMARK       I    between atoms: C7_8  and  N2_10 
REMARK    6  A    between atoms: N2_10  and  C8_11 
REMARK    7  A    between atoms: C11_14  and  N3_15 
REMARK    8  A    between atoms: N3_15  and  C12_16 
ROOT
HETATM    1  C8  UNL     1      22.739   2.551  51.224  1.00  0.00     0.131 A 
HETATM    2  C9  UNL     1      23.413   1.518  51.847  1.00  0.00     0.068 A 
HETATM    3  C10 UNL     1      22.880   0.715  52.830  1.00  0.00     0.044 A 
HETATM    4  C11 UNL     1      23.533  -0.309  53.454  1.00  0.00     0.142 A 
HETATM    5  N4  UNL     1      22.823  -0.959  54.380  1.00  0.00    -0.224 NA
HETATM    6  C18 UNL     1      21.563  -0.705  54.741  1.00  0.00     0.236 A 
HETATM    7  N5  UNL     1      20.946   0.324  54.095  1.00  0.00    -0.240 NA
HETATM    8  C19 UNL     1      21.580   1.022  53.159  1.00  0.00     0.089 A 
HETATM    9  C20 UNL     1      20.870   2.039  52.568  1.00  0.00     0.151 A 
HETATM   10  N6  UNL     1      21.472   2.769  51.620  1.00  0.00    -0.241 NA
ENDROOT
BRANCH   1  11
HETATM   11  N2  UNL     1      23.327   3.361  50.213  1.00  0.00    -0.301 N 
HETATM   12  C7  UNL     1      24.014   4.530  50.565  1.00  0.00     0.302 C 
HETATM   13  O1  UNL     1      24.098   4.842  51.772  1.00  0.00    -0.258 OA
HETATM   14  H10 UNL     1      23.262   3.109  49.212  1.00  0.00     0.171 HD
BRANCH  12  15
HETATM   15  C6  UNL     1      24.644   5.416  49.628  1.00  0.00    -0.004 C 
HETATM   16  C5  UNL     1      25.187   6.167  48.852  1.00  0.00    -0.066 C 
BRANCH  16  17
HETATM   17  C4  UNL     1      25.875   7.091  47.914  1.00  0.00     0.367 C 
BRANCH  17  18
HETATM   18  N1  UNL     1      27.158   7.370  48.532  1.00  0.00     0.107 N 
BRANCH  18  19
HETATM   19  C2  UNL     1      27.277   8.755  48.808  1.00  0.00     0.216 C 
HETATM   20  C1  UNL     1      27.126   9.095  50.277  1.00  0.00     0.042 C 
HETATM   21  C3  UNL     1      26.474   9.678  47.971  1.00  0.00     0.042 C 
ENDBRANCH  18  19
BRANCH  18  22
HETATM   22  C21 UNL     1      28.243   6.719  47.890  1.00  0.00     0.216 C 
HETATM   23  C22 UNL     1      29.579   7.402  48.008  1.00  0.00     0.042 C 
HETATM   24  C23 UNL     1      28.422   5.284  48.398  1.00  0.00     0.042 C 
ENDBRANCH  18  22
ENDBRANCH  17  18
ENDBRANCH  16  17
ENDBRANCH  12  15
ENDBRANCH   1  11
BRANCH   4  25
HETATM   25  N3  UNL     1      24.867  -0.603  53.085  1.00  0.00    -0.340 N 
HETATM   26  H12 UNL     1      25.099  -1.405  52.488  1.00  0.00     0.167 HD
BRANCH  25  27
HETATM   27  C12 UNL     1      26.079   0.061  53.412  1.00  0.00     0.035 A 
HETATM   28  C13 UNL     1      26.210   1.375  53.807  1.00  0.00     0.032 A 
HETATM   29  C14 UNL     1      27.407   1.967  54.117  1.00  0.00     0.046 A 
HETATM   30  C15 UNL     1      28.581   1.249  54.048  1.00  0.00     0.138 A 
HETATM   31  F1  UNL     1      29.696   1.932  54.376  1.00  0.00    -0.204 F 
HETATM   32  C16 UNL     1      28.489  -0.070  53.657  1.00  0.00     0.074 A 
HETATM   33 CL1  UNL     1      30.025  -0.916  53.593  1.00  0.00    -0.081 Cl
HETATM   34  C17 UNL     1      27.273  -0.630  53.353  1.00  0.00     0.056 A 
ENDBRANCH  25  27
ENDBRANCH   4  25
TORSDOF 8
ENDMDL
MODEL 6
REMARK VINA RESULT:      -8.2      2.558      4.039
REMARK  8 active torsions:
REMARK  status: ('A' for Active; 'I' for Inactive)
REMARK    1  A    between atoms: C2_2  and  N1_4 
REMARK    2  A    between atoms: N1_4  and  C4_5 
REMARK    3  A    between atoms: N1_4  and  C21_30 
REMARK    4  A    between atoms: C4_5  and  C5_6 
REMARK    5  A    between atoms: C6_7  and  C7_8 
REMARK       I    between atoms: C7_8  and  N2_10 
REMARK    6  A    between atoms: N2_10  and  C8_11 
REMARK    7  A    between atoms: C11_14  and  N3_15 
REMARK    8  A    between atoms: N3_15  and  C12_16 
ROOT
HETATM    1  C8  UNL     1      25.803   6.009  49.194  1.00  0.00     0.131 A 
HETATM    2  C9  UNL     1      25.406   5.262  50.287  1.00  0.00     0.068 A 
HETATM    3  C10 UNL     1      24.098   4.966  50.601  1.00  0.00     0.044 A 
HETATM    4  C11 UNL     1      23.690   4.230  51.675  1.00  0.00     0.142 A 
HETATM    5  N4  UNL     1      22.370   4.066  51.788  1.00  0.00    -0.224 NA
HETATM    6  C18 UNL     1      21.435   4.545  50.963  1.00  0.00     0.236 A 
HETATM    7  N5  UNL     1      21.882   5.273  49.902  1.00  0.00    -0.240 NA
HETATM    8  C19 UNL     1      23.180   5.484  49.716  1.00  0.00     0.089 A 
HETATM    9  C20 UNL     1      23.527   6.232  48.617  1.00  0.00     0.151 A 
HETATM   10  N6  UNL     1      24.826   6.469  48.392  1.00  0.00    -0.241 NA
ENDROOT
BRANCH   1  11
HETATM   11  N2  UNL     1      27.166   6.295  48.906  1.00  0.00    -0.301 N 
HETATM   12  C7  UNL     1      28.054   5.249  48.617  1.00  0.00     0.302 C 
HETATM   13  O1  UNL     1      27.626   4.075  48.618  1.00  0.00    -0.258 OA
HETATM   14  H10 UNL     1      27.528   7.264  48.904  1.00  0.00     0.171 HD
BRANCH  12  15
HETATM   15  C6  UNL     1      29.445   5.426  48.313  1.00  0.00    -0.004 C 
HETATM   16  C5  UNL     1      30.616   5.595  48.063  1.00  0.00    -0.066 C 
BRANCH  16  17
HETATM   17  C4  UNL     1      32.054   5.824  47.770  1.00  0.00     0.367 C 
BRANCH  17  18
HETATM   18  N1  UNL     1      32.387   4.857  46.740  1.00  0.00     0.107 N 
BRANCH  18  19
HETATM   19  C2  UNL     1      32.565   3.573  47.314  1.00  0.00     0.216 C 
HETATM   20  C1  UNL     1      34.004   3.264  47.672  1.00  0.00     0.042 C 
HETATM   21  C3  UNL     1      31.944   2.430  46.603  1.00  0.00     0.042 C 
ENDBRANCH  18  19
BRANCH  18  22
HETATM   22  C21 UNL     1      33.368   5.325  45.827  1.00  0.00     0.216 C 
HETATM   23  C22 UNL     1      33.025   5.185  44.369  1.00  0.00     0.042 C 
HETATM   24  C23 UNL     1      33.712   6.798  46.073  1.00  0.00     0.042 C 
ENDBRANCH  18  22
ENDBRANCH  17  18
ENDBRANCH  16  17
ENDBRANCH  12  15
ENDBRANCH   1  11
BRANCH   4  25
HETATM   25  N3  UNL     1      24.662   3.706  52.561  1.00  0.00    -0.340 N 
HETATM   26  H12 UNL     1      25.198   4.309  53.195  1.00  0.00     0.167 HD
BRANCH  25  27
HETATM   27  C12 UNL     1      25.089   2.367  52.769  1.00  0.00     0.035 A 
HETATM   28  C13 UNL     1      24.279   1.254  52.849  1.00  0.00     0.032 A 
HETATM   29  C14 UNL     1      24.745  -0.020  53.046  1.00  0.00     0.046 A 
HETATM   30  C15 UNL     1      26.096  -0.259  53.179  1.00  0.00     0.138 A 
HETATM   31  F1  UNL     1      26.438  -1.548  53.367  1.00  0.00    -0.204 F 
HETATM   32  C16 UNL     1      26.937   0.832  53.103  1.00  0.00     0.074 A 
HETATM   33 CL1  UNL     1      28.640   0.447  53.281  1.00  0.00    -0.081 Cl
HETATM   34  C17 UNL     1      26.435   2.094  52.905  1.00  0.00     0.056 A 
ENDBRANCH  25  27
ENDBRANCH   4  25
TORSDOF 8
ENDMDL
MODEL 7
REMARK VINA RESULT:      -8.1      4.538     10.245
REMARK  8 active torsions:
REMARK  status: ('A' for Active; 'I' for Inactive)
REMARK    1  A    between atoms: C2_2  and  N1_4 
REMARK    2  A    between atoms: N1_4  and  C4_5 
REMARK    3  A    between atoms: N1_4  and  C21_30 
REMARK    4  A    between atoms: C4_5  and  C5_6 
REMARK    5  A    between atoms: C6_7  and  C7_8 
REMARK       I    between atoms: C7_8  and  N2_10 
REMARK    6  A    between atoms: N2_10  and  C8_11 
REMARK    7  A    between atoms: C11_14  and  N3_15 
REMARK    8  A    between atoms: N3_15  and  C12_16 
ROOT
HETATM    1  C8  UNL     1      23.865  -0.292  53.403  1.00  0.00     0.131 A 
HETATM    2  C9  UNL     1      24.574   0.578  52.597  1.00  0.00     0.068 A 
HETATM    3  C10 UNL     1      25.835   1.055  52.877  1.00  0.00     0.044 A 
HETATM    4  C11 UNL     1      26.548   1.913  52.091  1.00  0.00     0.142 A 
HETATM    5  N4  UNL     1      27.754   2.247  52.557  1.00  0.00    -0.224 NA
HETATM    6  C18 UNL     1      28.312   1.826  53.695  1.00  0.00     0.236 A 
HETATM    7  N5  UNL     1      27.570   0.971  54.451  1.00  0.00    -0.240 NA
HETATM    8  C19 UNL     1      26.359   0.587  54.061  1.00  0.00     0.089 A 
HETATM    9  C20 UNL     1      25.692  -0.277  54.894  1.00  0.00     0.151 A 
HETATM   10  N6  UNL     1      24.468  -0.688  54.538  1.00  0.00    -0.241 NA
ENDROOT
BRANCH   1  11
HETATM   11  N2  UNL     1      22.562  -0.761  53.078  1.00  0.00    -0.301 N 
HETATM   12  C7  UNL     1      21.434  -0.056  53.520  1.00  0.00     0.302 C 
HETATM   13  O1  UNL     1      21.597   0.981  54.198  1.00  0.00    -0.258 OA
HETATM   14  H10 UNL     1      22.419  -1.618  52.517  1.00  0.00     0.171 HD
BRANCH  12  15
HETATM   15  C6  UNL     1      20.079  -0.440  53.248  1.00  0.00    -0.004 C 
HETATM   16  C5  UNL     1      18.942  -0.784  53.018  1.00  0.00    -0.066 C 
BRANCH  16  17
HETATM   17  C4  UNL     1      17.553  -1.229  52.742  1.00  0.00     0.367 C 
BRANCH  17  18
HETATM   18  N1  UNL     1      16.970  -0.172  51.937  1.00  0.00     0.107 N 
BRANCH  18  19
HETATM   19  C2  UNL     1      15.556  -0.225  52.008  1.00  0.00     0.216 C 
HETATM   20  C1  UNL     1      14.943   0.939  52.759  1.00  0.00     0.042 C 
HETATM   21  C3  UNL     1      14.954  -1.508  52.446  1.00  0.00     0.042 C 
ENDBRANCH  18  19
BRANCH  18  22
HETATM   22  C21 UNL     1      17.572  -0.043  50.658  1.00  0.00     0.216 C 
HETATM   23  C22 UNL     1      16.717  -0.446  49.488  1.00  0.00     0.042 C 
HETATM   24  C23 UNL     1      18.048   1.390  50.399  1.00  0.00     0.042 C 
ENDBRANCH  18  22
ENDBRANCH  17  18
ENDBRANCH  16  17
ENDBRANCH  12  15
ENDBRANCH   1  11
BRANCH   4  25
HETATM   25  N3  UNL     1      25.982   2.368  50.876  1.00  0.00    -0.340 N 
HETATM   26  H12 UNL     1      25.441   1.746  50.265  1.00  0.00     0.167 HD
BRANCH  25  27
HETATM   27  C12 UNL     1      26.017   3.652  50.270  1.00  0.00     0.035 A 
HETATM   28  C13 UNL     1      26.887   4.067  49.285  1.00  0.00     0.032 A 
HETATM   29  C14 UNL     1      26.875   5.320  48.728  1.00  0.00     0.046 A 
HETATM   30  C15 UNL     1      25.956   6.260  49.142  1.00  0.00     0.138 A 
HETATM   31  F1  UNL     1      26.036   7.456  48.526  1.00  0.00    -0.204 F 
HETATM   32  C16 UNL     1      25.068   5.880  50.127  1.00  0.00     0.074 A 
HETATM   33 CL1  UNL     1      23.932   7.131  50.600  1.00  0.00    -0.081 Cl
HETATM   34  C17 UNL     1      25.111   4.617  50.661  1.00  0.00     0.056 A 
ENDBRANCH  25  27
ENDBRANCH   4  25
TORSDOF 8
ENDMDL
MODEL 8
REMARK VINA RESULT:      -8.1      1.823      2.487
REMARK  8 active torsions:
REMARK  status: ('A' for Active; 'I' for Inactive)
REMARK    1  A    between atoms: C2_2  and  N1_4 
REMARK    2  A    between atoms: N1_4  and  C4_5 
REMARK    3  A    between atoms: N1_4  and  C21_30 
REMARK    4  A    between atoms: C4_5  and  C5_6 
REMARK    5  A    between atoms: C6_7  and  C7_8 
REMARK       I    between atoms: C7_8  and  N2_10 
REMARK    6  A    between atoms: N2_10  and  C8_11 
REMARK    7  A    between atoms: C11_14  and  N3_15 
REMARK    8  A    between atoms: N3_15  and  C12_16 
ROOT
HETATM    1  C8  UNL     1      25.393   5.429  49.539  1.00  0.00     0.131 A 
HETATM    2  C9  UNL     1      25.289   4.596  50.638  1.00  0.00     0.068 A 
HETATM    3  C10 UNL     1      24.114   4.041  51.091  1.00  0.00     0.044 A 
HETATM    4  C11 UNL     1      23.995   3.217  52.173  1.00  0.00     0.142 A 
HETATM    5  N4  UNL     1      22.757   2.791  52.434  1.00  0.00    -0.224 NA
HETATM    6  C18 UNL     1      21.650   3.092  51.749  1.00  0.00     0.236 A 
HETATM    7  N5  UNL     1      21.810   3.916  50.676  1.00  0.00    -0.240 NA
HETATM    8  C19 UNL     1      23.009   4.384  50.346  1.00  0.00     0.089 A 
HETATM    9  C20 UNL     1      23.063   5.208  49.248  1.00  0.00     0.151 A 
HETATM   10  N6  UNL     1      24.253   5.703  48.881  1.00  0.00    -0.241 NA
ENDROOT
BRANCH   1  11
HETATM   11  N2  UNL     1      26.628   5.985  49.104  1.00  0.00    -0.301 N 
HETATM   12  C7  UNL     1      27.682   5.141  48.731  1.00  0.00     0.302 C 
HETATM   13  O1  UNL     1      27.516   3.904  48.788  1.00  0.00    -0.258 OA
HETATM   14  H10 UNL     1      26.773   7.008  49.054  1.00  0.00     0.171 HD
BRANCH  12  15
HETATM   15  C6  UNL     1      28.965   5.596  48.277  1.00  0.00    -0.004 C 
HETATM   16  C5  UNL     1      30.039   5.980  47.876  1.00  0.00    -0.066 C 
BRANCH  16  17
HETATM   17  C4  UNL     1      31.348   6.459  47.362  1.00  0.00     0.367 C 
BRANCH  17  18
HETATM   18  N1  UNL     1      31.966   7.144  48.482  1.00  0.00     0.107 N 
BRANCH  18  19
HETATM   19  C2  UNL     1      31.825   8.547  48.335  1.00  0.00     0.216 C 
HETATM   20  C1  UNL     1      30.978   9.187  49.414  1.00  0.00     0.042 C 
HETATM   21  C3  UNL     1      31.433   9.045  46.995  1.00  0.00     0.042 C 
ENDBRANCH  18  19
BRANCH  18  22
HETATM   22  C21 UNL     1      33.245   6.631  48.818  1.00  0.00     0.216 C 
HETATM   23  C22 UNL     1      33.618   5.325  48.170  1.00  0.00     0.042 C 
HETATM   24  C23 UNL     1      34.359   7.632  48.493  1.00  0.00     0.042 C 
ENDBRANCH  18  22
ENDBRANCH  17  18
ENDBRANCH  16  17
ENDBRANCH  12  15
ENDBRANCH   1  11
BRANCH   4  25
HETATM   25  N3  UNL     1      25.153   2.878  52.912  1.00  0.00    -0.340 N 
HETATM   26  H12 UNL     1      25.584   3.533  53.574  1.00  0.00     0.167 HD
BRANCH  25  27
HETATM   27  C12 UNL     1      25.921   1.683  52.921  1.00  0.00     0.035 A 
HETATM   28  C13 UNL     1      25.474   0.421  52.592  1.00  0.00     0.032 A 
HETATM   29  C14 UNL     1      26.260  -0.701  52.612  1.00  0.00     0.046 A 
HETATM   30  C15 UNL     1      27.587  -0.619  52.976  1.00  0.00     0.138 A 
HETATM   31  F1  UNL     1      28.263  -1.784  52.959  1.00  0.00    -0.204 F 
HETATM   32  C16 UNL     1      28.070   0.628  53.312  1.00  0.00     0.074 A 
HETATM   33 CL1  UNL     1      29.766   0.650  53.763  1.00  0.00    -0.081 Cl
HETATM   34  C17 UNL     1      27.253   1.730  53.280  1.00  0.00     0.056 A 
ENDBRANCH  25  27
ENDBRANCH   4  25
TORSDOF 8
ENDMDL
MODEL 9
REMARK VINA RESULT:      -8.0      2.986      4.465
REMARK  8 active torsions:
REMARK  status: ('A' for Active; 'I' for Inactive)
REMARK    1  A    between atoms: C2_2  and  N1_4 
REMARK    2  A    between atoms: N1_4  and  C4_5 
REMARK    3  A    between atoms: N1_4  and  C21_30 
REMARK    4  A    between atoms: C4_5  and  C5_6 
REMARK    5  A    between atoms: C6_7  and  C7_8 
REMARK       I    between atoms: C7_8  and  N2_10 
REMARK    6  A    between atoms: N2_10  and  C8_11 
REMARK    7  A    between atoms: C11_14  and  N3_15 
REMARK    8  A    between atoms: N3_15  and  C12_16 
ROOT
HETATM    1  C8  UNL     1      26.636   5.129  49.186  1.00  0.00     0.131 A 
HETATM    2  C9  UNL     1      25.789   4.178  49.722  1.00  0.00     0.068 A 
HETATM    3  C10 UNL     1      24.557   4.448  50.275  1.00  0.00     0.044 A 
HETATM    4  C11 UNL     1      23.710   3.520  50.808  1.00  0.00     0.142 A 
HETATM    5  N4  UNL     1      22.563   4.003  51.291  1.00  0.00    -0.224 NA
HETATM    6  C18 UNL     1      22.179   5.283  51.300  1.00  0.00     0.236 A 
HETATM    7  N5  UNL     1      23.052   6.178  50.759  1.00  0.00    -0.240 NA
HETATM    8  C19 UNL     1      24.215   5.781  50.255  1.00  0.00     0.089 A 
HETATM    9  C20 UNL     1      25.024   6.762  49.734  1.00  0.00     0.151 A 
HETATM   10  N6  UNL     1      26.207   6.404  49.217  1.00  0.00    -0.241 NA
ENDROOT
BRANCH   1  11
HETATM   11  N2  UNL     1      27.903   4.809  48.625  1.00  0.00    -0.301 N 
HETATM   12  C7  UNL     1      28.839   5.825  48.386  1.00  0.00     0.302 C 
HETATM   13  O1  UNL     1      28.539   7.003  48.673  1.00  0.00    -0.258 OA
HETATM   14  H10 UNL     1      28.159   3.837  48.385  1.00  0.00     0.171 HD
BRANCH  12  15
HETATM   15  C6  UNL     1      30.143   5.612  47.826  1.00  0.00    -0.004 C 
HETATM   16  C5  UNL     1      31.242   5.413  47.361  1.00  0.00    -0.066 C 
BRANCH  16  17
HETATM   17  C4  UNL     1      32.588   5.145  46.794  1.00  0.00     0.367 C 
BRANCH  17  18
HETATM   18  N1  UNL     1      33.384   4.683  47.915  1.00  0.00     0.107 N 
BRANCH  18  19
HETATM   19  C2  UNL     1      34.131   5.757  48.459  1.00  0.00     0.216 C 
HETATM   20  C1  UNL     1      34.403   6.869  47.469  1.00  0.00     0.042 C 
HETATM   21  C3  UNL     1      35.363   5.407  49.207  1.00  0.00     0.042 C 
ENDBRANCH  18  19
BRANCH  18  22
HETATM   22  C21 UNL     1      34.058   3.460  47.659  1.00  0.00     0.216 C 
HETATM   23  C22 UNL     1      33.254   2.209  47.886  1.00  0.00     0.042 C 
HETATM   24  C23 UNL     1      34.595   3.400  46.225  1.00  0.00     0.042 C 
ENDBRANCH  18  22
ENDBRANCH  17  18
ENDBRANCH  16  17
ENDBRANCH  12  15
ENDBRANCH   1  11
BRANCH   4  25
HETATM   25  N3  UNL     1      24.090   2.156  50.805  1.00  0.00    -0.340 N 
HETATM   26  H12 UNL     1      24.237   1.637  49.932  1.00  0.00     0.167 HD
BRANCH  25  27
HETATM   27  C12 UNL     1      24.333   1.268  51.886  1.00  0.00     0.035 A 
HETATM   28  C13 UNL     1      25.567   0.856  52.343  1.00  0.00     0.032 A 
HETATM   29  C14 UNL     1      25.747  -0.002  53.397  1.00  0.00     0.046 A 
HETATM   30  C15 UNL     1      24.663  -0.513  54.076  1.00  0.00     0.138 A 
HETATM   31  F1  UNL     1      24.958  -1.344  55.095  1.00  0.00    -0.204 F 
HETATM   32  C16 UNL     1      23.411  -0.122  53.647  1.00  0.00     0.074 A 
HETATM   33 CL1  UNL     1      22.083  -0.814  54.562  1.00  0.00    -0.081 Cl
HETATM   34  C17 UNL     1      23.269   0.739  52.587  1.00  0.00     0.056 A 
ENDBRANCH  25  27
ENDBRANCH   4  25
TORSDOF 8
ENDMDL
