MODEL 1
REMARK VINA RESULT:      -8.6      0.000      0.000
REMARK  6 active torsions:
REMARK  status: ('A' for Active; 'I' for Inactive)
REMARK    1  A    between atoms: C5_5  and  C6_6 
REMARK    2  A    between atoms: C8_8  and  C9_9 
REMARK    3  A    between atoms: N2_16  and  C15_17 
REMARK    4  A    between atoms: C15_17  and  S1_18 
REMARK    5  A    between atoms: S1_18  and  C16_19 
REMARK    6  A    between atoms: C17_20  and  O1_21 
ROOT
HETATM    1  C6  UNL     1      23.622   1.017  53.461  1.00  0.00     0.144 C 
HETATM    2  C7  UNL     1      24.603  -0.083  53.107  1.00  0.00     0.093 C 
HETATM    3  C8  UNL     1      25.880   0.679  53.083  1.00  0.00     0.067 C 
HETATM    4  N1  UNL     1      25.631   1.918  52.960  1.00  0.00    -0.179 NA
HETATM    5  N2  UNL     1      24.256   2.165  52.889  1.00  0.00    -0.286 N 
ENDROOT
BRANCH   1   6
HETATM    6  C5  UNL     1      22.292   0.723  52.822  1.00  0.00    -0.033 A 
HETATM    7  C4  UNL     1      21.237   0.529  53.720  1.00  0.00     0.010 A 
HETATM    8  C3  UNL     1      19.965   0.252  53.249  1.00  0.00     0.007 A 
HETATM    9  C2  UNL     1      19.750   0.171  51.896  1.00  0.00    -0.062 A 
HETATM   10  C1  UNL     1      18.434  -0.118  51.280  1.00  0.00     0.048 C 
HETATM   11  C19 UNL     1      20.799   0.365  50.993  1.00  0.00     0.007 A 
HETATM   12  C18 UNL     1      22.068   0.641  51.461  1.00  0.00     0.010 A 
ENDBRANCH   1   6
BRANCH   5  13
HETATM   13  C15 UNL     1      23.825   3.421  52.302  1.00  0.00     0.223 C 
BRANCH  13  14
HETATM   14  S1  UNL     1      24.170   3.411  50.501  1.00  0.00    -0.115 SA
BRANCH  14  15
HETATM   15  C16 UNL     1      25.494   4.569  50.200  1.00  0.00     0.115 C 
HETATM   16  C17 UNL     1      26.606   4.204  49.538  1.00  0.00     0.229 C 
HETATM   17  F1  UNL     1      26.968   3.015  48.997  1.00  0.00    -0.178 F 
BRANCH  16  18
HETATM   18  O1  UNL     1      27.839   4.637  49.060  1.00  0.00    -0.337 OA
HETATM   19  H17 UNL     1      28.011   4.779  48.057  1.00  0.00     0.220 HD
ENDBRANCH  16  18
ENDBRANCH  14  15
ENDBRANCH  13  14
ENDBRANCH   5  13
BRANCH   3  20
HETATM   20  C9  UNL     1      27.202   0.039  53.189  1.00  0.00    -0.010 A 
HETATM   21  C10 UNL     1      27.395  -1.300  52.931  1.00  0.00     0.013 A 
HETATM   22  C11 UNL     1      28.685  -1.814  53.057  1.00  0.00     0.001 A 
HETATM   23  C12 UNL     1      29.771  -1.038  53.429  1.00  0.00     0.000 A 
HETATM   24  C13 UNL     1      29.574   0.312  53.689  1.00  0.00     0.001 A 
HETATM   25  C14 UNL     1      28.293   0.803  53.558  1.00  0.00     0.013 A 
ENDBRANCH   3  20
TORSDOF 6
ENDMDL
MODEL 2
REMARK VINA RESULT:      -8.5      2.066      2.279
REMARK  6 active torsions:
REMARK  status: ('A' for Active; 'I' for Inactive)
REMARK    1  A    between atoms: C5_5  and  C6_6 
REMARK    2  A    between atoms: C8_8  and  C9_9 
REMARK    3  A    between atoms: N2_16  and  C15_17 
REMARK    4  A    between atoms: C15_17  and  S1_18 
REMARK    5  A    between atoms: S1_18  and  C16_19 
REMARK    6  A    between atoms: C17_20  and  O1_21 
ROOT
HETATM    1  C6  UNL     1      23.423   0.730  53.285  1.00  0.00     0.144 C 
HETATM    2  C7  UNL     1      24.391  -0.402  53.562  1.00  0.00     0.093 C 
HETATM    3  C8  UNL     1      25.575   0.045  52.782  1.00  0.00     0.067 C 
HETATM    4  N1  UNL     1      25.215   0.907  51.922  1.00  0.00    -0.179 NA
HETATM    5  N2  UNL     1      23.839   1.156  51.983  1.00  0.00    -0.286 N 
ENDROOT
BRANCH   1   6
HETATM    6  C5  UNL     1      22.017   0.197  53.287  1.00  0.00    -0.033 A 
HETATM    7  C4  UNL     1      21.838  -0.991  54.004  1.00  0.00     0.010 A 
HETATM    8  C3  UNL     1      20.586  -1.577  54.077  1.00  0.00     0.007 A 
HETATM    9  C2  UNL     1      19.525  -0.982  53.441  1.00  0.00    -0.062 A 
HETATM   10  C1  UNL     1      18.143  -1.518  53.452  1.00  0.00     0.048 C 
HETATM   11  C19 UNL     1      19.696   0.205  52.723  1.00  0.00     0.007 A 
HETATM   12  C18 UNL     1      20.943   0.790  52.649  1.00  0.00     0.010 A 
ENDBRANCH   1   6
BRANCH   5  13
HETATM   13  C15 UNL     1      23.205   1.736  50.814  1.00  0.00     0.223 C 
BRANCH  13  14
HETATM   14  S1  UNL     1      24.169   3.188  50.244  1.00  0.00    -0.115 SA
BRANCH  14  15
HETATM   15  C16 UNL     1      23.634   4.598  51.198  1.00  0.00     0.115 C 
HETATM   16  C17 UNL     1      23.831   4.661  52.526  1.00  0.00     0.229 C 
HETATM   17  F1  UNL     1      24.411   3.784  53.380  1.00  0.00    -0.178 F 
BRANCH  16  18
HETATM   18  O1  UNL     1      23.645   5.433  53.668  1.00  0.00    -0.337 OA
HETATM   19  H17 UNL     1      24.148   5.236  54.542  1.00  0.00     0.220 HD
ENDBRANCH  16  18
ENDBRANCH  14  15
ENDBRANCH  13  14
ENDBRANCH   5  13
BRANCH   3  20
HETATM   20  C9  UNL     1      26.936  -0.468  53.016  1.00  0.00    -0.010 A 
HETATM   21  C10 UNL     1      27.276  -1.783  52.789  1.00  0.00     0.013 A 
HETATM   22  C11 UNL     1      28.590  -2.175  53.039  1.00  0.00     0.001 A 
HETATM   23  C12 UNL     1      29.559  -1.301  53.505  1.00  0.00     0.000 A 
HETATM   24  C13 UNL     1      29.215   0.025  53.734  1.00  0.00     0.001 A 
HETATM   25  C14 UNL     1      27.911   0.393  53.480  1.00  0.00     0.013 A 
ENDBRANCH   3  20
TORSDOF 6
ENDMDL
MODEL 3
REMARK VINA RESULT:      -8.3      2.653      2.935
REMARK  6 active torsions:
REMARK  status: ('A' for Active; 'I' for Inactive)
REMARK    1  A    between atoms: C5_5  and  C6_6 
REMARK    2  A    between atoms: C8_8  and  C9_9 
REMARK    3  A    between atoms: N2_16  and  C15_17 
REMARK    4  A    between atoms: C15_17  and  S1_18 
REMARK    5  A    between atoms: S1_18  and  C16_19 
REMARK    6  A    between atoms: C17_20  and  O1_21 
ROOT
HETATM    1  C6  UNL     1      23.841   1.222  53.066  1.00  0.00     0.144 C 
HETATM    2  C7  UNL     1      24.721  -0.012  53.045  1.00  0.00     0.093 C 
HETATM    3  C8  UNL     1      26.044   0.594  52.740  1.00  0.00     0.067 C 
HETATM    4  N1  UNL     1      25.876   1.750  52.242  1.00  0.00    -0.179 NA
HETATM    5  N2  UNL     1      24.519   2.078  52.142  1.00  0.00    -0.286 N 
ENDROOT
BRANCH   1   6
HETATM    6  C5  UNL     1      22.459   0.857  52.597  1.00  0.00    -0.033 A 
HETATM    7  C4  UNL     1      21.548   0.562  53.617  1.00  0.00     0.010 A 
HETATM    8  C3  UNL     1      20.246   0.213  53.306  1.00  0.00     0.007 A 
HETATM    9  C2  UNL     1      19.857   0.160  51.991  1.00  0.00    -0.062 A 
HETATM   10  C1  UNL     1      18.492  -0.199  51.541  1.00  0.00     0.048 C 
HETATM   11  C19 UNL     1      20.762   0.454  50.966  1.00  0.00     0.007 A 
HETATM   12  C18 UNL     1      22.061   0.803  51.274  1.00  0.00     0.010 A 
ENDBRANCH   1   6
BRANCH   5  13
HETATM   13  C15 UNL     1      24.144   3.120  51.204  1.00  0.00     0.223 C 
BRANCH  13  14
HETATM   14  S1  UNL     1      23.179   4.415  52.072  1.00  0.00    -0.115 SA
BRANCH  14  15
HETATM   15  C16 UNL     1      21.655   4.646  51.173  1.00  0.00     0.115 C 
HETATM   16  C17 UNL     1      20.495   4.132  51.616  1.00  0.00     0.229 C 
HETATM   17  F1  UNL     1      20.213   3.398  52.719  1.00  0.00    -0.178 F 
BRANCH  16  18
HETATM   18  O1  UNL     1      19.133   4.006  51.357  1.00  0.00    -0.337 OA
HETATM   19  H17 UNL     1      18.546   4.821  51.142  1.00  0.00     0.220 HD
ENDBRANCH  16  18
ENDBRANCH  14  15
ENDBRANCH  13  14
ENDBRANCH   5  13
BRANCH   3  20
HETATM   20  C9  UNL     1      27.323  -0.090  52.999  1.00  0.00    -0.010 A 
HETATM   21  C10 UNL     1      27.467  -1.453  52.870  1.00  0.00     0.013 A 
HETATM   22  C11 UNL     1      28.718  -2.009  53.136  1.00  0.00     0.001 A 
HETATM   23  C12 UNL     1      29.811  -1.251  53.522  1.00  0.00     0.000 A 
HETATM   24  C13 UNL     1      29.664   0.124  53.651  1.00  0.00     0.001 A 
HETATM   25  C14 UNL     1      28.420   0.656  53.383  1.00  0.00     0.013 A 
ENDBRANCH   3  20
TORSDOF 6
ENDMDL
MODEL 4
REMARK VINA RESULT:      -8.1      2.006      2.236
REMARK  6 active torsions:
REMARK  status: ('A' for Active; 'I' for Inactive)
REMARK    1  A    between atoms: C5_5  and  C6_6 
REMARK    2  A    between atoms: C8_8  and  C9_9 
REMARK    3  A    between atoms: N2_16  and  C15_17 
REMARK    4  A    between atoms: C15_17  and  S1_18 
REMARK    5  A    between atoms: S1_18  and  C16_19 
REMARK    6  A    between atoms: C17_20  and  O1_21 
ROOT
HETATM    1  C6  UNL     1      23.836   2.164  52.511  1.00  0.00     0.144 C 
HETATM    2  C7  UNL     1      24.568   0.872  52.809  1.00  0.00     0.093 C 
HETATM    3  C8  UNL     1      25.943   1.220  52.364  1.00  0.00     0.067 C 
HETATM    4  N1  UNL     1      25.894   2.222  51.585  1.00  0.00    -0.179 NA
HETATM    5  N2  UNL     1      24.582   2.671  51.400  1.00  0.00    -0.286 N 
ENDROOT
BRANCH   1   6
HETATM    6  C5  UNL     1      22.409   1.857  52.146  1.00  0.00    -0.033 A 
HETATM    7  C4  UNL     1      22.232   0.698  51.384  1.00  0.00     0.010 A 
HETATM    8  C3  UNL     1      20.962   0.313  50.988  1.00  0.00     0.007 A 
HETATM    9  C2  UNL     1      19.883   1.079  51.350  1.00  0.00    -0.062 A 
HETATM   10  C1  UNL     1      18.481   0.765  50.985  1.00  0.00     0.048 C 
HETATM   11  C19 UNL     1      20.052   2.239  52.112  1.00  0.00     0.007 A 
HETATM   12  C18 UNL     1      21.316   2.623  52.507  1.00  0.00     0.010 A 
ENDBRANCH   1   6
BRANCH   5  13
HETATM   13  C15 UNL     1      24.303   3.476  50.225  1.00  0.00     0.223 C 
BRANCH  13  14
HETATM   14  S1  UNL     1      25.759   4.517  49.829  1.00  0.00    -0.115 SA
BRANCH  14  15
HETATM   15  C16 UNL     1      25.240   6.222  49.905  1.00  0.00     0.115 C 
HETATM   16  C17 UNL     1      24.524   6.691  50.941  1.00  0.00     0.229 C 
HETATM   17  F1  UNL     1      24.067   6.072  52.057  1.00  0.00    -0.178 F 
BRANCH  16  18
HETATM   18  O1  UNL     1      23.906   7.814  51.482  1.00  0.00    -0.337 OA
HETATM   19  H17 UNL     1      23.991   8.051  52.478  1.00  0.00     0.220 HD
ENDBRANCH  16  18
ENDBRANCH  14  15
ENDBRANCH  13  14
ENDBRANCH   5  13
BRANCH   3  20
HETATM   20  C9  UNL     1      27.141   0.479  52.793  1.00  0.00    -0.010 A 
HETATM   21  C10 UNL     1      27.209  -0.896  52.756  1.00  0.00     0.013 A 
HETATM   22  C11 UNL     1      28.387  -1.507  53.182  1.00  0.00     0.001 A 
HETATM   23  C12 UNL     1      29.483  -0.792  53.638  1.00  0.00     0.000 A 
HETATM   24  C13 UNL     1      29.413   0.595  53.675  1.00  0.00     0.001 A 
HETATM   25  C14 UNL     1      28.240   1.181  53.248  1.00  0.00     0.013 A 
ENDBRANCH   3  20
TORSDOF 6
ENDMDL
MODEL 5
REMARK VINA RESULT:      -8.1      1.338      6.270
REMARK  6 active torsions:
REMARK  status: ('A' for Active; 'I' for Inactive)
REMARK    1  A    between atoms: C5_5  and  C6_6 
REMARK    2  A    between atoms: C8_8  and  C9_9 
REMARK    3  A    between atoms: N2_16  and  C15_17 
REMARK    4  A    between atoms: C15_17  and  S1_18 
REMARK    5  A    between atoms: S1_18  and  C16_19 
REMARK    6  A    between atoms: C17_20  and  O1_21 
ROOT
HETATM    1  C6  UNL     1      23.845   0.903  51.762  1.00  0.00     0.144 C 
HETATM    2  C7  UNL     1      22.777   0.015  52.369  1.00  0.00     0.093 C 
HETATM    3  C8  UNL     1      21.560   0.833  52.124  1.00  0.00     0.067 C 
HETATM    4  N1  UNL     1      21.898   2.037  51.903  1.00  0.00    -0.179 NA
HETATM    5  N2  UNL     1      23.285   2.205  51.959  1.00  0.00    -0.286 N 
ENDROOT
BRANCH   1   6
HETATM    6  C5  UNL     1      25.135   0.717  52.512  1.00  0.00    -0.033 A 
HETATM    7  C4  UNL     1      24.993   0.255  53.825  1.00  0.00     0.010 A 
HETATM    8  C3  UNL     1      26.111   0.046  54.613  1.00  0.00     0.007 A 
HETATM    9  C2  UNL     1      27.357   0.297  54.096  1.00  0.00    -0.062 A 
HETATM   10  C1  UNL     1      28.621   0.109  54.846  1.00  0.00     0.048 C 
HETATM   11  C19 UNL     1      27.507   0.758  52.785  1.00  0.00     0.007 A 
HETATM   12  C18 UNL     1      26.393   0.967  51.997  1.00  0.00     0.010 A 
ENDBRANCH   1   6
BRANCH   5  13
HETATM   13  C15 UNL     1      23.795   3.545  52.186  1.00  0.00     0.223 C 
BRANCH  13  14
HETATM   14  S1  UNL     1      23.615   4.542  50.659  1.00  0.00    -0.115 SA
BRANCH  14  15
HETATM   15  C16 UNL     1      25.227   5.182  50.238  1.00  0.00     0.115 C 
HETATM   16  C17 UNL     1      26.191   4.385  49.747  1.00  0.00     0.229 C 
HETATM   17  F1  UNL     1      26.193   3.057  49.476  1.00  0.00    -0.178 F 
BRANCH  16  18
HETATM   18  O1  UNL     1      27.504   4.337  49.288  1.00  0.00    -0.337 OA
HETATM   19  H17 UNL     1      28.297   4.589  49.890  1.00  0.00     0.220 HD
ENDBRANCH  16  18
ENDBRANCH  14  15
ENDBRANCH  13  14
ENDBRANCH   5  13
BRANCH   3  20
HETATM   20  C9  UNL     1      20.197   0.277  52.148  1.00  0.00    -0.010 A 
HETATM   21  C10 UNL     1      19.297   0.488  51.127  1.00  0.00     0.013 A 
HETATM   22  C11 UNL     1      18.030  -0.080  51.239  1.00  0.00     0.001 A 
HETATM   23  C12 UNL     1      17.642  -0.843  52.329  1.00  0.00     0.000 A 
HETATM   24  C13 UNL     1      18.550  -1.056  53.358  1.00  0.00     0.001 A 
HETATM   25  C14 UNL     1      19.799  -0.486  53.228  1.00  0.00     0.013 A 
ENDBRANCH   3  20
TORSDOF 6
ENDMDL
MODEL 6
REMARK VINA RESULT:      -8.1      3.933      5.766
REMARK  6 active torsions:
REMARK  status: ('A' for Active; 'I' for Inactive)
REMARK    1  A    between atoms: C5_5  and  C6_6 
REMARK    2  A    between atoms: C8_8  and  C9_9 
REMARK    3  A    between atoms: N2_16  and  C15_17 
REMARK    4  A    between atoms: C15_17  and  S1_18 
REMARK    5  A    between atoms: S1_18  and  C16_19 
REMARK    6  A    between atoms: C17_20  and  O1_21 
ROOT
HETATM    1  C6  UNL     1      23.103   2.758  51.308  1.00  0.00     0.144 C 
HETATM    2  C7  UNL     1      24.559   3.159  51.193  1.00  0.00     0.093 C 
HETATM    3  C8  UNL     1      24.607   3.639  49.786  1.00  0.00     0.067 C 
HETATM    4  N1  UNL     1      23.610   3.179  49.148  1.00  0.00    -0.179 NA
HETATM    5  N2  UNL     1      22.799   2.380  49.961  1.00  0.00    -0.286 N 
ENDROOT
BRANCH   1   6
HETATM    6  C5  UNL     1      22.977   1.604  52.265  1.00  0.00    -0.033 A 
HETATM    7  C4  UNL     1      21.717   1.466  52.859  1.00  0.00     0.010 A 
HETATM    8  C3  UNL     1      21.482   0.440  53.758  1.00  0.00     0.007 A 
HETATM    9  C2  UNL     1      22.493  -0.437  54.059  1.00  0.00    -0.062 A 
HETATM   10  C1  UNL     1      22.355  -1.571  55.004  1.00  0.00     0.048 C 
HETATM   11  C19 UNL     1      23.753  -0.306  53.469  1.00  0.00     0.007 A 
HETATM   12  C18 UNL     1      23.990   0.716  52.573  1.00  0.00     0.010 A 
ENDBRANCH   1   6
BRANCH   5  13
HETATM   13  C15 UNL     1      21.913   1.433  49.309  1.00  0.00     0.223 C 
BRANCH  13  14
HETATM   14  S1  UNL     1      20.466   2.319  48.614  1.00  0.00    -0.115 SA
BRANCH  14  15
HETATM   15  C16 UNL     1      19.193   2.339  49.865  1.00  0.00     0.115 C 
HETATM   16  C17 UNL     1      19.233   3.206  50.892  1.00  0.00     0.229 C 
HETATM   17  F1  UNL     1      20.134   4.168  51.206  1.00  0.00    -0.178 F 
BRANCH  16  18
HETATM   18  O1  UNL     1      18.584   3.635  52.045  1.00  0.00    -0.337 OA
HETATM   19  H17 UNL     1      17.958   3.018  52.575  1.00  0.00     0.220 HD
ENDBRANCH  16  18
ENDBRANCH  14  15
ENDBRANCH  13  14
ENDBRANCH   5  13
BRANCH   3  20
HETATM   20  C9  UNL     1      25.673   4.514  49.269  1.00  0.00    -0.010 A 
HETATM   21  C10 UNL     1      26.976   4.087  49.135  1.00  0.00     0.013 A 
HETATM   22  C11 UNL     1      27.914   4.988  48.635  1.00  0.00     0.001 A 
HETATM   23  C12 UNL     1      27.591   6.285  48.270  1.00  0.00     0.000 A 
HETATM   24  C13 UNL     1      26.277   6.714  48.405  1.00  0.00     0.001 A 
HETATM   25  C14 UNL     1      25.363   5.809  48.901  1.00  0.00     0.013 A 
ENDBRANCH   3  20
TORSDOF 6
ENDMDL
MODEL 7
REMARK VINA RESULT:      -8.0      3.884      5.335
REMARK  6 active torsions:
REMARK  status: ('A' for Active; 'I' for Inactive)
REMARK    1  A    between atoms: C5_5  and  C6_6 
REMARK    2  A    between atoms: C8_8  and  C9_9 
REMARK    3  A    between atoms: N2_16  and  C15_17 
REMARK    4  A    between atoms: C15_17  and  S1_18 
REMARK    5  A    between atoms: S1_18  and  C16_19 
REMARK    6  A    between atoms: C17_20  and  O1_21 
ROOT
HETATM    1  C6  UNL     1      24.221   1.249  51.721  1.00  0.00     0.144 C 
HETATM    2  C7  UNL     1      25.705   1.366  52.004  1.00  0.00     0.093 C 
HETATM    3  C8  UNL     1      25.931   0.145  52.822  1.00  0.00     0.067 C 
HETATM    4  N1  UNL     1      24.822  -0.265  53.285  1.00  0.00    -0.179 NA
HETATM    5  N2  UNL     1      23.759   0.551  52.882  1.00  0.00    -0.286 N 
ENDROOT
BRANCH   1   6
HETATM    6  C5  UNL     1      23.625   2.626  51.610  1.00  0.00    -0.033 A 
HETATM    7  C4  UNL     1      22.731   2.797  50.548  1.00  0.00     0.010 A 
HETATM    8  C3  UNL     1      22.118   4.022  50.345  1.00  0.00     0.007 A 
HETATM    9  C2  UNL     1      22.397   5.063  51.194  1.00  0.00    -0.062 A 
HETATM   10  C1  UNL     1      21.801   6.415  51.074  1.00  0.00     0.048 C 
HETATM   11  C19 UNL     1      23.289   4.900  52.258  1.00  0.00     0.007 A 
HETATM   12  C18 UNL     1      23.899   3.680  52.462  1.00  0.00     0.010 A 
ENDBRANCH   1   6
BRANCH   5  13
HETATM   13  C15 UNL     1      22.538   0.507  53.666  1.00  0.00     0.223 C 
BRANCH  13  14
HETATM   14  S1  UNL     1      21.183  -0.209  52.659  1.00  0.00    -0.115 SA
BRANCH  14  15
HETATM   15  C16 UNL     1      19.906  -0.752  53.781  1.00  0.00     0.115 C 
HETATM   16  C17 UNL     1      18.639  -0.927  53.368  1.00  0.00     0.229 C 
HETATM   17  F1  UNL     1      18.071  -0.759  52.149  1.00  0.00    -0.178 F 
BRANCH  16  18
HETATM   18  O1  UNL     1      17.356  -1.298  53.758  1.00  0.00    -0.337 OA
HETATM   19  H17 UNL     1      16.970  -2.223  53.537  1.00  0.00     0.220 HD
ENDBRANCH  16  18
ENDBRANCH  14  15
ENDBRANCH  13  14
ENDBRANCH   5  13
BRANCH   3  20
HETATM   20  C9  UNL     1      27.261  -0.453  53.029  1.00  0.00    -0.010 A 
HETATM   21  C10 UNL     1      27.507  -1.792  52.826  1.00  0.00     0.013 A 
HETATM   22  C11 UNL     1      28.799  -2.265  53.047  1.00  0.00     0.001 A 
HETATM   23  C12 UNL     1      29.838  -1.446  53.461  1.00  0.00     0.000 A 
HETATM   24  C13 UNL     1      29.589  -0.096  53.665  1.00  0.00     0.001 A 
HETATM   25  C14 UNL     1      28.305   0.353  53.440  1.00  0.00     0.013 A 
ENDBRANCH   3  20
TORSDOF 6
ENDMDL
MODEL 8
REMARK VINA RESULT:      -8.0      3.321      5.383
REMARK  6 active torsions:
REMARK  status: ('A' for Active; 'I' for Inactive)
REMARK    1  A    between atoms: C5_5  and  C6_6 
REMARK    2  A    between atoms: C8_8  and  C9_9 
REMARK    3  A    between atoms: N2_16  and  C15_17 
REMARK    4  A    between atoms: C15_17  and  S1_18 
REMARK    5  A    between atoms: S1_18  and  C16_19 
REMARK    6  A    between atoms: C17_20  and  O1_21 
ROOT
HETATM    1  C6  UNL     1      24.849   1.983  50.745  1.00  0.00     0.144 C 
HETATM    2  C7  UNL     1      26.337   1.943  51.032  1.00  0.00     0.093 C 
HETATM    3  C8  UNL     1      26.352   1.205  52.323  1.00  0.00     0.067 C 
HETATM    4  N1  UNL     1      25.200   1.257  52.854  1.00  0.00    -0.179 NA
HETATM    5  N2  UNL     1      24.299   1.980  52.065  1.00  0.00    -0.286 N 
ENDROOT
BRANCH   1   6
HETATM    6  C5  UNL     1      24.520   3.243  49.992  1.00  0.00    -0.033 A 
HETATM    7  C4  UNL     1      25.422   4.296  50.182  1.00  0.00     0.010 A 
HETATM    8  C3  UNL     1      25.222   5.506  49.540  1.00  0.00     0.007 A 
HETATM    9  C2  UNL     1      24.134   5.662  48.719  1.00  0.00    -0.062 A 
HETATM   10  C1  UNL     1      23.821   6.909  47.982  1.00  0.00     0.048 C 
HETATM   11  C19 UNL     1      23.229   4.615  48.524  1.00  0.00     0.007 A 
HETATM   12  C18 UNL     1      23.427   3.407  49.163  1.00  0.00     0.010 A 
ENDBRANCH   1   6
BRANCH   5  13
HETATM   13  C15 UNL     1      23.115   2.517  52.712  1.00  0.00     0.223 C 
BRANCH  13  14
HETATM   14  S1  UNL     1      21.631   1.606  52.139  1.00  0.00    -0.115 SA
BRANCH  14  15
HETATM   15  C16 UNL     1      21.716  -0.043  52.816  1.00  0.00     0.115 C 
HETATM   16  C17 UNL     1      21.308  -0.309  54.069  1.00  0.00     0.229 C 
HETATM   17  F1  UNL     1      20.791   0.501  55.024  1.00  0.00    -0.178 F 
BRANCH  16  18
HETATM   18  O1  UNL     1      21.155  -1.304  55.029  1.00  0.00    -0.337 OA
HETATM   19  H17 UNL     1      20.517  -1.193  55.826  1.00  0.00     0.220 HD
ENDBRANCH  16  18
ENDBRANCH  14  15
ENDBRANCH  13  14
ENDBRANCH   5  13
BRANCH   3  20
HETATM   20  C9  UNL     1      27.552   0.535  52.855  1.00  0.00    -0.010 A 
HETATM   21  C10 UNL     1      28.623   1.237  53.360  1.00  0.00     0.013 A 
HETATM   22  C11 UNL     1      29.714   0.514  53.842  1.00  0.00     0.001 A 
HETATM   23  C12 UNL     1      29.761  -0.871  53.831  1.00  0.00     0.000 A 
HETATM   24  C13 UNL     1      28.680  -1.577  53.321  1.00  0.00     0.001 A 
HETATM   25  C14 UNL     1      27.611  -0.845  52.850  1.00  0.00     0.013 A 
ENDBRANCH   3  20
TORSDOF 6
ENDMDL
MODEL 9
REMARK VINA RESULT:      -7.8      3.400      6.702
REMARK  6 active torsions:
REMARK  status: ('A' for Active; 'I' for Inactive)
REMARK    1  A    between atoms: C5_5  and  C6_6 
REMARK    2  A    between atoms: C8_8  and  C9_9 
REMARK    3  A    between atoms: N2_16  and  C15_17 
REMARK    4  A    between atoms: C15_17  and  S1_18 
REMARK    5  A    between atoms: S1_18  and  C16_19 
REMARK    6  A    between atoms: C17_20  and  O1_21 
ROOT
HETATM    1  C6  UNL     1      25.600   4.089  49.470  1.00  0.00     0.144 C 
HETATM    2  C7  UNL     1      26.453   3.048  50.167  1.00  0.00     0.093 C 
HETATM    3  C8  UNL     1      25.544   2.633  51.268  1.00  0.00     0.067 C 
HETATM    4  N1  UNL     1      24.656   3.525  51.442  1.00  0.00    -0.179 NA
HETATM    5  N2  UNL     1      24.816   4.594  50.555  1.00  0.00    -0.286 N 
ENDROOT
BRANCH   1   6
HETATM    6  C5  UNL     1      26.490   5.144  48.871  1.00  0.00    -0.033 A 
HETATM    7  C4  UNL     1      27.837   4.784  48.757  1.00  0.00     0.010 A 
HETATM    8  C3  UNL     1      28.751   5.674  48.219  1.00  0.00     0.007 A 
HETATM    9  C2  UNL     1      28.324   6.909  47.801  1.00  0.00    -0.062 A 
HETATM   10  C1  UNL     1      29.211   7.939  47.211  1.00  0.00     0.048 C 
HETATM   11  C19 UNL     1      26.980   7.276  47.912  1.00  0.00     0.007 A 
HETATM   12  C18 UNL     1      26.067   6.390  48.447  1.00  0.00     0.010 A 
ENDBRANCH   1   6
BRANCH   5  13
HETATM   13  C15 UNL     1      24.203   5.862  50.908  1.00  0.00     0.223 C 
BRANCH  13  14
HETATM   14  S1  UNL     1      22.572   6.011  50.083  1.00  0.00    -0.115 SA
BRANCH  14  15
HETATM   15  C16 UNL     1      21.318   5.632  51.295  1.00  0.00     0.115 C 
HETATM   16  C17 UNL     1      21.030   4.363  51.631  1.00  0.00     0.229 C 
HETATM   17  F1  UNL     1      21.549   3.189  51.196  1.00  0.00    -0.178 F 
BRANCH  16  18
HETATM   18  O1  UNL     1      20.232   3.551  52.431  1.00  0.00    -0.337 OA
HETATM   19  H17 UNL     1      19.911   3.852  53.359  1.00  0.00     0.220 HD
ENDBRANCH  16  18
ENDBRANCH  14  15
ENDBRANCH  13  14
ENDBRANCH   5  13
BRANCH   3  20
HETATM   20  C9  UNL     1      25.699   1.370  52.008  1.00  0.00    -0.010 A 
HETATM   21  C10 UNL     1      26.764   0.521  51.802  1.00  0.00     0.013 A 
HETATM   22  C11 UNL     1      26.824  -0.652  52.552  1.00  0.00     0.001 A 
HETATM   23  C12 UNL     1      25.862  -0.996  53.488  1.00  0.00     0.000 A 
HETATM   24  C13 UNL     1      24.789  -0.140  53.695  1.00  0.00     0.001 A 
HETATM   25  C14 UNL     1      24.747   1.016  52.945  1.00  0.00     0.013 A 
ENDBRANCH   3  20
TORSDOF 6
ENDMDL
