MODEL 1
REMARK VINA RESULT:      -8.6      0.000      0.000
REMARK  2 active torsions:
REMARK  status: ('A' for Active; 'I' for Inactive)
REMARK    1  A    between atoms: C10_13  and  N3_14 
REMARK    2  A    between atoms: N3_14  and  C11_15 
ROOT
HETATM    1  C1  UNL     1      23.777   5.596  49.461  1.00  0.00     0.041 C 
HETATM    2  C2  UNL     1      23.200   4.465  48.709  1.00  0.00     0.032 C 
HETATM    3  C3  UNL     1      22.926   3.320  49.358  1.00  0.00     0.177 C 
HETATM    4  O1  UNL     1      23.200   3.253  50.712  1.00  0.00    -0.330 OA
HETATM    5  C4  UNL     1      24.397   2.846  51.315  1.00  0.00     0.182 C 
HETATM    6  C5  UNL     1      24.509   1.395  51.557  1.00  0.00     0.064 C 
HETATM    7  C6  UNL     1      23.527   0.731  52.443  1.00  0.00    -0.038 C 
HETATM    8  C7  UNL     1      23.490   0.012  53.606  1.00  0.00     0.013 C 
HETATM    9  C8  UNL     1      22.280  -0.508  54.186  1.00  0.00     0.193 C 
HETATM   10  N1  UNL     1      22.546  -1.426  55.248  1.00  0.00    -0.278 NA
HETATM   11  C9  UNL     1      23.698  -1.641  55.706  1.00  0.00     0.229 C 
HETATM   12  N2  UNL     1      24.925  -1.066  55.278  1.00  0.00    -0.224 NA
HETATM   13  C10 UNL     1      24.801  -0.242  54.255  1.00  0.00     0.137 C 
HETATM   14  C15 UNL     1      22.147   1.014  51.820  1.00  0.00     0.149 C 
HETATM   15  C16 UNL     1      21.338   1.919  52.747  1.00  0.00     0.044 C 
HETATM   16  O2  UNL     1      22.256   1.532  50.599  1.00  0.00    -0.357 OA
HETATM   17  C17 UNL     1      21.863   1.200  49.418  1.00  0.00     0.347 C 
HETATM   18  O3  UNL     1      22.369   2.277  48.555  1.00  0.00    -0.305 OA
ENDROOT
BRANCH  13  19
HETATM   19  N3  UNL     1      26.018   0.445  53.879  1.00  0.00    -0.338 N 
HETATM   20  H12 UNL     1      25.818   1.512  53.866  1.00  0.00     0.167 HD
BRANCH  19  21
HETATM   21  C11 UNL     1      27.208  -0.313  53.617  1.00  0.00     0.072 A 
HETATM   22  C12 UNL     1      27.407  -1.383  52.869  1.00  0.00     0.143 A 
HETATM   23  F1  UNL     1      26.765  -2.246  52.062  1.00  0.00    -0.204 F 
HETATM   24  C13 UNL     1      28.804  -1.278  53.303  1.00  0.00     0.047 A 
HETATM   25  C14 UNL     1      28.599  -0.221  54.039  1.00  0.00     0.036 A 
ENDBRANCH  19  21
ENDBRANCH  13  19
TORSDOF 2
ENDMDL
MODEL 2
REMARK VINA RESULT:      -8.1      3.156      5.536
REMARK  2 active torsions:
REMARK  status: ('A' for Active; 'I' for Inactive)
REMARK    1  A    between atoms: C10_13  and  N3_14 
REMARK    2  A    between atoms: N3_14  and  C11_15 
ROOT
HETATM    1  C1  UNL     1      27.870   0.717  54.126  1.00  0.00     0.041 C 
HETATM    2  C2  UNL     1      28.004   1.479  52.869  1.00  0.00     0.032 C 
HETATM    3  C3  UNL     1      26.914   2.049  52.330  1.00  0.00     0.177 C 
HETATM    4  O1  UNL     1      25.703   1.896  52.983  1.00  0.00    -0.330 OA
HETATM    5  C4  UNL     1      24.769   0.867  52.805  1.00  0.00     0.182 C 
HETATM    6  C5  UNL     1      23.783   1.103  51.732  1.00  0.00     0.064 C 
HETATM    7  C6  UNL     1      22.878   2.269  51.823  1.00  0.00    -0.038 C 
HETATM    8  C7  UNL     1      21.542   2.551  51.882  1.00  0.00     0.013 C 
HETATM    9  C8  UNL     1      21.008   3.885  51.957  1.00  0.00     0.193 C 
HETATM   10  N1  UNL     1      19.594   3.910  51.752  1.00  0.00    -0.278 NA
HETATM   11  C9  UNL     1      18.890   2.872  51.657  1.00  0.00     0.229 C 
HETATM   12  N2  UNL     1      19.322   1.520  51.710  1.00  0.00    -0.224 NA
HETATM   13  C10 UNL     1      20.628   1.381  51.838  1.00  0.00     0.137 C 
HETATM   14  C15 UNL     1      23.798   3.502  51.916  1.00  0.00     0.149 C 
HETATM   15  C16 UNL     1      23.653   4.152  53.291  1.00  0.00     0.044 C 
HETATM   16  O2  UNL     1      25.064   3.191  51.649  1.00  0.00    -0.357 OA
HETATM   17  C17 UNL     1      25.941   3.563  50.783  1.00  0.00     0.347 C 
HETATM   18  O3  UNL     1      27.133   2.767  51.114  1.00  0.00    -0.305 OA
ENDROOT
BRANCH  13  19
HETATM   19  N3  UNL     1      21.079   0.017  52.013  1.00  0.00    -0.338 N 
HETATM   20  H12 UNL     1      21.135  -0.452  51.036  1.00  0.00     0.167 HD
BRANCH  19  21
HETATM   21  C11 UNL     1      21.373  -0.468  53.331  1.00  0.00     0.072 A 
HETATM   22  C12 UNL     1      21.049   0.002  54.521  1.00  0.00     0.143 A 
HETATM   23  F1  UNL     1      20.386   1.009  55.118  1.00  0.00    -0.204 F 
HETATM   24  C13 UNL     1      21.789  -1.150  55.046  1.00  0.00     0.047 A 
HETATM   25  C14 UNL     1      22.106  -1.608  53.866  1.00  0.00     0.036 A 
ENDBRANCH  19  21
ENDBRANCH  13  19
TORSDOF 2
ENDMDL
MODEL 3
REMARK VINA RESULT:      -8.1      1.870      2.430
REMARK  2 active torsions:
REMARK  status: ('A' for Active; 'I' for Inactive)
REMARK    1  A    between atoms: C10_13  and  N3_14 
REMARK    2  A    between atoms: N3_14  and  C11_15 
ROOT
HETATM    1  C1  UNL     1      26.415   7.043  49.292  1.00  0.00     0.041 C 
HETATM    2  C2  UNL     1      25.277   6.495  48.527  1.00  0.00     0.032 C 
HETATM    3  C3  UNL     1      24.601   5.445  49.024  1.00  0.00     0.177 C 
HETATM    4  O1  UNL     1      25.006   4.920  50.238  1.00  0.00    -0.330 OA
HETATM    5  C4  UNL     1      25.951   3.908  50.451  1.00  0.00     0.182 C 
HETATM    6  C5  UNL     1      25.411   2.536  50.413  1.00  0.00     0.064 C 
HETATM    7  C6  UNL     1      24.374   2.138  51.390  1.00  0.00    -0.038 C 
HETATM    8  C7  UNL     1      24.177   1.226  52.390  1.00  0.00     0.013 C 
HETATM    9  C8  UNL     1      22.963   1.129  53.156  1.00  0.00     0.193 C 
HETATM   10  N1  UNL     1      22.923  -0.058  53.951  1.00  0.00    -0.278 NA
HETATM   11  C9  UNL     1      23.898  -0.845  54.068  1.00  0.00     0.229 C 
HETATM   12  N2  UNL     1      25.175  -0.747  53.453  1.00  0.00    -0.224 NA
HETATM   13  C10 UNL     1      25.300   0.287  52.644  1.00  0.00     0.137 C 
HETATM   14  C15 UNL     1      23.209   3.124  51.183  1.00  0.00     0.149 C 
HETATM   15  C16 UNL     1      23.055   4.009  52.418  1.00  0.00     0.044 C 
HETATM   16  O2  UNL     1      23.367   3.846  50.076  1.00  0.00    -0.357 OA
HETATM   17  C17 UNL     1      22.698   4.028  48.991  1.00  0.00     0.347 C 
HETATM   18  O3  UNL     1      23.515   4.979  48.221  1.00  0.00    -0.305 OA
ENDROOT
BRANCH  13  19
HETATM   19  N3  UNL     1      26.628   0.475  52.100  1.00  0.00    -0.338 N 
HETATM   20  H12 UNL     1      26.620   0.158  51.062  1.00  0.00     0.167 HD
BRANCH  19  21
HETATM   21  C11 UNL     1      27.664   1.017  52.931  1.00  0.00     0.072 A 
HETATM   22  C12 UNL     1      28.658   0.429  53.573  1.00  0.00     0.143 A 
HETATM   23  F1  UNL     1      29.204  -0.778  53.802  1.00  0.00    -0.204 F 
HETATM   24  C13 UNL     1      29.010   1.781  54.019  1.00  0.00     0.047 A 
HETATM   25  C14 UNL     1      28.026   2.354  53.383  1.00  0.00     0.036 A 
ENDBRANCH  19  21
ENDBRANCH  13  19
TORSDOF 2
ENDMDL
MODEL 4
REMARK VINA RESULT:      -8.1      3.584      6.334
REMARK  2 active torsions:
REMARK  status: ('A' for Active; 'I' for Inactive)
REMARK    1  A    between atoms: C10_13  and  N3_14 
REMARK    2  A    between atoms: N3_14  and  C11_15 
ROOT
HETATM    1  C1  UNL     1      26.850  -0.762  52.280  1.00  0.00     0.041 C 
HETATM    2  C2  UNL     1      25.756  -0.902  53.262  1.00  0.00     0.032 C 
HETATM    3  C3  UNL     1      24.667  -0.124  53.143  1.00  0.00     0.177 C 
HETATM    4  O1  UNL     1      24.620   0.782  52.097  1.00  0.00    -0.330 OA
HETATM    5  C4  UNL     1      25.080   2.105  52.101  1.00  0.00     0.182 C 
HETATM    6  C5  UNL     1      24.100   3.102  52.573  1.00  0.00     0.064 C 
HETATM    7  C6  UNL     1      22.826   3.267  51.841  1.00  0.00    -0.038 C 
HETATM    8  C7  UNL     1      22.130   4.229  51.162  1.00  0.00     0.013 C 
HETATM    9  C8  UNL     1      20.841   4.009  50.560  1.00  0.00     0.193 C 
HETATM   10  N1  UNL     1      20.229   5.229  50.141  1.00  0.00    -0.278 NA
HETATM   11  C9  UNL     1      20.814   6.343  50.170  1.00  0.00     0.229 C 
HETATM   12  N2  UNL     1      22.131   6.622  50.621  1.00  0.00    -0.224 NA
HETATM   13  C10 UNL     1      22.770   5.567  51.090  1.00  0.00     0.137 C 
HETATM   14  C15 UNL     1      22.154   1.881  51.857  1.00  0.00     0.149 C 
HETATM   15  C16 UNL     1      22.100   1.316  50.439  1.00  0.00     0.044 C 
HETATM   16  O2  UNL     1      22.766   1.049  52.696  1.00  0.00    -0.357 OA
HETATM   17  C17 UNL     1      22.425   0.373  53.738  1.00  0.00     0.347 C 
HETATM   18  O3  UNL     1      23.658  -0.324  54.134  1.00  0.00    -0.305 OA
ENDROOT
BRANCH  13  19
HETATM   19  N3  UNL     1      24.153   5.803  51.444  1.00  0.00    -0.338 N 
HETATM   20  H12 UNL     1      24.229   5.829  52.526  1.00  0.00     0.167 HD
BRANCH  19  21
HETATM   21  C11 UNL     1      25.137   5.941  50.409  1.00  0.00     0.072 A 
HETATM   22  C12 UNL     1      25.631   5.059  49.559  1.00  0.00     0.143 A 
HETATM   23  F1  UNL     1      25.545   3.764  49.206  1.00  0.00    -0.204 F 
HETATM   24  C13 UNL     1      26.438   6.175  49.056  1.00  0.00     0.047 A 
HETATM   25  C14 UNL     1      25.945   7.041  49.899  1.00  0.00     0.036 A 
ENDBRANCH  19  21
ENDBRANCH  13  19
TORSDOF 2
ENDMDL
MODEL 5
REMARK VINA RESULT:      -8.1      1.941      4.145
REMARK  2 active torsions:
REMARK  status: ('A' for Active; 'I' for Inactive)
REMARK    1  A    between atoms: C10_13  and  N3_14 
REMARK    2  A    between atoms: N3_14  and  C11_15 
ROOT
HETATM    1  C1  UNL     1      22.087   3.221  47.004  1.00  0.00     0.041 C 
HETATM    2  C2  UNL     1      22.132   4.399  47.893  1.00  0.00     0.032 C 
HETATM    3  C3  UNL     1      22.875   4.346  49.011  1.00  0.00     0.177 C 
HETATM    4  O1  UNL     1      23.570   3.180  49.281  1.00  0.00    -0.330 OA
HETATM    5  C4  UNL     1      23.115   2.070  50.004  1.00  0.00     0.182 C 
HETATM    6  C5  UNL     1      23.331   2.146  51.462  1.00  0.00     0.064 C 
HETATM    7  C6  UNL     1      24.711   2.253  51.984  1.00  0.00    -0.038 C 
HETATM    8  C7  UNL     1      25.575   1.573  52.797  1.00  0.00     0.013 C 
HETATM    9  C8  UNL     1      26.911   2.018  53.096  1.00  0.00     0.193 C 
HETATM   10  N1  UNL     1      27.502   1.268  54.158  1.00  0.00    -0.278 NA
HETATM   11  C9  UNL     1      26.965   0.250  54.669  1.00  0.00     0.229 C 
HETATM   12  N2  UNL     1      25.713  -0.332  54.337  1.00  0.00    -0.224 NA
HETATM   13  C10 UNL     1      25.051   0.322  53.401  1.00  0.00     0.137 C 
HETATM   14  C15 UNL     1      25.302   3.521  51.339  1.00  0.00     0.149 C 
HETATM   15  C16 UNL     1      26.430   3.136  50.382  1.00  0.00     0.044 C 
HETATM   16  O2  UNL     1      24.366   4.245  50.730  1.00  0.00    -0.357 OA
HETATM   17  C17 UNL     1      23.913   5.445  50.840  1.00  0.00     0.347 C 
HETATM   18  O3  UNL     1      22.862   5.527  49.814  1.00  0.00    -0.305 OA
ENDROOT
BRANCH  13  19
HETATM   19  N3  UNL     1      23.829  -0.318  52.963  1.00  0.00    -0.338 N 
HETATM   20  H12 UNL     1      23.987  -0.708  51.963  1.00  0.00     0.167 HD
BRANCH  19  21
HETATM   21  C11 UNL     1      22.694  -0.354  53.840  1.00  0.00     0.072 A 
HETATM   22  C12 UNL     1      22.464  -1.058  54.933  1.00  0.00     0.143 A 
HETATM   23  F1  UNL     1      23.024  -1.980  55.737  1.00  0.00    -0.204 F 
HETATM   24  C13 UNL     1      21.173  -0.364  54.965  1.00  0.00     0.047 A 
HETATM   25  C14 UNL     1      21.407   0.328  53.884  1.00  0.00     0.036 A 
ENDBRANCH  19  21
ENDBRANCH  13  19
TORSDOF 2
ENDMDL
MODEL 6
REMARK VINA RESULT:      -7.6      2.069      2.445
REMARK  2 active torsions:
REMARK  status: ('A' for Active; 'I' for Inactive)
REMARK    1  A    between atoms: C10_13  and  N3_14 
REMARK    2  A    between atoms: N3_14  and  C11_15 
ROOT
HETATM    1  C1  UNL     1      23.513   5.870  48.345  1.00  0.00     0.041 C 
HETATM    2  C2  UNL     1      22.396   5.066  47.812  1.00  0.00     0.032 C 
HETATM    3  C3  UNL     1      21.857   4.105  48.580  1.00  0.00     0.177 C 
HETATM    4  O1  UNL     1      22.379   3.909  49.847  1.00  0.00    -0.330 OA
HETATM    5  C4  UNL     1      23.431   3.057  50.208  1.00  0.00     0.182 C 
HETATM    6  C5  UNL     1      23.030   1.671  50.518  1.00  0.00     0.064 C 
HETATM    7  C6  UNL     1      22.094   1.422  51.635  1.00  0.00    -0.038 C 
HETATM    8  C7  UNL     1      22.044   0.750  52.825  1.00  0.00     0.013 C 
HETATM    9  C8  UNL     1      20.889   0.728  53.684  1.00  0.00     0.193 C 
HETATM   10  N1  UNL     1      21.013  -0.243  54.725  1.00  0.00    -0.278 NA
HETATM   11  C9  UNL     1      22.066  -0.897  54.941  1.00  0.00     0.229 C 
HETATM   12  N2  UNL     1      23.291  -0.834  54.224  1.00  0.00    -0.224 NA
HETATM   13  C10 UNL     1      23.268  -0.006  53.197  1.00  0.00     0.137 C 
HETATM   14  C15 UNL     1      20.825   2.230  51.302  1.00  0.00     0.149 C 
HETATM   15  C16 UNL     1      20.651   3.359  52.317  1.00  0.00     0.044 C 
HETATM   16  O2  UNL     1      20.849   2.690  50.054  1.00  0.00    -0.357 OA
HETATM   17  C17 UNL     1      20.107   2.560  49.009  1.00  0.00     0.347 C 
HETATM   18  O3  UNL     1      20.781   3.375  47.987  1.00  0.00    -0.305 OA
ENDROOT
BRANCH  13  19
HETATM   19  N3  UNL     1      24.538   0.164  52.525  1.00  0.00    -0.338 N 
HETATM   20  H12 UNL     1      24.539  -0.455  51.634  1.00  0.00     0.167 HD
BRANCH  19  21
HETATM   21  C11 UNL     1      25.517   1.057  53.076  1.00  0.00     0.072 A 
HETATM   22  C12 UNL     1      25.413   2.303  53.501  1.00  0.00     0.143 A 
HETATM   23  F1  UNL     1      24.522   3.300  53.653  1.00  0.00    -0.204 F 
HETATM   24  C13 UNL     1      26.845   2.196  53.796  1.00  0.00     0.047 A 
HETATM   25  C14 UNL     1      26.940   0.965  53.374  1.00  0.00     0.036 A 
ENDBRANCH  19  21
ENDBRANCH  13  19
TORSDOF 2
ENDMDL
MODEL 7
REMARK VINA RESULT:      -7.4      2.582      4.801
REMARK  2 active torsions:
REMARK  status: ('A' for Active; 'I' for Inactive)
REMARK    1  A    between atoms: C10_13  and  N3_14 
REMARK    2  A    between atoms: N3_14  and  C11_15 
ROOT
HETATM    1  C1  UNL     1      19.995   6.785  49.662  1.00  0.00     0.041 C 
HETATM    2  C2  UNL     1      21.164   7.566  50.113  1.00  0.00     0.032 C 
HETATM    3  C3  UNL     1      22.289   6.918  50.459  1.00  0.00     0.177 C 
HETATM    4  O1  UNL     1      22.301   5.537  50.378  1.00  0.00    -0.330 OA
HETATM    5  C4  UNL     1      21.939   4.626  51.380  1.00  0.00     0.182 C 
HETATM    6  C5  UNL     1      23.027   4.252  52.303  1.00  0.00     0.064 C 
HETATM    7  C6  UNL     1      24.235   3.587  51.766  1.00  0.00    -0.038 C 
HETATM    8  C7  UNL     1      24.930   2.417  51.903  1.00  0.00     0.013 C 
HETATM    9  C8  UNL     1      26.138   2.116  51.180  1.00  0.00     0.193 C 
HETATM   10  N1  UNL     1      26.792   0.953  51.690  1.00  0.00    -0.278 NA
HETATM   11  C9  UNL     1      26.293   0.209  52.574  1.00  0.00     0.229 C 
HETATM   12  N2  UNL     1      25.047   0.363  53.238  1.00  0.00    -0.224 NA
HETATM   13  C10 UNL     1      24.382   1.446  52.883  1.00  0.00     0.137 C 
HETATM   14  C15 UNL     1      24.805   4.553  50.710  1.00  0.00     0.149 C 
HETATM   15  C16 UNL     1      24.685   3.928  49.321  1.00  0.00     0.044 C 
HETATM   16  O2  UNL     1      24.218   5.745  50.766  1.00  0.00    -0.357 OA
HETATM   17  C17 UNL     1      24.608   6.957  50.963  1.00  0.00     0.347 C 
HETATM   18  O3  UNL     1      23.371   7.749  50.883  1.00  0.00    -0.305 OA
ENDROOT
BRANCH  13  19
HETATM   19  N3  UNL     1      23.059   1.561  53.458  1.00  0.00    -0.338 N 
HETATM   20  H12 UNL     1      22.907   2.592  53.761  1.00  0.00     0.167 HD
BRANCH  19  21
HETATM   21  C11 UNL     1      22.211   0.405  53.522  1.00  0.00     0.072 A 
HETATM   22  C12 UNL     1      21.503  -0.205  52.590  1.00  0.00     0.143 A 
HETATM   23  F1  UNL     1      21.197  -0.142  51.281  1.00  0.00    -0.204 F 
HETATM   24  C13 UNL     1      21.105  -1.123  53.661  1.00  0.00     0.047 A 
HETATM   25  C14 UNL     1      21.807  -0.515  54.577  1.00  0.00     0.036 A 
ENDBRANCH  19  21
ENDBRANCH  13  19
TORSDOF 2
ENDMDL
MODEL 8
REMARK VINA RESULT:      -7.1      2.936      5.261
REMARK  2 active torsions:
REMARK  status: ('A' for Active; 'I' for Inactive)
REMARK    1  A    between atoms: C10_13  and  N3_14 
REMARK    2  A    between atoms: N3_14  and  C11_15 
ROOT
HETATM    1  C1  UNL     1      20.250   6.853  48.637  1.00  0.00     0.041 C 
HETATM    2  C2  UNL     1      21.310   7.448  49.474  1.00  0.00     0.032 C 
HETATM    3  C3  UNL     1      22.118   6.639  50.179  1.00  0.00     0.177 C 
HETATM    4  O1  UNL     1      21.918   5.273  50.090  1.00  0.00    -0.330 OA
HETATM    5  C4  UNL     1      21.082   4.484  50.891  1.00  0.00     0.182 C 
HETATM    6  C5  UNL     1      21.706   3.978  52.129  1.00  0.00     0.064 C 
HETATM    7  C6  UNL     1      22.890   3.096  52.035  1.00  0.00    -0.038 C 
HETATM    8  C7  UNL     1      23.282   1.835  52.387  1.00  0.00     0.013 C 
HETATM    9  C8  UNL     1      24.593   1.301  52.123  1.00  0.00     0.193 C 
HETATM   10  N1  UNL     1      24.821   0.071  52.813  1.00  0.00    -0.278 NA
HETATM   11  C9  UNL     1      23.928  -0.536  53.459  1.00  0.00     0.229 C 
HETATM   12  N2  UNL     1      22.576  -0.145  53.654  1.00  0.00    -0.224 NA
HETATM   13  C10 UNL     1      22.272   1.016  53.104  1.00  0.00     0.137 C 
HETATM   14  C15 UNL     1      23.946   3.901  51.254  1.00  0.00     0.149 C 
HETATM   15  C16 UNL     1      24.203   3.240  49.901  1.00  0.00     0.044 C 
HETATM   16  O2  UNL     1      23.590   5.177  51.119  1.00  0.00    -0.357 OA
HETATM   17  C17 UNL     1      24.093   6.314  51.455  1.00  0.00     0.347 C 
HETATM   18  O3  UNL     1      23.116   7.297  50.962  1.00  0.00    -0.305 OA
ENDROOT
BRANCH  13  19
HETATM   19  N3  UNL     1      20.873   1.378  53.187  1.00  0.00    -0.338 N 
HETATM   20  H12 UNL     1      20.757   2.113  53.977  1.00  0.00     0.167 HD
BRANCH  19  21
HETATM   21  C11 UNL     1      19.931   0.778  52.286  1.00  0.00     0.072 A 
HETATM   22  C12 UNL     1      19.845   0.818  50.969  1.00  0.00     0.143 A 
HETATM   23  F1  UNL     1      20.449   1.331  49.882  1.00  0.00    -0.204 F 
HETATM   24  C13 UNL     1      18.664  -0.035  51.141  1.00  0.00     0.047 A 
HETATM   25  C14 UNL     1      18.756  -0.069  52.442  1.00  0.00     0.036 A 
ENDBRANCH  19  21
ENDBRANCH  13  19
TORSDOF 2
ENDMDL
MODEL 9
REMARK VINA RESULT:      -6.9      4.820      7.915
REMARK  2 active torsions:
REMARK  status: ('A' for Active; 'I' for Inactive)
REMARK    1  A    between atoms: C10_13  and  N3_14 
REMARK    2  A    between atoms: N3_14  and  C11_15 
ROOT
HETATM    1  C1  UNL     1      24.028   1.461  51.971  1.00  0.00     0.041 C 
HETATM    2  C2  UNL     1      22.979   2.419  52.372  1.00  0.00     0.032 C 
HETATM    3  C3  UNL     1      22.835   3.559  51.676  1.00  0.00     0.177 C 
HETATM    4  O1  UNL     1      23.684   3.787  50.607  1.00  0.00    -0.330 OA
HETATM    5  C4  UNL     1      24.930   4.426  50.636  1.00  0.00     0.182 C 
HETATM    6  C5  UNL     1      24.880   5.892  50.482  1.00  0.00     0.064 C 
HETATM    7  C6  UNL     1      24.316   6.471  49.243  1.00  0.00    -0.038 C 
HETATM    8  C7  UNL     1      24.690   7.274  48.202  1.00  0.00     0.013 C 
HETATM    9  C8  UNL     1      23.811   7.649  47.125  1.00  0.00     0.193 C 
HETATM   10  N1  UNL     1      24.367   8.687  46.316  1.00  0.00    -0.278 NA
HETATM   11  C9  UNL     1      25.542   9.117  46.451  1.00  0.00     0.229 C 
HETATM   12  N2  UNL     1      26.515   8.704  47.400  1.00  0.00    -0.224 NA
HETATM   13  C10 UNL     1      26.084   7.784  48.242  1.00  0.00     0.137 C 
HETATM   14  C15 UNL     1      22.879   5.924  49.147  1.00  0.00     0.149 C 
HETATM   15  C16 UNL     1      22.761   4.989  47.944  1.00  0.00     0.044 C 
HETATM   16  O2  UNL     1      22.504   5.324  50.275  1.00  0.00    -0.357 OA
HETATM   17  C17 UNL     1      21.561   5.487  51.136  1.00  0.00     0.347 C 
HETATM   18  O3  UNL     1      21.796   4.429  52.130  1.00  0.00    -0.305 OA
ENDROOT
BRANCH  13  19
HETATM   19  N3  UNL     1      27.092   7.263  49.140  1.00  0.00    -0.338 N 
HETATM   20  H12 UNL     1      26.861   7.600  50.145  1.00  0.00     0.167 HD
BRANCH  19  21
HETATM   21  C11 UNL     1      28.147   6.440  48.620  1.00  0.00     0.072 A 
HETATM   22  C12 UNL     1      28.229   5.132  48.464  1.00  0.00     0.143 A 
HETATM   23  F1  UNL     1      27.532   3.996  48.651  1.00  0.00    -0.204 F 
HETATM   24  C13 UNL     1      29.566   5.400  47.927  1.00  0.00     0.047 A 
HETATM   25  C14 UNL     1      29.478   6.692  48.085  1.00  0.00     0.036 A 
ENDBRANCH  19  21
ENDBRANCH  13  19
TORSDOF 2
ENDMDL
