MODEL 1
REMARK VINA RESULT:      -7.3      0.000      0.000
REMARK  7 active torsions:
REMARK  status: ('A' for Active; 'I' for Inactive)
REMARK    1  A    between atoms: C2_2  and  C3_4 
REMARK    2  A    between atoms: C5_6  and  N1_7 
REMARK       I    between atoms: N1_7  and  C6_8 
REMARK    3  A    between atoms: C6_8  and  C7_10 
REMARK    4  A    between atoms: C8_11  and  C9_12 
REMARK    5  A    between atoms: C9_12  and  N2_13 
REMARK    6  A    between atoms: C14_18  and  C15_19 
REMARK    7  A    between atoms: C16_20  and  C17_21 
ROOT
HETATM    1  C3  UNL     1      26.775   0.719  53.442  1.00  0.00     0.114 C 
HETATM    2  C4  UNL     1      27.307   1.916  52.717  1.00  0.00     0.101 C 
HETATM    3  C5  UNL     1      26.239   2.137  51.676  1.00  0.00     0.012 C 
HETATM    4  C12 UNL     1      25.099   1.649  52.169  1.00  0.00     0.011 C 
HETATM    5  C13 UNL     1      25.305   1.095  53.502  1.00  0.00     0.083 C 
HETATM    6  C14 UNL     1      24.605  -0.180  53.790  1.00  0.00    -0.049 C 
HETATM    7  C18 UNL     1      25.121  -0.660  54.914  1.00  0.00     0.007 C 
HETATM    8  C19 UNL     1      26.203   0.099  55.611  1.00  0.00     0.197 C 
HETATM    9  O2  UNL     1      27.177   0.591  54.759  1.00  0.00    -0.369 OA
ENDROOT
BRANCH   3  10
HETATM   10  N1  UNL     1      26.528   2.775  50.412  1.00  0.00    -0.328 N 
HETATM   11  C6  UNL     1      25.821   3.997  50.252  1.00  0.00     0.245 C 
HETATM   12  O1  UNL     1      25.045   4.423  51.146  1.00  0.00    -0.268 OA
HETATM   13  H5  UNL     1      27.168   2.440  49.654  1.00  0.00     0.169 HD
BRANCH  11  14
HETATM   14  C7  UNL     1      26.012   4.755  49.023  1.00  0.00     0.072 C 
HETATM   15  C8  UNL     1      26.822   5.793  49.013  1.00  0.00     0.008 C 
BRANCH  15  16
HETATM   16  C9  UNL     1      27.239   6.758  47.977  1.00  0.00     0.299 C 
BRANCH  16  17
HETATM   17  N2  UNL     1      28.673   6.984  48.058  1.00  0.00     0.083 N 
HETATM   18  C10 UNL     1      29.125   7.606  46.815  1.00  0.00     0.309 C 
HETATM   19  C11 UNL     1      29.364   5.703  48.121  1.00  0.00     0.309 C 
ENDBRANCH  16  17
ENDBRANCH  15  16
ENDBRANCH  11  14
ENDBRANCH   3  10
BRANCH   1  20
HETATM   20  C2  UNL     1      27.044  -0.551  52.765  1.00  0.00     0.038 C 
HETATM   21  C1  UNL     1      26.785  -1.579  51.997  1.00  0.00     0.035 C 
HETATM   22 CL1  UNL     1      28.689  -0.930  53.284  1.00  0.00    -0.086 Cl
ENDBRANCH   1  20
BRANCH   6  23
HETATM   23  C15 UNL     1      23.571  -0.778  53.004  1.00  0.00     0.005 C 
HETATM   24  C16 UNL     1      22.337  -1.210  53.173  1.00  0.00    -0.011 C 
BRANCH  24  25
HETATM   25  C17 UNL     1      21.269  -1.366  54.185  1.00  0.00     0.141 C 
HETATM   26 CL2  UNL     1      20.852   0.280  54.775  1.00  0.00    -0.126 Cl
ENDBRANCH  24  25
ENDBRANCH   6  23
TORSDOF 7
ENDMDL
MODEL 2
REMARK VINA RESULT:      -7.2      2.681      4.818
REMARK  7 active torsions:
REMARK  status: ('A' for Active; 'I' for Inactive)
REMARK    1  A    between atoms: C2_2  and  C3_4 
REMARK    2  A    between atoms: C5_6  and  N1_7 
REMARK       I    between atoms: N1_7  and  C6_8 
REMARK    3  A    between atoms: C6_8  and  C7_10 
REMARK    4  A    between atoms: C8_11  and  C9_12 
REMARK    5  A    between atoms: C9_12  and  N2_13 
REMARK    6  A    between atoms: C14_18  and  C15_19 
REMARK    7  A    between atoms: C16_20  and  C17_21 
ROOT
HETATM    1  C3  UNL     1      23.676   3.432  50.483  1.00  0.00     0.114 C 
HETATM    2  C4  UNL     1      24.231   4.225  49.341  1.00  0.00     0.101 C 
HETATM    3  C5  UNL     1      25.629   4.513  49.825  1.00  0.00     0.012 C 
HETATM    4  C12 UNL     1      25.968   3.531  50.662  1.00  0.00     0.011 C 
HETATM    5  C13 UNL     1      24.883   2.566  50.795  1.00  0.00     0.083 C 
HETATM    6  C14 UNL     1      24.633   2.057  52.166  1.00  0.00    -0.049 C 
HETATM    7  C18 UNL     1      23.466   1.427  52.138  1.00  0.00     0.007 C 
HETATM    8  C19 UNL     1      22.698   1.354  50.857  1.00  0.00     0.197 C 
HETATM    9  O2  UNL     1      22.662   2.549  50.160  1.00  0.00    -0.369 OA
ENDROOT
BRANCH   3  10
HETATM   10  N1  UNL     1      26.363   5.677  49.384  1.00  0.00    -0.328 N 
HETATM   11  C6  UNL     1      27.556   5.332  48.694  1.00  0.00     0.245 C 
HETATM   12  O1  UNL     1      27.883   4.130  48.518  1.00  0.00    -0.268 OA
HETATM   13  H5  UNL     1      26.112   6.686  49.519  1.00  0.00     0.169 HD
BRANCH  11  14
HETATM   14  C7  UNL     1      28.403   6.405  48.189  1.00  0.00     0.072 C 
HETATM   15  C8  UNL     1      29.698   6.212  48.063  1.00  0.00     0.008 C 
BRANCH  15  16
HETATM   16  C9  UNL     1      30.820   7.052  47.600  1.00  0.00     0.299 C 
BRANCH  16  17
HETATM   17  N2  UNL     1      31.873   7.070  48.601  1.00  0.00     0.083 N 
HETATM   18  C10 UNL     1      31.796   5.844  49.393  1.00  0.00     0.309 C 
HETATM   19  C11 UNL     1      31.628   8.153  49.544  1.00  0.00     0.309 C 
ENDBRANCH  16  17
ENDBRANCH  15  16
ENDBRANCH  11  14
ENDBRANCH   3  10
BRANCH   1  20
HETATM   20  C2  UNL     1      23.216   4.252  51.606  1.00  0.00     0.038 C 
HETATM   21  C1  UNL     1      23.322   4.906  52.735  1.00  0.00     0.035 C 
HETATM   22 CL1  UNL     1      21.517   4.532  51.217  1.00  0.00    -0.086 Cl
ENDBRANCH   1  20
BRANCH   6  23
HETATM   23  C15 UNL     1      25.487   2.217  53.301  1.00  0.00     0.005 C 
HETATM   24  C16 UNL     1      26.354   1.497  53.984  1.00  0.00    -0.011 C 
BRANCH  24  25
HETATM   25  C17 UNL     1      26.985   0.160  54.052  1.00  0.00     0.141 C 
HETATM   26 CL2  UNL     1      26.952  -0.528  52.391  1.00  0.00    -0.126 Cl
ENDBRANCH  24  25
ENDBRANCH   6  23
TORSDOF 7
ENDMDL
MODEL 3
REMARK VINA RESULT:      -7.1      2.631      4.723
REMARK  7 active torsions:
REMARK  status: ('A' for Active; 'I' for Inactive)
REMARK    1  A    between atoms: C2_2  and  C3_4 
REMARK    2  A    between atoms: C5_6  and  N1_7 
REMARK       I    between atoms: N1_7  and  C6_8 
REMARK    3  A    between atoms: C6_8  and  C7_10 
REMARK    4  A    between atoms: C8_11  and  C9_12 
REMARK    5  A    between atoms: C9_12  and  N2_13 
REMARK    6  A    between atoms: C14_18  and  C15_19 
REMARK    7  A    between atoms: C16_20  and  C17_21 
ROOT
HETATM    1  C3  UNL     1      23.600   3.407  50.597  1.00  0.00     0.114 C 
HETATM    2  C4  UNL     1      24.154   4.200  49.454  1.00  0.00     0.101 C 
HETATM    3  C5  UNL     1      25.563   4.461  49.921  1.00  0.00     0.012 C 
HETATM    4  C12 UNL     1      25.896   3.466  50.747  1.00  0.00     0.011 C 
HETATM    5  C13 UNL     1      24.797   2.518  50.886  1.00  0.00     0.083 C 
HETATM    6  C14 UNL     1      24.556   2.003  52.256  1.00  0.00    -0.049 C 
HETATM    7  C18 UNL     1      23.378   1.392  52.238  1.00  0.00     0.007 C 
HETATM    8  C19 UNL     1      22.593   1.343  50.967  1.00  0.00     0.197 C 
HETATM    9  O2  UNL     1      22.568   2.543  50.280  1.00  0.00    -0.369 OA
ENDROOT
BRANCH   3  10
HETATM   10  N1  UNL     1      26.311   5.616  49.480  1.00  0.00    -0.328 N 
HETATM   11  C6  UNL     1      27.477   5.256  48.752  1.00  0.00     0.245 C 
HETATM   12  O1  UNL     1      27.772   4.051  48.548  1.00  0.00    -0.268 OA
HETATM   13  H5  UNL     1      26.086   6.627  49.638  1.00  0.00     0.169 HD
BRANCH  11  14
HETATM   14  C7  UNL     1      28.333   6.319  48.243  1.00  0.00     0.072 C 
HETATM   15  C8  UNL     1      27.886   7.556  48.199  1.00  0.00     0.008 C 
BRANCH  15  16
HETATM   16  C9  UNL     1      28.463   8.840  47.757  1.00  0.00     0.299 C 
BRANCH  16  17
HETATM   17  N2  UNL     1      28.643   9.722  48.899  1.00  0.00     0.083 N 
HETATM   18  C10 UNL     1      29.979   9.513  49.453  1.00  0.00     0.309 C 
HETATM   19  C11 UNL     1      27.723   9.338  49.959  1.00  0.00     0.309 C 
ENDBRANCH  16  17
ENDBRANCH  15  16
ENDBRANCH  11  14
ENDBRANCH   3  10
BRANCH   1  20
HETATM   20  C2  UNL     1      23.170   4.226  51.732  1.00  0.00     0.038 C 
HETATM   21  C1  UNL     1      23.306   4.885  52.854  1.00  0.00     0.035 C 
HETATM   22 CL1  UNL     1      21.454   4.481  51.401  1.00  0.00    -0.086 Cl
ENDBRANCH   1  20
BRANCH   6  23
HETATM   23  C15 UNL     1      25.428   2.139  53.381  1.00  0.00     0.005 C 
HETATM   24  C16 UNL     1      26.279   1.393  54.057  1.00  0.00    -0.011 C 
BRANCH  24  25
HETATM   25  C17 UNL     1      26.867   0.038  54.124  1.00  0.00     0.141 C 
HETATM   26 CL2  UNL     1      27.044  -0.548  52.433  1.00  0.00    -0.126 Cl
ENDBRANCH  24  25
ENDBRANCH   6  23
TORSDOF 7
ENDMDL
MODEL 4
REMARK VINA RESULT:      -6.6      3.992      7.679
REMARK  7 active torsions:
REMARK  status: ('A' for Active; 'I' for Inactive)
REMARK    1  A    between atoms: C2_2  and  C3_4 
REMARK    2  A    between atoms: C5_6  and  N1_7 
REMARK       I    between atoms: N1_7  and  C6_8 
REMARK    3  A    between atoms: C6_8  and  C7_10 
REMARK    4  A    between atoms: C8_11  and  C9_12 
REMARK    5  A    between atoms: C9_12  and  N2_13 
REMARK    6  A    between atoms: C14_18  and  C15_19 
REMARK    7  A    between atoms: C16_20  and  C17_21 
ROOT
HETATM    1  C3  UNL     1      21.910   4.184  50.743  1.00  0.00     0.114 C 
HETATM    2  C4  UNL     1      21.736   2.945  51.567  1.00  0.00     0.101 C 
HETATM    3  C5  UNL     1      22.962   2.991  52.444  1.00  0.00     0.012 C 
HETATM    4  C12 UNL     1      23.313   4.273  52.565  1.00  0.00     0.011 C 
HETATM    5  C13 UNL     1      22.401   5.133  51.822  1.00  0.00     0.083 C 
HETATM    6  C14 UNL     1      23.029   6.251  51.076  1.00  0.00    -0.049 C 
HETATM    7  C18 UNL     1      22.105   6.739  50.259  1.00  0.00     0.007 C 
HETATM    8  C19 UNL     1      20.739   6.132  50.245  1.00  0.00     0.197 C 
HETATM    9  O2  UNL     1      20.745   4.748  50.258  1.00  0.00    -0.369 OA
ENDROOT
BRANCH   3  10
HETATM   10  N1  UNL     1      23.551   1.791  52.991  1.00  0.00    -0.328 N 
HETATM   11  C6  UNL     1      24.668   1.346  52.234  1.00  0.00     0.245 C 
HETATM   12  O1  UNL     1      25.052   1.969  51.211  1.00  0.00    -0.268 OA
HETATM   13  H5  UNL     1      23.249   1.254  53.839  1.00  0.00     0.169 HD
BRANCH  11  14
HETATM   14  C7  UNL     1      25.367   0.143  52.666  1.00  0.00     0.072 C 
HETATM   15  C8  UNL     1      26.683   0.126  52.698  1.00  0.00     0.008 C 
BRANCH  15  16
HETATM   16  C9  UNL     1      27.686  -0.890  53.071  1.00  0.00     0.299 C 
BRANCH  16  17
HETATM   17  N2  UNL     1      28.677  -0.305  53.960  1.00  0.00     0.083 N 
HETATM   18  C10 UNL     1      28.814   1.116  53.647  1.00  0.00     0.309 C 
HETATM   19  C11 UNL     1      29.982  -0.888  53.683  1.00  0.00     0.309 C 
ENDBRANCH  16  17
ENDBRANCH  15  16
ENDBRANCH  11  14
ENDBRANCH   3  10
BRANCH   1  20
HETATM   20  C2  UNL     1      22.833   4.021  49.618  1.00  0.00     0.038 C 
HETATM   21  C1  UNL     1      23.979   4.084  48.989  1.00  0.00     0.035 C 
HETATM   22 CL1  UNL     1      21.800   3.335  48.361  1.00  0.00    -0.086 Cl
ENDBRANCH   1  20
BRANCH   6  23
HETATM   23  C15 UNL     1      24.375   6.714  51.212  1.00  0.00     0.005 C 
HETATM   24  C16 UNL     1      25.244   7.422  50.517  1.00  0.00    -0.011 C 
BRANCH  24  25
HETATM   25  C17 UNL     1      25.420   8.154  49.244  1.00  0.00     0.141 C 
HETATM   26 CL2  UNL     1      25.915   6.950  48.003  1.00  0.00    -0.126 Cl
ENDBRANCH  24  25
ENDBRANCH   6  23
TORSDOF 7
ENDMDL
MODEL 5
REMARK VINA RESULT:      -6.4      6.683     10.321
REMARK  7 active torsions:
REMARK  status: ('A' for Active; 'I' for Inactive)
REMARK    1  A    between atoms: C2_2  and  C3_4 
REMARK    2  A    between atoms: C5_6  and  N1_7 
REMARK       I    between atoms: N1_7  and  C6_8 
REMARK    3  A    between atoms: C6_8  and  C7_10 
REMARK    4  A    between atoms: C8_11  and  C9_12 
REMARK    5  A    between atoms: C9_12  and  N2_13 
REMARK    6  A    between atoms: C14_18  and  C15_19 
REMARK    7  A    between atoms: C16_20  and  C17_21 
ROOT
HETATM    1  C3  UNL     1      32.876   5.913  48.448  1.00  0.00     0.114 C 
HETATM    2  C4  UNL     1      31.707   5.979  49.382  1.00  0.00     0.101 C 
HETATM    3  C5  UNL     1      30.581   5.525  48.488  1.00  0.00     0.012 C 
HETATM    4  C12 UNL     1      31.113   4.737  47.551  1.00  0.00     0.011 C 
HETATM    5  C13 UNL     1      32.553   4.611  47.736  1.00  0.00     0.083 C 
HETATM    6  C14 UNL     1      33.370   4.650  46.499  1.00  0.00    -0.049 C 
HETATM    7  C18 UNL     1      34.634   4.802  46.874  1.00  0.00     0.007 C 
HETATM    8  C19 UNL     1      34.964   4.895  48.329  1.00  0.00     0.197 C 
HETATM    9  O2  UNL     1      34.107   5.712  49.044  1.00  0.00    -0.369 OA
ENDROOT
BRANCH   3  10
HETATM   10  N1  UNL     1      29.215   5.940  48.715  1.00  0.00    -0.328 N 
HETATM   11  C6  UNL     1      28.764   6.865  47.735  1.00  0.00     0.245 C 
HETATM   12  O1  UNL     1      29.516   7.243  46.801  1.00  0.00    -0.268 OA
HETATM   13  H5  UNL     1      28.571   5.639  49.485  1.00  0.00     0.169 HD
BRANCH  11  14
HETATM   14  C7  UNL     1      27.403   7.374  47.834  1.00  0.00     0.072 C 
HETATM   15  C8  UNL     1      26.469   6.639  48.401  1.00  0.00     0.008 C 
BRANCH  15  16
HETATM   16  C9  UNL     1      25.030   6.833  48.664  1.00  0.00     0.299 C 
BRANCH  16  17
HETATM   17  N2  UNL     1      24.578   5.891  49.674  1.00  0.00     0.083 N 
HETATM   18  C10 UNL     1      24.398   6.602  50.938  1.00  0.00     0.309 C 
HETATM   19  C11 UNL     1      25.626   4.913  49.930  1.00  0.00     0.309 C 
ENDBRANCH  16  17
ENDBRANCH  15  16
ENDBRANCH  11  14
ENDBRANCH   3  10
BRANCH   1  20
HETATM   20  C2  UNL     1      32.991   7.072  47.561  1.00  0.00     0.038 C 
HETATM   21  C1  UNL     1      32.756   7.793  46.494  1.00  0.00     0.035 C 
HETATM   22 CL1  UNL     1      34.095   8.131  48.441  1.00  0.00    -0.086 Cl
ENDBRANCH   1  20
BRANCH   6  23
HETATM   23  C15 UNL     1      32.887   4.545  45.157  1.00  0.00     0.005 C 
HETATM   24  C16 UNL     1      33.035   5.178  44.010  1.00  0.00    -0.011 C 
BRANCH  24  25
HETATM   25  C17 UNL     1      33.726   6.319  43.371  1.00  0.00     0.141 C 
HETATM   26 CL2  UNL     1      35.382   5.764  42.942  1.00  0.00    -0.126 Cl
ENDBRANCH  24  25
ENDBRANCH   6  23
TORSDOF 7
ENDMDL
MODEL 6
REMARK VINA RESULT:      -6.4      3.476      5.165
REMARK  7 active torsions:
REMARK  status: ('A' for Active; 'I' for Inactive)
REMARK    1  A    between atoms: C2_2  and  C3_4 
REMARK    2  A    between atoms: C5_6  and  N1_7 
REMARK       I    between atoms: N1_7  and  C6_8 
REMARK    3  A    between atoms: C6_8  and  C7_10 
REMARK    4  A    between atoms: C8_11  and  C9_12 
REMARK    5  A    between atoms: C9_12  and  N2_13 
REMARK    6  A    between atoms: C14_18  and  C15_19 
REMARK    7  A    between atoms: C16_20  and  C17_21 
ROOT
HETATM    1  C3  UNL     1      22.268   3.717  49.657  1.00  0.00     0.114 C 
HETATM    2  C4  UNL     1      22.986   4.985  49.312  1.00  0.00     0.101 C 
HETATM    3  C5  UNL     1      24.100   4.988  50.328  1.00  0.00     0.012 C 
HETATM    4  C12 UNL     1      24.344   3.716  50.649  1.00  0.00     0.011 C 
HETATM    5  C13 UNL     1      23.463   2.816  49.915  1.00  0.00     0.083 C 
HETATM    6  C14 UNL     1      22.911   1.677  50.688  1.00  0.00    -0.049 C 
HETATM    7  C18 UNL     1      21.939   1.147  49.955  1.00  0.00     0.007 C 
HETATM    8  C19 UNL     1      21.616   1.738  48.621  1.00  0.00     0.197 C 
HETATM    9  O2  UNL     1      21.574   3.121  48.620  1.00  0.00    -0.369 OA
ENDROOT
BRANCH   3  10
HETATM   10  N1  UNL     1      24.708   6.215  50.787  1.00  0.00    -0.328 N 
HETATM   11  C6  UNL     1      25.689   6.701  49.881  1.00  0.00     0.245 C 
HETATM   12  O1  UNL     1      25.953   6.088  48.816  1.00  0.00    -0.268 OA
HETATM   13  H5  UNL     1      24.505   6.743  51.669  1.00  0.00     0.169 HD
BRANCH  11  14
HETATM   14  C7  UNL     1      26.390   7.935  50.212  1.00  0.00     0.072 C 
HETATM   15  C8  UNL     1      27.219   8.470  49.341  1.00  0.00     0.008 C 
BRANCH  15  16
HETATM   16  C9  UNL     1      28.070   9.676  49.343  1.00  0.00     0.299 C 
BRANCH  16  17
HETATM   17  N2  UNL     1      29.463   9.299  49.520  1.00  0.00     0.083 N 
HETATM   18  C10 UNL     1      30.311  10.421  49.121  1.00  0.00     0.309 C 
HETATM   19  C11 UNL     1      29.795   8.221  48.600  1.00  0.00     0.309 C 
ENDBRANCH  16  17
ENDBRANCH  15  16
ENDBRANCH  11  14
ENDBRANCH   3  10
BRANCH   1  20
HETATM   20  C2  UNL     1      21.354   3.845  50.794  1.00  0.00     0.038 C 
HETATM   21  C1  UNL     1      20.994   3.816  52.052  1.00  0.00     0.035 C 
HETATM   22 CL1  UNL     1      19.837   4.320  50.025  1.00  0.00    -0.086 Cl
ENDBRANCH   1  20
BRANCH   6  23
HETATM   23  C15 UNL     1      23.343   1.234  51.976  1.00  0.00     0.005 C 
HETATM   24  C16 UNL     1      22.816   0.684  53.052  1.00  0.00    -0.011 C 
BRANCH  24  25
HETATM   25  C17 UNL     1      21.543   0.193  53.623  1.00  0.00     0.141 C 
HETATM   26 CL2  UNL     1      21.958  -0.854  55.025  1.00  0.00    -0.126 Cl
ENDBRANCH  24  25
ENDBRANCH   6  23
TORSDOF 7
ENDMDL
MODEL 7
REMARK VINA RESULT:      -6.3      8.921     10.704
REMARK  7 active torsions:
REMARK  status: ('A' for Active; 'I' for Inactive)
REMARK    1  A    between atoms: C2_2  and  C3_4 
REMARK    2  A    between atoms: C5_6  and  N1_7 
REMARK       I    between atoms: N1_7  and  C6_8 
REMARK    3  A    between atoms: C6_8  and  C7_10 
REMARK    4  A    between atoms: C8_11  and  C9_12 
REMARK    5  A    between atoms: C9_12  and  N2_13 
REMARK    6  A    between atoms: C14_18  and  C15_19 
REMARK    7  A    between atoms: C16_20  and  C17_21 
ROOT
HETATM    1  C3  UNL     1      33.484   5.310  48.268  1.00  0.00     0.114 C 
HETATM    2  C4  UNL     1      32.496   5.597  49.356  1.00  0.00     0.101 C 
HETATM    3  C5  UNL     1      31.229   5.808  48.566  1.00  0.00     0.012 C 
HETATM    4  C12 UNL     1      31.349   5.109  47.435  1.00  0.00     0.011 C 
HETATM    5  C13 UNL     1      32.630   4.418  47.385  1.00  0.00     0.083 C 
HETATM    6  C14 UNL     1      33.319   4.424  46.072  1.00  0.00    -0.049 C 
HETATM    7  C18 UNL     1      34.560   4.005  46.283  1.00  0.00     0.007 C 
HETATM    8  C19 UNL     1      34.989   3.640  47.668  1.00  0.00     0.197 C 
HETATM    9  O2  UNL     1      34.570   4.536  48.635  1.00  0.00    -0.369 OA
ENDROOT
BRANCH   3  10
HETATM   10  N1  UNL     1      30.155   6.640  49.057  1.00  0.00    -0.328 N 
HETATM   11  C6  UNL     1      30.256   7.979  48.592  1.00  0.00     0.245 C 
HETATM   12  O1  UNL     1      31.197   8.339  47.840  1.00  0.00    -0.268 OA
HETATM   13  H5  UNL     1      29.362   6.364  49.684  1.00  0.00     0.169 HD
BRANCH  11  14
HETATM   14  C7  UNL     1      29.240   8.937  49.007  1.00  0.00     0.072 C 
HETATM   15  C8  UNL     1      29.334  10.195  48.630  1.00  0.00     0.008 C 
BRANCH  15  16
HETATM   16  C9  UNL     1      28.510  11.398  48.859  1.00  0.00     0.299 C 
BRANCH  16  17
HETATM   17  N2  UNL     1      29.356  12.579  48.896  1.00  0.00     0.083 N 
HETATM   18  C10 UNL     1      29.348  13.209  47.576  1.00  0.00     0.309 C 
HETATM   19  C11 UNL     1      30.738  12.180  49.123  1.00  0.00     0.309 C 
ENDBRANCH  16  17
ENDBRANCH  15  16
ENDBRANCH  11  14
ENDBRANCH   3  10
BRANCH   1  20
HETATM   20  C2  UNL     1      33.993   6.509  47.600  1.00  0.00     0.038 C 
HETATM   21  C1  UNL     1      34.023   7.458  46.699  1.00  0.00     0.035 C 
HETATM   22 CL1  UNL     1      35.394   6.941  48.584  1.00  0.00    -0.086 Cl
ENDBRANCH   1  20
BRANCH   6  23
HETATM   23  C15 UNL     1      32.754   4.810  44.817  1.00  0.00     0.005 C 
HETATM   24  C16 UNL     1      33.172   5.246  43.645  1.00  0.00    -0.011 C 
BRANCH  24  25
HETATM   25  C17 UNL     1      34.389   5.606  42.886  1.00  0.00     0.141 C 
HETATM   26 CL2  UNL     1      34.584   7.390  43.010  1.00  0.00    -0.126 Cl
ENDBRANCH  24  25
ENDBRANCH   6  23
TORSDOF 7
ENDMDL
MODEL 8
REMARK VINA RESULT:      -6.3      8.139     10.538
REMARK  7 active torsions:
REMARK  status: ('A' for Active; 'I' for Inactive)
REMARK    1  A    between atoms: C2_2  and  C3_4 
REMARK    2  A    between atoms: C5_6  and  N1_7 
REMARK       I    between atoms: N1_7  and  C6_8 
REMARK    3  A    between atoms: C6_8  and  C7_10 
REMARK    4  A    between atoms: C8_11  and  C9_12 
REMARK    5  A    between atoms: C9_12  and  N2_13 
REMARK    6  A    between atoms: C14_18  and  C15_19 
REMARK    7  A    between atoms: C16_20  and  C17_21 
ROOT
HETATM    1  C3  UNL     1      33.550   5.332  48.258  1.00  0.00     0.114 C 
HETATM    2  C4  UNL     1      32.569   5.547  49.369  1.00  0.00     0.101 C 
HETATM    3  C5  UNL     1      31.329   5.940  48.606  1.00  0.00     0.012 C 
HETATM    4  C12 UNL     1      31.416   5.381  47.397  1.00  0.00     0.011 C 
HETATM    5  C13 UNL     1      32.650   4.616  47.266  1.00  0.00     0.083 C 
HETATM    6  C14 UNL     1      33.354   4.741  45.967  1.00  0.00    -0.049 C 
HETATM    7  C18 UNL     1      34.562   4.216  46.130  1.00  0.00     0.007 C 
HETATM    8  C19 UNL     1      34.948   3.653  47.459  1.00  0.00     0.197 C 
HETATM    9  O2  UNL     1      34.577   4.447  48.530  1.00  0.00    -0.369 OA
ENDROOT
BRANCH   3  10
HETATM   10  N1  UNL     1      30.307   6.774  49.193  1.00  0.00    -0.328 N 
HETATM   11  C6  UNL     1      30.393   8.122  48.752  1.00  0.00     0.245 C 
HETATM   12  O1  UNL     1      31.282   8.487  47.941  1.00  0.00    -0.268 OA
HETATM   13  H5  UNL     1      29.557   6.494  49.870  1.00  0.00     0.169 HD
BRANCH  11  14
HETATM   14  C7  UNL     1      29.424   9.084  49.262  1.00  0.00     0.072 C 
HETATM   15  C8  UNL     1      28.158   8.982  48.917  1.00  0.00     0.008 C 
BRANCH  15  16
HETATM   16  C9  UNL     1      26.943   9.758  49.236  1.00  0.00     0.299 C 
BRANCH  16  17
HETATM   17  N2  UNL     1      25.781   8.885  49.227  1.00  0.00     0.083 N 
HETATM   18  C10 UNL     1      26.027   7.759  50.127  1.00  0.00     0.309 C 
HETATM   19  C11 UNL     1      25.626   8.295  47.906  1.00  0.00     0.309 C 
ENDBRANCH  16  17
ENDBRANCH  15  16
ENDBRANCH  11  14
ENDBRANCH   3  10
BRANCH   1  20
HETATM   20  C2  UNL     1      34.145   6.569  47.747  1.00  0.00     0.038 C 
HETATM   21  C1  UNL     1      34.227   7.640  47.000  1.00  0.00     0.035 C 
HETATM   22 CL1  UNL     1      35.631   6.706  48.691  1.00  0.00    -0.086 Cl
ENDBRANCH   1  20
BRANCH   6  23
HETATM   23  C15 UNL     1      32.831   5.317  44.768  1.00  0.00     0.005 C 
HETATM   24  C16 UNL     1      33.064   5.263  43.471  1.00  0.00    -0.011 C 
BRANCH  24  25
HETATM   25  C17 UNL     1      33.938   4.639  42.454  1.00  0.00     0.141 C 
HETATM   26 CL2  UNL     1      32.866   3.918  41.203  1.00  0.00    -0.126 Cl
ENDBRANCH  24  25
ENDBRANCH   6  23
TORSDOF 7
ENDMDL
MODEL 9
REMARK VINA RESULT:      -6.2      5.956      8.466
REMARK  7 active torsions:
REMARK  status: ('A' for Active; 'I' for Inactive)
REMARK    1  A    between atoms: C2_2  and  C3_4 
REMARK    2  A    between atoms: C5_6  and  N1_7 
REMARK       I    between atoms: N1_7  and  C6_8 
REMARK    3  A    between atoms: C6_8  and  C7_10 
REMARK    4  A    between atoms: C8_11  and  C9_12 
REMARK    5  A    between atoms: C9_12  and  N2_13 
REMARK    6  A    between atoms: C14_18  and  C15_19 
REMARK    7  A    between atoms: C16_20  and  C17_21 
ROOT
HETATM    1  C3  UNL     1      22.165   3.087  50.938  1.00  0.00     0.114 C 
HETATM    2  C4  UNL     1      21.100   4.136  51.019  1.00  0.00     0.101 C 
HETATM    3  C5  UNL     1      19.975   3.375  51.675  1.00  0.00     0.012 C 
HETATM    4  C12 UNL     1      20.529   2.405  52.406  1.00  0.00     0.011 C 
HETATM    5  C13 UNL     1      21.982   2.441  52.300  1.00  0.00     0.083 C 
HETATM    6  C14 UNL     1      22.656   1.124  52.182  1.00  0.00    -0.049 C 
HETATM    7  C18 UNL     1      23.911   1.363  51.823  1.00  0.00     0.007 C 
HETATM    8  C19 UNL     1      24.366   2.773  51.625  1.00  0.00     0.197 C 
HETATM    9  O2  UNL     1      23.466   3.555  50.924  1.00  0.00    -0.369 OA
ENDROOT
BRANCH   3  10
HETATM   10  N1  UNL     1      18.591   3.733  51.469  1.00  0.00    -0.328 N 
HETATM   11  C6  UNL     1      17.941   2.865  50.551  1.00  0.00     0.245 C 
HETATM   12  O1  UNL     1      18.555   1.909  50.011  1.00  0.00    -0.268 OA
HETATM   13  H5  UNL     1      18.059   4.523  51.905  1.00  0.00     0.169 HD
BRANCH  11  14
HETATM   14  C7  UNL     1      16.538   3.104  50.242  1.00  0.00     0.072 C 
HETATM   15  C8  UNL     1      15.754   3.655  51.145  1.00  0.00     0.008 C 
BRANCH  15  16
HETATM   16  C9  UNL     1      14.327   4.030  51.171  1.00  0.00     0.299 C 
BRANCH  16  17
HETATM   17  N2  UNL     1      13.798   3.877  52.517  1.00  0.00     0.083 N 
HETATM   18  C10 UNL     1      14.834   4.251  53.478  1.00  0.00     0.309 C 
HETATM   19  C11 UNL     1      13.524   2.471  52.774  1.00  0.00     0.309 C 
ENDBRANCH  16  17
ENDBRANCH  15  16
ENDBRANCH  11  14
ENDBRANCH   3  10
BRANCH   1  20
HETATM   20  C2  UNL     1      22.007   2.167  49.810  1.00  0.00     0.038 C 
HETATM   21  C1  UNL     1      21.559   1.113  49.176  1.00  0.00     0.035 C 
HETATM   22 CL1  UNL     1      23.003   2.911  48.556  1.00  0.00    -0.086 Cl
ENDBRANCH   1  20
BRANCH   6  23
HETATM   23  C15 UNL     1      22.064  -0.157  52.411  1.00  0.00     0.005 C 
HETATM   24  C16 UNL     1      21.686  -0.893  53.437  1.00  0.00    -0.011 C 
BRANCH  24  25
HETATM   25  C17 UNL     1      21.617  -0.911  54.915  1.00  0.00     0.141 C 
HETATM   26 CL2  UNL     1      23.241  -1.393  55.518  1.00  0.00    -0.126 Cl
ENDBRANCH  24  25
ENDBRANCH   6  23
TORSDOF 7
ENDMDL
