MODEL 1
REMARK VINA RESULT:      -8.6      0.000      0.000
REMARK  3 active torsions:
REMARK  status: ('A' for Active; 'I' for Inactive)
REMARK    1  A    between atoms: O1_2  and  C2_3 
REMARK    2  A    between atoms: C9_11  and  C10_12 
REMARK    3  A    between atoms: C10_12  and  C11_13 
ROOT
HETATM    1  C2  UNL     1      20.468   3.493  48.686  1.00  0.00     0.199 C 
HETATM    2  C3  UNL     1      19.779   4.095  49.887  1.00  0.00     0.124 C 
HETATM    3  C4  UNL     1      20.397   5.444  50.082  1.00  0.00     0.082 C 
HETATM    4  C5  UNL     1      21.866   5.198  50.398  1.00  0.00     0.225 C 
HETATM    5  N1  UNL     1      22.088   4.790  51.775  1.00  0.00    -0.371 N 
HETATM    6  C6  UNL     1      22.236   3.452  52.317  1.00  0.00     0.115 C 
HETATM    7  C7  UNL     1      21.816   2.340  51.679  1.00  0.00     0.054 C 
HETATM    8  C8  UNL     1      21.299   1.103  52.245  1.00  0.00    -0.024 C 
HETATM    9  C9  UNL     1      21.352   0.858  53.543  1.00  0.00    -0.010 C 
HETATM   10  C12 UNL     1      20.756   0.264  51.151  1.00  0.00     0.061 C 
HETATM   11  C13 UNL     1      19.356   0.575  50.935  1.00  0.00    -0.019 C 
HETATM   12  C14 UNL     1      18.080   0.698  51.189  1.00  0.00    -0.025 C 
HETATM   13  C15 UNL     1      16.701   1.077  50.771  1.00  0.00     0.066 C 
HETATM   14  C16 UNL     1      16.075   2.120  51.574  1.00  0.00    -0.039 A 
HETATM   15  C17 UNL     1      14.916   1.787  52.242  1.00  0.00     0.008 A 
HETATM   16  C18 UNL     1      14.209   2.661  53.036  1.00  0.00     0.001 A 
HETATM   17  C19 UNL     1      14.619   3.962  53.225  1.00  0.00     0.001 A 
HETATM   18  C20 UNL     1      15.783   4.333  52.570  1.00  0.00     0.017 A 
HETATM   19  C21 UNL     1      16.442   3.423  51.793  1.00  0.00     0.038 A 
HETATM   20  C22 UNL     1      17.655   3.703  51.050  1.00  0.00     0.254 C 
HETATM   21  O3  UNL     1      18.397   3.618  52.036  1.00  0.00    -0.267 OA
HETATM   22  N2  UNL     1      18.361   3.998  49.870  1.00  0.00    -0.345 N 
HETATM   23  C23 UNL     1      17.449   4.127  48.750  1.00  0.00     0.153 C 
HETATM   24  C24 UNL     1      21.599   0.796  49.976  1.00  0.00     0.139 C 
HETATM   25  N3  UNL     1      21.781   2.197  50.236  1.00  0.00    -0.344 N 
HETATM   26  C25 UNL     1      21.893   3.177  49.198  1.00  0.00     0.163 C 
HETATM   27  C26 UNL     1      22.672   2.532  48.069  1.00  0.00     0.074 C 
HETATM   28  O4  UNL     1      22.479   4.351  49.508  1.00  0.00    -0.334 OA
HETATM   29  H9  UNL     1      22.171   5.463  52.572  1.00  0.00     0.161 HD
ENDROOT
BRANCH   9  30
HETATM   30  C10 UNL     1      20.828  -0.410  54.165  1.00  0.00     0.097 C 
BRANCH  30  31
HETATM   31  C11 UNL     1      21.875  -1.473  54.147  1.00  0.00     0.234 C 
HETATM   32  O2  UNL     1      22.100  -1.590  55.336  1.00  0.00    -0.307 OA
ENDBRANCH  30  31
ENDBRANCH   9  30
BRANCH   1  33
HETATM   33  O1  UNL     1      20.665   4.535  47.777  1.00  0.00    -0.384 OA
HETATM   34  C1  UNL     1      20.187   4.313  46.518  1.00  0.00     0.202 C 
ENDBRANCH   1  33
TORSDOF 3
ENDMDL
MODEL 2
REMARK VINA RESULT:      -8.6      4.130      7.836
REMARK  3 active torsions:
REMARK  status: ('A' for Active; 'I' for Inactive)
REMARK    1  A    between atoms: O1_2  and  C2_3 
REMARK    2  A    between atoms: C9_11  and  C10_12 
REMARK    3  A    between atoms: C10_12  and  C11_13 
ROOT
HETATM    1  C2  UNL     1      21.818   4.773  48.217  1.00  0.00     0.199 C 
HETATM    2  C3  UNL     1      22.121   4.688  49.694  1.00  0.00     0.124 C 
HETATM    3  C4  UNL     1      20.841   5.023  50.395  1.00  0.00     0.082 C 
HETATM    4  C5  UNL     1      20.512   6.461  50.016  1.00  0.00     0.225 C 
HETATM    5  N1  UNL     1      21.290   7.435  50.764  1.00  0.00    -0.371 N 
HETATM    6  C6  UNL     1      22.514   8.113  50.379  1.00  0.00     0.115 C 
HETATM    7  C7  UNL     1      23.337   7.667  49.408  1.00  0.00     0.054 C 
HETATM    8  C8  UNL     1      24.786   7.782  49.315  1.00  0.00    -0.024 C 
HETATM    9  C9  UNL     1      25.476   8.541  50.148  1.00  0.00    -0.010 C 
HETATM   10  C12 UNL     1      25.263   6.943  48.191  1.00  0.00     0.061 C 
HETATM   11  C13 UNL     1      25.549   5.601  48.659  1.00  0.00    -0.019 C 
HETATM   12  C14 UNL     1      26.119   4.642  49.340  1.00  0.00    -0.025 C 
HETATM   13  C15 UNL     1      26.261   3.199  49.685  1.00  0.00     0.066 C 
HETATM   14  C16 UNL     1      26.023   2.872  51.086  1.00  0.00    -0.039 A 
HETATM   15  C17 UNL     1      27.072   2.316  51.787  1.00  0.00     0.008 A 
HETATM   16  C18 UNL     1      27.001   1.952  53.112  1.00  0.00     0.001 A 
HETATM   17  C19 UNL     1      25.852   2.121  53.851  1.00  0.00     0.001 A 
HETATM   18  C20 UNL     1      24.775   2.679  53.178  1.00  0.00     0.017 A 
HETATM   19  C21 UNL     1      24.902   3.020  51.862  1.00  0.00     0.038 A 
HETATM   20  C22 UNL     1      23.842   3.593  51.055  1.00  0.00     0.254 C 
HETATM   21  O3  UNL     1      23.974   4.733  51.515  1.00  0.00    -0.267 OA
HETATM   22  N2  UNL     1      22.821   3.516  50.091  1.00  0.00    -0.345 N 
HETATM   23  C23 UNL     1      22.676   2.156  49.611  1.00  0.00     0.153 C 
HETATM   24  C24 UNL     1      23.993   6.935  47.319  1.00  0.00     0.139 C 
HETATM   25  N3  UNL     1      22.892   6.929  48.241  1.00  0.00    -0.344 N 
HETATM   26  C25 UNL     1      21.643   6.288  47.963  1.00  0.00     0.163 C 
HETATM   27  C26 UNL     1      21.363   6.494  46.488  1.00  0.00     0.074 C 
HETATM   28  O4  UNL     1      20.564   6.692  48.664  1.00  0.00    -0.334 OA
HETATM   29  H9  UNL     1      21.031   7.772  51.719  1.00  0.00     0.161 HD
ENDROOT
BRANCH   9  30
HETATM   30  C10 UNL     1      26.974   8.686  50.084  1.00  0.00     0.097 C 
BRANCH  30  31
HETATM   31  C11 UNL     1      27.357   9.728  49.086  1.00  0.00     0.234 C 
HETATM   32  O2  UNL     1      26.763  10.693  49.528  1.00  0.00    -0.307 OA
ENDBRANCH  30  31
ENDBRANCH   9  30
BRANCH   1  33
HETATM   33  O1  UNL     1      20.532   4.256  48.045  1.00  0.00    -0.384 OA
HETATM   34  C1  UNL     1      20.424   3.246  47.133  1.00  0.00     0.202 C 
ENDBRANCH   1  33
TORSDOF 3
ENDMDL
MODEL 3
REMARK VINA RESULT:      -7.8      3.188      6.850
REMARK  3 active torsions:
REMARK  status: ('A' for Active; 'I' for Inactive)
REMARK    1  A    between atoms: O1_2  and  C2_3 
REMARK    2  A    between atoms: C9_11  and  C10_12 
REMARK    3  A    between atoms: C10_12  and  C11_13 
ROOT
HETATM    1  C2  UNL     1      20.339   5.169  48.893  1.00  0.00     0.199 C 
HETATM    2  C3  UNL     1      21.725   5.030  48.311  1.00  0.00     0.124 C 
HETATM    3  C4  UNL     1      21.570   4.199  47.075  1.00  0.00     0.082 C 
HETATM    4  C5  UNL     1      21.064   2.839  47.539  1.00  0.00     0.225 C 
HETATM    5  N1  UNL     1      22.117   2.001  48.089  1.00  0.00    -0.371 N 
HETATM    6  C6  UNL     1      22.495   1.804  49.475  1.00  0.00     0.115 C 
HETATM    7  C7  UNL     1      22.170   2.662  50.464  1.00  0.00     0.054 C 
HETATM    8  C8  UNL     1      22.919   2.997  51.667  1.00  0.00    -0.024 C 
HETATM    9  C9  UNL     1      23.993   2.316  52.026  1.00  0.00    -0.010 C 
HETATM   10  C12 UNL     1      22.272   4.153  52.330  1.00  0.00     0.061 C 
HETATM   11  C13 UNL     1      22.826   5.392  51.820  1.00  0.00    -0.019 C 
HETATM   12  C14 UNL     1      23.715   6.312  51.553  1.00  0.00    -0.025 C 
HETATM   13  C15 UNL     1      24.086   7.629  50.962  1.00  0.00     0.066 C 
HETATM   14  C16 UNL     1      25.103   7.574  49.919  1.00  0.00    -0.039 A 
HETATM   15  C17 UNL     1      26.280   8.253  50.153  1.00  0.00     0.008 A 
HETATM   16  C18 UNL     1      27.330   8.297  49.264  1.00  0.00     0.001 A 
HETATM   17  C19 UNL     1      27.280   7.651  48.050  1.00  0.00     0.001 A 
HETATM   18  C20 UNL     1      26.111   6.956  47.780  1.00  0.00     0.017 A 
HETATM   19  C21 UNL     1      25.100   6.948  48.699  1.00  0.00     0.038 A 
HETATM   20  C22 UNL     1      23.830   6.271  48.518  1.00  0.00     0.254 C 
HETATM   21  O3  UNL     1      24.278   5.149  48.783  1.00  0.00    -0.267 OA
HETATM   22  N2  UNL     1      22.457   6.245  48.218  1.00  0.00    -0.345 N 
HETATM   23  C23 UNL     1      21.986   7.573  47.875  1.00  0.00     0.153 C 
HETATM   24  C24 UNL     1      20.831   3.972  51.815  1.00  0.00     0.139 C 
HETATM   25  N3  UNL     1      20.961   3.464  50.477  1.00  0.00    -0.344 N 
HETATM   26  C25 UNL     1      20.023   3.756  49.436  1.00  0.00     0.163 C 
HETATM   27  C26 UNL     1      18.651   3.790  50.078  1.00  0.00     0.074 C 
HETATM   28  O4  UNL     1      19.982   2.919  48.380  1.00  0.00    -0.334 OA
HETATM   29  H9  UNL     1      22.753   1.412  47.503  1.00  0.00     0.161 HD
ENDROOT
BRANCH   9  30
HETATM   30  C10 UNL     1      24.794   2.631  53.263  1.00  0.00     0.097 C 
BRANCH  30  31
HETATM   31  C11 UNL     1      25.718   1.506  53.589  1.00  0.00     0.234 C 
HETATM   32  O2  UNL     1      26.558   2.088  54.249  1.00  0.00    -0.307 OA
ENDBRANCH  30  31
ENDBRANCH   9  30
BRANCH   1  33
HETATM   33  O1  UNL     1      19.467   5.313  47.812  1.00  0.00    -0.384 OA
HETATM   34  C1  UNL     1      18.654   6.409  47.856  1.00  0.00     0.202 C 
ENDBRANCH   1  33
TORSDOF 3
ENDMDL
MODEL 4
REMARK VINA RESULT:      -7.7      2.178      3.094
REMARK  3 active torsions:
REMARK  status: ('A' for Active; 'I' for Inactive)
REMARK    1  A    between atoms: O1_2  and  C2_3 
REMARK    2  A    between atoms: C9_11  and  C10_12 
REMARK    3  A    between atoms: C10_12  and  C11_13 
ROOT
HETATM    1  C2  UNL     1      23.406   5.476  49.096  1.00  0.00     0.199 C 
HETATM    2  C3  UNL     1      22.266   5.537  50.084  1.00  0.00     0.124 C 
HETATM    3  C4  UNL     1      22.429   6.830  50.820  1.00  0.00     0.082 C 
HETATM    4  C5  UNL     1      23.755   6.732  51.564  1.00  0.00     0.225 C 
HETATM    5  N1  UNL     1      23.664   5.940  52.779  1.00  0.00    -0.371 N 
HETATM    6  C6  UNL     1      23.989   4.540  52.981  1.00  0.00     0.115 C 
HETATM    7  C7  UNL     1      24.076   3.644  51.977  1.00  0.00     0.054 C 
HETATM    8  C8  UNL     1      23.756   2.224  51.989  1.00  0.00    -0.024 C 
HETATM    9  C9  UNL     1      23.491   1.583  53.115  1.00  0.00    -0.010 C 
HETATM   10  C12 UNL     1      23.790   1.712  50.600  1.00  0.00     0.061 C 
HETATM   11  C13 UNL     1      22.483   1.848  49.987  1.00  0.00    -0.019 C 
HETATM   12  C14 UNL     1      21.202   1.677  49.794  1.00  0.00    -0.025 C 
HETATM   13  C15 UNL     1      19.956   1.946  49.023  1.00  0.00     0.066 C 
HETATM   14  C16 UNL     1      18.875   2.557  49.788  1.00  0.00    -0.039 A 
HETATM   15  C17 UNL     1      17.700   1.844  49.893  1.00  0.00     0.008 A 
HETATM   16  C18 UNL     1      16.592   2.289  50.578  1.00  0.00     0.001 A 
HETATM   17  C19 UNL     1      16.577   3.505  51.223  1.00  0.00     0.001 A 
HETATM   18  C20 UNL     1      17.744   4.250  51.140  1.00  0.00     0.017 A 
HETATM   19  C21 UNL     1      18.813   3.759  50.445  1.00  0.00     0.038 A 
HETATM   20  C22 UNL     1      20.073   4.455  50.277  1.00  0.00     0.254 C 
HETATM   21  O3  UNL     1      20.492   4.174  51.407  1.00  0.00    -0.267 OA
HETATM   22  N2  UNL     1      20.990   5.226  49.541  1.00  0.00    -0.345 N 
HETATM   23  C23 UNL     1      20.441   5.565  48.242  1.00  0.00     0.153 C 
HETATM   24  C24 UNL     1      24.770   2.724  49.976  1.00  0.00     0.139 C 
HETATM   25  N3  UNL     1      24.500   3.974  50.630  1.00  0.00    -0.344 N 
HETATM   26  C25 UNL     1      24.651   5.242  49.983  1.00  0.00     0.163 C 
HETATM   27  C26 UNL     1      25.864   5.133  49.080  1.00  0.00     0.074 C 
HETATM   28  O4  UNL     1      24.797   6.330  50.767  1.00  0.00    -0.334 OA
HETATM   29  H9  UNL     1      23.335   6.321  53.696  1.00  0.00     0.161 HD
ENDROOT
BRANCH   9  30
HETATM   30  C10 UNL     1      23.156   0.115  53.168  1.00  0.00     0.097 C 
BRANCH  30  31
HETATM   31  C11 UNL     1      21.680  -0.082  53.261  1.00  0.00     0.234 C 
HETATM   32  O2  UNL     1      21.526  -0.068  54.468  1.00  0.00    -0.307 OA
ENDBRANCH  30  31
ENDBRANCH   9  30
BRANCH   1  33
HETATM   33  O1  UNL     1      23.582   6.774  48.612  1.00  0.00    -0.384 OA
HETATM   34  C1  UNL     1      23.518   6.907  47.254  1.00  0.00     0.202 C 
ENDBRANCH   1  33
TORSDOF 3
ENDMDL
MODEL 5
REMARK VINA RESULT:      -7.6      2.820      6.291
REMARK  3 active torsions:
REMARK  status: ('A' for Active; 'I' for Inactive)
REMARK    1  A    between atoms: O1_2  and  C2_3 
REMARK    2  A    between atoms: C9_11  and  C10_12 
REMARK    3  A    between atoms: C10_12  and  C11_13 
ROOT
HETATM    1  C2  UNL     1      22.388   4.626  49.246  1.00  0.00     0.199 C 
HETATM    2  C3  UNL     1      23.197   3.353  49.323  1.00  0.00     0.124 C 
HETATM    3  C4  UNL     1      23.230   2.802  47.932  1.00  0.00     0.082 C 
HETATM    4  C5  UNL     1      21.787   2.477  47.569  1.00  0.00     0.225 C 
HETATM    5  N1  UNL     1      21.323   1.231  48.156  1.00  0.00    -0.371 N 
HETATM    6  C6  UNL     1      20.564   1.025  49.376  1.00  0.00     0.115 C 
HETATM    7  C7  UNL     1      20.487   1.937  50.366  1.00  0.00     0.054 C 
HETATM    8  C8  UNL     1      20.367   1.719  51.801  1.00  0.00    -0.024 C 
HETATM    9  C9  UNL     1      20.130   0.520  52.303  1.00  0.00    -0.010 C 
HETATM   10  C12 UNL     1      20.549   3.012  52.500  1.00  0.00     0.061 C 
HETATM   11  C13 UNL     1      21.952   3.221  52.801  1.00  0.00    -0.019 C 
HETATM   12  C14 UNL     1      23.132   3.014  53.323  1.00  0.00    -0.025 C 
HETATM   13  C15 UNL     1      24.559   3.401  53.506  1.00  0.00     0.066 C 
HETATM   14  C16 UNL     1      25.531   2.402  53.079  1.00  0.00    -0.039 A 
HETATM   15  C17 UNL     1      26.379   1.899  54.043  1.00  0.00     0.008 A 
HETATM   16  C18 UNL     1      27.349   0.955  53.795  1.00  0.00     0.001 A 
HETATM   17  C19 UNL     1      27.547   0.432  52.537  1.00  0.00     0.001 A 
HETATM   18  C20 UNL     1      26.711   0.913  51.541  1.00  0.00     0.017 A 
HETATM   19  C21 UNL     1      25.766   1.852  51.846  1.00  0.00     0.038 A 
HETATM   20  C22 UNL     1      24.851   2.438  50.885  1.00  0.00     0.254 C 
HETATM   21  O3  UNL     1      24.089   1.464  50.868  1.00  0.00    -0.267 OA
HETATM   22  N2  UNL     1      24.424   3.470  50.032  1.00  0.00    -0.345 N 
HETATM   23  C23 UNL     1      25.366   4.572  50.054  1.00  0.00     0.153 C 
HETATM   24  C24 UNL     1      20.103   3.975  51.382  1.00  0.00     0.139 C 
HETATM   25  N3  UNL     1      20.544   3.371  50.156  1.00  0.00    -0.344 N 
HETATM   26  C25 UNL     1      20.942   4.130  49.010  1.00  0.00     0.163 C 
HETATM   27  C26 UNL     1      20.030   5.340  48.946  1.00  0.00     0.074 C 
HETATM   28  O4  UNL     1      20.918   3.513  47.811  1.00  0.00    -0.334 OA
HETATM   29  H9  UNL     1      21.497   0.291  47.732  1.00  0.00     0.161 HD
ENDROOT
BRANCH   9  30
HETATM   30  C10 UNL     1      19.999   0.255  53.780  1.00  0.00     0.097 C 
BRANCH  30  31
HETATM   31  C11 UNL     1      21.320  -0.119  54.365  1.00  0.00     0.234 C 
HETATM   32  O2  UNL     1      21.058  -1.211  54.833  1.00  0.00    -0.307 OA
ENDBRANCH  30  31
ENDBRANCH   9  30
BRANCH   1  33
HETATM   33  O1  UNL     1      22.729   5.241  48.039  1.00  0.00    -0.384 OA
HETATM   34  C1  UNL     1      23.185   6.524  48.143  1.00  0.00     0.202 C 
ENDBRANCH   1  33
TORSDOF 3
ENDMDL
MODEL 6
REMARK VINA RESULT:      -7.5      3.501      4.976
REMARK  3 active torsions:
REMARK  status: ('A' for Active; 'I' for Inactive)
REMARK    1  A    between atoms: O1_2  and  C2_3 
REMARK    2  A    between atoms: C9_11  and  C10_12 
REMARK    3  A    between atoms: C10_12  and  C11_13 
ROOT
HETATM    1  C2  UNL     1      24.608   6.755  47.998  1.00  0.00     0.199 C 
HETATM    2  C3  UNL     1      23.236   6.860  48.619  1.00  0.00     0.124 C 
HETATM    3  C4  UNL     1      23.203   8.182  49.322  1.00  0.00     0.082 C 
HETATM    4  C5  UNL     1      24.261   8.109  50.414  1.00  0.00     0.225 C 
HETATM    5  N1  UNL     1      23.818   7.367  51.583  1.00  0.00    -0.371 N 
HETATM    6  C6  UNL     1      24.052   5.976  51.922  1.00  0.00     0.115 C 
HETATM    7  C7  UNL     1      24.407   5.040  51.018  1.00  0.00     0.054 C 
HETATM    8  C8  UNL     1      24.075   3.622  50.992  1.00  0.00    -0.024 C 
HETATM    9  C9  UNL     1      23.493   3.028  52.019  1.00  0.00    -0.010 C 
HETATM   10  C12 UNL     1      24.495   3.054  49.690  1.00  0.00     0.061 C 
HETATM   11  C13 UNL     1      23.417   3.170  48.727  1.00  0.00    -0.019 C 
HETATM   12  C14 UNL     1      22.241   2.995  48.185  1.00  0.00    -0.025 C 
HETATM   13  C15 UNL     1      21.268   3.238  47.082  1.00  0.00     0.066 C 
HETATM   14  C16 UNL     1      20.024   3.883  47.486  1.00  0.00    -0.039 A 
HETATM   15  C17 UNL     1      18.857   3.179  47.279  1.00  0.00     0.008 A 
HETATM   16  C18 UNL     1      17.607   3.654  47.604  1.00  0.00     0.001 A 
HETATM   17  C19 UNL     1      17.428   4.896  48.172  1.00  0.00     0.001 A 
HETATM   18  C20 UNL     1      18.581   5.633  48.396  1.00  0.00     0.017 A 
HETATM   19  C21 UNL     1      19.796   5.110  48.052  1.00  0.00     0.038 A 
HETATM   20  C22 UNL     1      21.062   5.795  48.223  1.00  0.00     0.254 C 
HETATM   21  O3  UNL     1      21.139   5.558  49.434  1.00  0.00    -0.267 OA
HETATM   22  N2  UNL     1      22.162   6.532  47.748  1.00  0.00    -0.345 N 
HETATM   23  C23 UNL     1      22.009   6.820  46.335  1.00  0.00     0.153 C 
HETATM   24  C24 UNL     1      25.626   4.036  49.333  1.00  0.00     0.139 C 
HETATM   25  N3  UNL     1      25.200   5.313  49.835  1.00  0.00    -0.344 N 
HETATM   26  C25 UNL     1      25.547   6.554  49.210  1.00  0.00     0.163 C 
HETATM   27  C26 UNL     1      26.964   6.404  48.693  1.00  0.00     0.074 C 
HETATM   28  O4  UNL     1      25.481   7.672  49.961  1.00  0.00    -0.334 OA
HETATM   29  H9  UNL     1      23.249   7.786  52.353  1.00  0.00     0.161 HD
ENDROOT
BRANCH   9  30
HETATM   30  C10 UNL     1      23.135   1.565  52.031  1.00  0.00     0.097 C 
BRANCH  30  31
HETATM   31  C11 UNL     1      23.919   0.842  53.074  1.00  0.00     0.234 C 
HETATM   32  O2  UNL     1      24.888   0.493  52.427  1.00  0.00    -0.307 OA
ENDBRANCH  30  31
ENDBRANCH   9  30
BRANCH   1  33
HETATM   33  O1  UNL     1      24.933   8.032  47.535  1.00  0.00    -0.384 OA
HETATM   34  C1  UNL     1      25.278   8.108  46.216  1.00  0.00     0.202 C 
ENDBRANCH   1  33
TORSDOF 3
ENDMDL
MODEL 7
REMARK VINA RESULT:      -7.3      2.351      7.320
REMARK  3 active torsions:
REMARK  status: ('A' for Active; 'I' for Inactive)
REMARK    1  A    between atoms: O1_2  and  C2_3 
REMARK    2  A    between atoms: C9_11  and  C10_12 
REMARK    3  A    between atoms: C10_12  and  C11_13 
ROOT
HETATM    1  C2  UNL     1      21.421   1.946  51.783  1.00  0.00     0.199 C 
HETATM    2  C3  UNL     1      21.489   3.444  51.604  1.00  0.00     0.124 C 
HETATM    3  C4  UNL     1      20.310   3.999  52.342  1.00  0.00     0.082 C 
HETATM    4  C5  UNL     1      19.074   3.450  51.641  1.00  0.00     0.225 C 
HETATM    5  N1  UNL     1      18.761   4.156  50.410  1.00  0.00    -0.371 N 
HETATM    6  C6  UNL     1      19.107   3.807  49.046  1.00  0.00     0.115 C 
HETATM    7  C7  UNL     1      20.105   2.958  48.726  1.00  0.00     0.054 C 
HETATM    8  C8  UNL     1      20.980   2.974  47.562  1.00  0.00    -0.024 C 
HETATM    9  C9  UNL     1      20.758   3.780  46.538  1.00  0.00    -0.010 C 
HETATM   10  C12 UNL     1      22.064   1.985  47.762  1.00  0.00     0.061 C 
HETATM   11  C13 UNL     1      23.190   2.609  48.431  1.00  0.00    -0.019 C 
HETATM   12  C14 UNL     1      24.188   3.428  48.632  1.00  0.00    -0.025 C 
HETATM   13  C15 UNL     1      25.309   3.929  49.476  1.00  0.00     0.066 C 
HETATM   14  C16 UNL     1      25.213   5.331  49.864  1.00  0.00    -0.039 A 
HETATM   15  C17 UNL     1      26.222   6.170  49.439  1.00  0.00     0.008 A 
HETATM   16  C18 UNL     1      26.274   7.515  49.726  1.00  0.00     0.001 A 
HETATM   17  C19 UNL     1      25.299   8.134  50.475  1.00  0.00     0.001 A 
HETATM   18  C20 UNL     1      24.266   7.322  50.919  1.00  0.00     0.017 A 
HETATM   19  C21 UNL     1      24.268   5.993  50.604  1.00  0.00     0.038 A 
HETATM   20  C22 UNL     1      23.253   5.047  51.027  1.00  0.00     0.254 C 
HETATM   21  O3  UNL     1      22.430   5.398  50.173  1.00  0.00    -0.267 OA
HETATM   22  N2  UNL     1      22.768   4.015  51.849  1.00  0.00    -0.345 N 
HETATM   23  C23 UNL     1      23.748   3.665  52.858  1.00  0.00     0.153 C 
HETATM   24  C24 UNL     1      21.354   1.016  48.726  1.00  0.00     0.139 C 
HETATM   25  N3  UNL     1      20.516   1.840  49.553  1.00  0.00    -0.344 N 
HETATM   26  C25 UNL     1      20.211   1.526  50.916  1.00  0.00     0.163 C 
HETATM   27  C26 UNL     1      20.069   0.019  50.998  1.00  0.00     0.074 C 
HETATM   28  O4  UNL     1      19.113   2.090  51.457  1.00  0.00    -0.334 OA
HETATM   29  H9  UNL     1      18.215   5.048  50.378  1.00  0.00     0.161 HD
ENDROOT
BRANCH   9  30
HETATM   30  C10 UNL     1      21.639   3.826  45.317  1.00  0.00     0.097 C 
BRANCH  30  31
HETATM   31  C11 UNL     1      20.815   3.958  44.081  1.00  0.00     0.234 C 
HETATM   32  O2  UNL     1      20.772   5.168  43.966  1.00  0.00    -0.307 OA
ENDBRANCH  30  31
ENDBRANCH   9  30
BRANCH   1  33
HETATM   33  O1  UNL     1      20.986   1.721  53.091  1.00  0.00    -0.384 OA
HETATM   34  C1  UNL     1      21.651   0.739  53.769  1.00  0.00     0.202 C 
ENDBRANCH   1  33
TORSDOF 3
ENDMDL
MODEL 8
REMARK VINA RESULT:      -7.3     10.684     14.382
REMARK  3 active torsions:
REMARK  status: ('A' for Active; 'I' for Inactive)
REMARK    1  A    between atoms: O1_2  and  C2_3 
REMARK    2  A    between atoms: C9_11  and  C10_12 
REMARK    3  A    between atoms: C10_12  and  C11_13 
ROOT
HETATM    1  C2  UNL     1      33.315   7.922  47.056  1.00  0.00     0.199 C 
HETATM    2  C3  UNL     1      31.962   7.326  46.748  1.00  0.00     0.124 C 
HETATM    3  C4  UNL     1      32.216   6.200  45.795  1.00  0.00     0.082 C 
HETATM    4  C5  UNL     1      32.801   6.831  44.538  1.00  0.00     0.225 C 
HETATM    5  N1  UNL     1      31.793   7.448  43.693  1.00  0.00    -0.371 N 
HETATM    6  C6  UNL     1      31.385   8.839  43.629  1.00  0.00     0.115 C 
HETATM    7  C7  UNL     1      31.616   9.729  44.616  1.00  0.00     0.054 C 
HETATM    8  C8  UNL     1      30.807  10.866  45.029  1.00  0.00    -0.024 C 
HETATM    9  C9  UNL     1      29.772  11.276  44.316  1.00  0.00    -0.010 C 
HETATM   10  C12 UNL     1      31.348  11.406  46.298  1.00  0.00     0.061 C 
HETATM   11  C13 UNL     1      30.725  10.742  47.427  1.00  0.00    -0.019 C 
HETATM   12  C14 UNL     1      29.782  10.348  48.242  1.00  0.00    -0.025 C 
HETATM   13  C15 UNL     1      29.338   9.599  49.451  1.00  0.00     0.066 C 
HETATM   14  C16 UNL     1      28.362   8.545  49.202  1.00  0.00    -0.039 A 
HETATM   15  C17 UNL     1      27.134   8.670  49.815  1.00  0.00     0.008 A 
HETATM   16  C18 UNL     1      26.113   7.758  49.679  1.00  0.00     0.001 A 
HETATM   17  C19 UNL     1      26.247   6.628  48.904  1.00  0.00     0.001 A 
HETATM   18  C20 UNL     1      27.471   6.469  48.271  1.00  0.00     0.017 A 
HETATM   19  C21 UNL     1      28.449   7.407  48.443  1.00  0.00     0.038 A 
HETATM   20  C22 UNL     1      29.769   7.336  47.846  1.00  0.00     0.254 C 
HETATM   21  O3  UNL     1      29.393   7.720  46.732  1.00  0.00    -0.267 OA
HETATM   22  N2  UNL     1      31.150   7.075  47.888  1.00  0.00    -0.345 N 
HETATM   23  C23 UNL     1      31.536   6.592  49.199  1.00  0.00     0.153 C 
HETATM   24  C24 UNL     1      32.814  10.950  46.167  1.00  0.00     0.139 C 
HETATM   25  N3  UNL     1      32.764   9.678  45.501  1.00  0.00    -0.344 N 
HETATM   26  C25 UNL     1      33.712   8.632  45.741  1.00  0.00     0.163 C 
HETATM   27  C26 UNL     1      35.058   9.299  45.949  1.00  0.00     0.074 C 
HETATM   28  O4  UNL     1      33.848   7.682  44.794  1.00  0.00    -0.334 OA
HETATM   29  H9  UNL     1      31.220   6.920  42.996  1.00  0.00     0.161 HD
ENDROOT
BRANCH   9  30
HETATM   30  C10 UNL     1      28.911  12.448  44.711  1.00  0.00     0.097 C 
BRANCH  30  31
HETATM   31  C11 UNL     1      27.652  11.978  45.358  1.00  0.00     0.234 C 
HETATM   32  O2  UNL     1      27.694  12.593  46.407  1.00  0.00    -0.307 OA
ENDBRANCH  30  31
ENDBRANCH   9  30
BRANCH   1  33
HETATM   33  O1  UNL     1      34.210   6.853  47.139  1.00  0.00    -0.384 OA
HETATM   34  C1  UNL     1      34.938   6.786  48.292  1.00  0.00     0.202 C 
ENDBRANCH   1  33
TORSDOF 3
ENDMDL
MODEL 9
REMARK VINA RESULT:      -7.2     11.172     15.282
REMARK  3 active torsions:
REMARK  status: ('A' for Active; 'I' for Inactive)
REMARK    1  A    between atoms: O1_2  and  C2_3 
REMARK    2  A    between atoms: C9_11  and  C10_12 
REMARK    3  A    between atoms: C10_12  and  C11_13 
ROOT
HETATM    1  C2  UNL     1      28.957   8.625  47.214  1.00  0.00     0.199 C 
HETATM    2  C3  UNL     1      30.233   8.391  47.986  1.00  0.00     0.124 C 
HETATM    3  C4  UNL     1      30.054   9.089  49.298  1.00  0.00     0.082 C 
HETATM    4  C5  UNL     1      29.909  10.570  48.975  1.00  0.00     0.225 C 
HETATM    5  N1  UNL     1      31.181  11.215  48.695  1.00  0.00    -0.371 N 
HETATM    6  C6  UNL     1      31.804  11.482  47.412  1.00  0.00     0.115 C 
HETATM    7  C7  UNL     1      31.474  10.835  46.276  1.00  0.00     0.054 C 
HETATM    8  C8  UNL     1      32.321  10.486  45.145  1.00  0.00    -0.024 C 
HETATM    9  C9  UNL     1      33.553  10.952  45.031  1.00  0.00    -0.010 C 
HETATM   10  C12 UNL     1      31.570   9.583  44.242  1.00  0.00     0.061 C 
HETATM   11  C13 UNL     1      31.779   8.202  44.634  1.00  0.00    -0.019 C 
HETATM   12  C14 UNL     1      32.413   7.086  44.877  1.00  0.00    -0.025 C 
HETATM   13  C15 UNL     1      32.417   5.661  45.314  1.00  0.00     0.066 C 
HETATM   14  C16 UNL     1      33.247   5.373  46.478  1.00  0.00    -0.039 A 
HETATM   15  C17 UNL     1      34.287   4.485  46.302  1.00  0.00     0.008 A 
HETATM   16  C18 UNL     1      35.153   4.111  47.304  1.00  0.00     0.001 A 
HETATM   17  C19 UNL     1      35.042   4.609  48.582  1.00  0.00     0.001 A 
HETATM   18  C20 UNL     1      34.008   5.507  48.797  1.00  0.00     0.017 A 
HETATM   19  C21 UNL     1      33.177   5.841  47.765  1.00  0.00     0.038 A 
HETATM   20  C22 UNL     1      32.055   6.752  47.876  1.00  0.00     0.254 C 
HETATM   21  O3  UNL     1      32.753   7.772  47.836  1.00  0.00    -0.267 OA
HETATM   22  N2  UNL     1      30.684   7.043  47.995  1.00  0.00    -0.345 N 
HETATM   23  C23 UNL     1      29.910   5.820  48.077  1.00  0.00     0.153 C 
HETATM   24  C24 UNL     1      30.131  10.014  44.587  1.00  0.00     0.139 C 
HETATM   25  N3  UNL     1      30.147  10.324  45.989  1.00  0.00    -0.344 N 
HETATM   26  C25 UNL     1      29.018  10.126  46.846  1.00  0.00     0.163 C 
HETATM   27  C26 UNL     1      27.785  10.467  46.033  1.00  0.00     0.074 C 
HETATM   28  O4  UNL     1      28.978  10.825  47.999  1.00  0.00    -0.334 OA
HETATM   29  H9  UNL     1      31.820  11.580  49.437  1.00  0.00     0.161 HD
ENDROOT
BRANCH   9  30
HETATM   30  C10 UNL     1      34.460  10.614  43.876  1.00  0.00     0.097 C 
BRANCH  30  31
HETATM   31  C11 UNL     1      35.479   9.605  44.288  1.00  0.00     0.234 C 
HETATM   32  O2  UNL     1      35.262   8.722  43.481  1.00  0.00    -0.307 OA
ENDBRANCH  30  31
ENDBRANCH   9  30
BRANCH   1  33
HETATM   33  O1  UNL     1      27.914   8.553  48.140  1.00  0.00    -0.384 OA
HETATM   34  C1  UNL     1      26.937   7.642  47.854  1.00  0.00     0.202 C 
ENDBRANCH   1  33
TORSDOF 3
ENDMDL
