MODEL 1
REMARK VINA RESULT:      -8.0      0.000      0.000
REMARK  3 active torsions:
REMARK  status: ('A' for Active; 'I' for Inactive)
REMARK    1  A    between atoms: C10_11  and  N2_12 
REMARK    2  A    between atoms: N2_12  and  C11_13 
REMARK    3  A    between atoms: C11_13  and  C12_14 
ROOT
HETATM    1  C1  UNL     1      29.092   0.808  53.747  1.00  0.00    -0.035 A 
HETATM    2  C2  UNL     1      28.695   2.192  53.448  1.00  0.00     0.026 A 
HETATM    3  C3  UNL     1      27.255   1.733  53.516  1.00  0.00     0.124 A 
HETATM    4  C4  UNL     1      26.255   1.340  52.685  1.00  0.00    -0.013 C 
HETATM    5  C5  UNL     1      27.315   0.150  52.501  1.00  0.00     0.062 C 
HETATM    6  C6  UNL     1      27.906   0.265  53.905  1.00  0.00     0.076 A 
HETATM    7  C7  UNL     1      26.786  -0.008  54.926  1.00  0.00     0.262 C 
HETATM    8  N1  UNL     1      25.677  -0.726  54.430  1.00  0.00    -0.268 NA
HETATM    9  C8  UNL     1      24.445  -0.494  53.958  1.00  0.00     0.116 C 
HETATM   10  C9  UNL     1      24.131   0.632  52.965  1.00  0.00     0.048 C 
HETATM   11  C10 UNL     1      24.903   1.455  52.131  1.00  0.00     0.035 C 
HETATM   12  O1  UNL     1      26.361   1.517  54.763  1.00  0.00    -0.343 OA
ENDROOT
BRANCH  11  13
HETATM   13  N2  UNL     1      24.310   2.117  51.103  1.00  0.00    -0.385 N 
HETATM   14  H7  UNL     1      23.949   1.436  50.371  1.00  0.00     0.160 HD
BRANCH  13  15
HETATM   15  C11 UNL     1      24.245   3.547  51.119  1.00  0.00     0.160 C 
BRANCH  15  16
HETATM   16  C12 UNL     1      25.253   4.225  50.281  1.00  0.00    -0.023 A 
HETATM   17  C13 UNL     1      26.343   3.598  49.712  1.00  0.00     0.012 A 
HETATM   18  C14 UNL     1      27.205   4.373  48.948  1.00  0.00     0.020 A 
HETATM   19  C15 UNL     1      26.994   5.722  48.754  1.00  0.00     0.116 A 
HETATM   20  N3  UNL     1      25.905   6.305  49.334  1.00  0.00    -0.273 NA
HETATM   21  C16 UNL     1      25.039   5.589  50.086  1.00  0.00     0.124 A 
ENDBRANCH  15  16
ENDBRANCH  13  15
ENDBRANCH  11  13
TORSDOF 3
ENDMDL
MODEL 2
REMARK VINA RESULT:      -7.5      2.872      5.613
REMARK  3 active torsions:
REMARK  status: ('A' for Active; 'I' for Inactive)
REMARK    1  A    between atoms: C10_11  and  N2_12 
REMARK    2  A    between atoms: N2_12  and  C11_13 
REMARK    3  A    between atoms: C11_13  and  C12_14 
ROOT
HETATM    1  C1  UNL     1      21.200  -1.268  54.041  1.00  0.00    -0.035 A 
HETATM    2  C2  UNL     1      21.587  -0.195  54.968  1.00  0.00     0.026 A 
HETATM    3  C3  UNL     1      21.954   0.639  53.760  1.00  0.00     0.124 A 
HETATM    4  C4  UNL     1      23.049   0.971  53.027  1.00  0.00    -0.013 C 
HETATM    5  C5  UNL     1      22.923  -0.601  52.728  1.00  0.00     0.062 C 
HETATM    6  C6  UNL     1      21.406  -0.659  52.895  1.00  0.00     0.076 A 
HETATM    7  C7  UNL     1      20.767   0.261  51.839  1.00  0.00     0.262 C 
HETATM    8  N1  UNL     1      21.577   0.556  50.722  1.00  0.00    -0.268 NA
HETATM    9  C8  UNL     1      22.391   1.527  50.286  1.00  0.00     0.116 C 
HETATM   10  C9  UNL     1      23.419   2.222  51.186  1.00  0.00     0.048 C 
HETATM   11  C10 UNL     1      23.977   1.943  52.443  1.00  0.00     0.035 C 
HETATM   12  O1  UNL     1      21.031   1.473  52.837  1.00  0.00    -0.343 OA
ENDROOT
BRANCH  11  13
HETATM   13  N2  UNL     1      25.127   2.561  52.821  1.00  0.00    -0.385 N 
HETATM   14  H7  UNL     1      24.965   3.177  53.672  1.00  0.00     0.160 HD
BRANCH  13  15
HETATM   15  C11 UNL     1      26.335   2.330  52.088  1.00  0.00     0.160 C 
BRANCH  15  16
HETATM   16  C12 UNL     1      27.202   1.270  52.637  1.00  0.00    -0.023 A 
HETATM   17  C13 UNL     1      26.978  -0.082  52.478  1.00  0.00     0.012 A 
HETATM   18  C14 UNL     1      27.887  -0.958  53.057  1.00  0.00     0.020 A 
HETATM   19  C15 UNL     1      28.980  -0.510  53.769  1.00  0.00     0.116 A 
HETATM   20  N3  UNL     1      29.167   0.835  53.905  1.00  0.00    -0.273 NA
HETATM   21  C16 UNL     1      28.307   1.725  53.358  1.00  0.00     0.124 A 
ENDBRANCH  15  16
ENDBRANCH  13  15
ENDBRANCH  11  13
TORSDOF 3
ENDMDL
MODEL 3
REMARK VINA RESULT:      -7.4      2.881      5.568
REMARK  3 active torsions:
REMARK  status: ('A' for Active; 'I' for Inactive)
REMARK    1  A    between atoms: C10_11  and  N2_12 
REMARK    2  A    between atoms: N2_12  and  C11_13 
REMARK    3  A    between atoms: C11_13  and  C12_14 
ROOT
HETATM    1  C1  UNL     1      21.808  -2.151  54.512  1.00  0.00    -0.035 A 
HETATM    2  C2  UNL     1      22.631  -1.223  55.300  1.00  0.00     0.026 A 
HETATM    3  C3  UNL     1      22.077  -0.100  54.452  1.00  0.00     0.124 A 
HETATM    4  C4  UNL     1      22.416   0.635  53.361  1.00  0.00    -0.013 C 
HETATM    5  C5  UNL     1      22.230  -0.825  52.722  1.00  0.00     0.062 C 
HETATM    6  C6  UNL     1      21.186  -1.293  53.735  1.00  0.00     0.076 A 
HETATM    7  C7  UNL     1      19.959  -0.371  53.628  1.00  0.00     0.262 C 
HETATM    8  N1  UNL     1      19.836   0.335  52.412  1.00  0.00    -0.268 NA
HETATM    9  C8  UNL     1      20.111   1.545  51.907  1.00  0.00     0.116 C 
HETATM   10  C9  UNL     1      21.429   2.281  52.174  1.00  0.00     0.048 C 
HETATM   11  C10 UNL     1      22.683   1.905  52.680  1.00  0.00     0.035 C 
HETATM   12  O1  UNL     1      20.725   0.644  54.586  1.00  0.00    -0.343 OA
ENDROOT
BRANCH  11  13
HETATM   13  N2  UNL     1      23.763   2.702  52.464  1.00  0.00    -0.385 N 
HETATM   14  H7  UNL     1      23.613   3.666  52.887  1.00  0.00     0.160 HD
BRANCH  13  15
HETATM   15  C11 UNL     1      24.893   2.194  51.748  1.00  0.00     0.160 C 
BRANCH  15  16
HETATM   16  C12 UNL     1      25.828   1.386  52.555  1.00  0.00    -0.023 A 
HETATM   17  C13 UNL     1      26.236   0.109  52.229  1.00  0.00     0.012 A 
HETATM   18  C14 UNL     1      27.121  -0.524  53.092  1.00  0.00     0.020 A 
HETATM   19  C15 UNL     1      27.586   0.088  54.237  1.00  0.00     0.116 A 
HETATM   20  N3  UNL     1      27.159   1.352  54.524  1.00  0.00    -0.273 NA
HETATM   21  C16 UNL     1      26.297   2.006  53.713  1.00  0.00     0.124 A 
ENDBRANCH  15  16
ENDBRANCH  13  15
ENDBRANCH  11  13
TORSDOF 3
ENDMDL
MODEL 4
REMARK VINA RESULT:      -7.4      3.077      5.382
REMARK  3 active torsions:
REMARK  status: ('A' for Active; 'I' for Inactive)
REMARK    1  A    between atoms: C10_11  and  N2_12 
REMARK    2  A    between atoms: N2_12  and  C11_13 
REMARK    3  A    between atoms: C11_13  and  C12_14 
ROOT
HETATM    1  C1  UNL     1      29.084  -0.450  54.082  1.00  0.00    -0.035 A 
HETATM    2  C2  UNL     1      28.462  -1.378  53.127  1.00  0.00     0.026 A 
HETATM    3  C3  UNL     1      27.325  -0.388  52.993  1.00  0.00     0.124 A 
HETATM    4  C4  UNL     1      26.079  -0.171  53.489  1.00  0.00    -0.013 C 
HETATM    5  C5  UNL     1      26.989   0.046  54.793  1.00  0.00     0.062 C 
HETATM    6  C6  UNL     1      28.218   0.538  54.031  1.00  0.00     0.076 A 
HETATM    7  C7  UNL     1      27.838   1.825  53.277  1.00  0.00     0.262 C 
HETATM    8  N1  UNL     1      26.708   2.507  53.775  1.00  0.00    -0.268 NA
HETATM    9  C8  UNL     1      25.397   2.620  53.523  1.00  0.00     0.116 C 
HETATM   10  C9  UNL     1      24.502   1.416  53.204  1.00  0.00     0.048 C 
HETATM   11  C10 UNL     1      24.635   0.026  53.336  1.00  0.00     0.035 C 
HETATM   12  O1  UNL     1      27.250   0.894  52.127  1.00  0.00    -0.343 OA
ENDROOT
BRANCH  11  13
HETATM   13  N2  UNL     1      23.529  -0.764  53.297  1.00  0.00    -0.385 N 
HETATM   14  H7  UNL     1      23.676  -1.590  52.644  1.00  0.00     0.160 HD
BRANCH  13  15
HETATM   15  C11 UNL     1      22.380  -0.421  54.078  1.00  0.00     0.160 C 
BRANCH  15  16
HETATM   16  C12 UNL     1      21.112  -0.366  53.326  1.00  0.00    -0.023 A 
HETATM   17  C13 UNL     1      19.921  -0.909  53.765  1.00  0.00     0.012 A 
HETATM   18  C14 UNL     1      18.811  -0.776  52.942  1.00  0.00     0.020 A 
HETATM   19  C15 UNL     1      18.878  -0.128  51.726  1.00  0.00     0.116 A 
HETATM   20  N3  UNL     1      20.073   0.396  51.328  1.00  0.00    -0.273 NA
HETATM   21  C16 UNL     1      21.181   0.290  52.097  1.00  0.00     0.124 A 
ENDBRANCH  15  16
ENDBRANCH  13  15
ENDBRANCH  11  13
TORSDOF 3
ENDMDL
MODEL 5
REMARK VINA RESULT:      -7.3      2.359      5.228
REMARK  3 active torsions:
REMARK  status: ('A' for Active; 'I' for Inactive)
REMARK    1  A    between atoms: C10_11  and  N2_12 
REMARK    2  A    between atoms: N2_12  and  C11_13 
REMARK    3  A    between atoms: C11_13  and  C12_14 
ROOT
HETATM    1  C1  UNL     1      26.571   0.400  54.797  1.00  0.00    -0.035 A 
HETATM    2  C2  UNL     1      25.530  -0.479  54.246  1.00  0.00     0.026 A 
HETATM    3  C3  UNL     1      25.543   0.380  53.001  1.00  0.00     0.124 A 
HETATM    4  C4  UNL     1      24.859   1.419  52.455  1.00  0.00    -0.013 C 
HETATM    5  C5  UNL     1      25.528   2.111  53.738  1.00  0.00     0.062 C 
HETATM    6  C6  UNL     1      26.754   1.201  53.771  1.00  0.00     0.076 A 
HETATM    7  C7  UNL     1      27.527   1.381  52.453  1.00  0.00     0.262 C 
HETATM    8  N1  UNL     1      27.269   2.582  51.759  1.00  0.00    -0.268 NA
HETATM    9  C8  UNL     1      26.515   3.029  50.745  1.00  0.00     0.116 C 
HETATM   10  C9  UNL     1      25.045   2.635  50.563  1.00  0.00     0.048 C 
HETATM   11  C10 UNL     1      24.074   2.040  51.384  1.00  0.00     0.035 C 
HETATM   12  O1  UNL     1      26.520   0.336  51.800  1.00  0.00    -0.343 OA
ENDROOT
BRANCH  11  13
HETATM   13  N2  UNL     1      22.759   2.144  51.057  1.00  0.00    -0.385 N 
HETATM   14  H7  UNL     1      22.492   3.157  50.876  1.00  0.00     0.160 HD
BRANCH  13  15
HETATM   15  C11 UNL     1      21.944   0.969  50.998  1.00  0.00     0.160 C 
BRANCH  15  16
HETATM   16  C12 UNL     1      21.716   0.305  52.295  1.00  0.00    -0.023 A 
HETATM   17  C13 UNL     1      22.195  -0.948  52.625  1.00  0.00     0.012 A 
HETATM   18  C14 UNL     1      21.895  -1.439  53.888  1.00  0.00     0.020 A 
HETATM   19  C15 UNL     1      21.148  -0.715  54.794  1.00  0.00     0.116 A 
HETATM   20  N3  UNL     1      20.693   0.519  54.431  1.00  0.00    -0.273 NA
HETATM   21  C16 UNL     1      20.960   1.037  53.211  1.00  0.00     0.124 A 
ENDBRANCH  15  16
ENDBRANCH  13  15
ENDBRANCH  11  13
TORSDOF 3
ENDMDL
MODEL 6
REMARK VINA RESULT:      -7.3      2.718      5.314
REMARK  3 active torsions:
REMARK  status: ('A' for Active; 'I' for Inactive)
REMARK    1  A    between atoms: C10_11  and  N2_12 
REMARK    2  A    between atoms: N2_12  and  C11_13 
REMARK    3  A    between atoms: C11_13  and  C12_14 
ROOT
HETATM    1  C1  UNL     1      26.520   2.722  50.913  1.00  0.00    -0.035 A 
HETATM    2  C2  UNL     1      25.100   2.924  51.231  1.00  0.00     0.026 A 
HETATM    3  C3  UNL     1      25.309   2.059  52.455  1.00  0.00     0.124 A 
HETATM    4  C4  UNL     1      25.144   0.770  52.850  1.00  0.00    -0.013 C 
HETATM    5  C5  UNL     1      26.289   0.622  51.736  1.00  0.00     0.062 C 
HETATM    6  C6  UNL     1      26.885   2.011  51.956  1.00  0.00     0.076 A 
HETATM    7  C7  UNL     1      27.390   2.097  53.408  1.00  0.00     0.262 C 
HETATM    8  N1  UNL     1      27.640   0.858  54.036  1.00  0.00    -0.268 NA
HETATM    9  C8  UNL     1      27.035   0.003  54.871  1.00  0.00     0.116 C 
HETATM   10  C9  UNL     1      25.558  -0.387  54.742  1.00  0.00     0.048 C 
HETATM   11  C10 UNL     1      24.589  -0.258  53.735  1.00  0.00     0.035 C 
HETATM   12  O1  UNL     1      25.898   2.450  53.833  1.00  0.00    -0.343 OA
ENDROOT
BRANCH  11  13
HETATM   13  N2  UNL     1      23.464  -1.020  53.782  1.00  0.00    -0.385 N 
HETATM   14  H7  UNL     1      23.661  -2.007  53.443  1.00  0.00     0.160 HD
BRANCH  13  15
HETATM   15  C11 UNL     1      22.236  -0.449  54.245  1.00  0.00     0.160 C 
BRANCH  15  16
HETATM   16  C12 UNL     1      21.227  -0.211  53.195  1.00  0.00    -0.023 A 
HETATM   17  C13 UNL     1      21.507   0.309  51.947  1.00  0.00     0.012 A 
HETATM   18  C14 UNL     1      20.446   0.475  51.067  1.00  0.00     0.020 A 
HETATM   19  C15 UNL     1      19.153   0.139  51.410  1.00  0.00     0.116 A 
HETATM   20  N3  UNL     1      18.917  -0.372  52.653  1.00  0.00    -0.273 NA
HETATM   21  C16 UNL     1      19.919  -0.551  53.543  1.00  0.00     0.124 A 
ENDBRANCH  15  16
ENDBRANCH  13  15
ENDBRANCH  11  13
TORSDOF 3
ENDMDL
MODEL 7
REMARK VINA RESULT:      -7.3      3.699      6.326
REMARK  3 active torsions:
REMARK  status: ('A' for Active; 'I' for Inactive)
REMARK    1  A    between atoms: C10_11  and  N2_12 
REMARK    2  A    between atoms: N2_12  and  C11_13 
REMARK    3  A    between atoms: C11_13  and  C12_14 
ROOT
HETATM    1  C1  UNL     1      21.584   2.842  50.777  1.00  0.00    -0.035 A 
HETATM    2  C2  UNL     1      22.450   1.871  50.093  1.00  0.00     0.026 A 
HETATM    3  C3  UNL     1      22.322   0.984  51.312  1.00  0.00     0.124 A 
HETATM    4  C4  UNL     1      23.002   0.685  52.449  1.00  0.00    -0.013 C 
HETATM    5  C5  UNL     1      22.598   2.217  52.706  1.00  0.00     0.062 C 
HETATM    6  C6  UNL     1      21.318   2.170  51.875  1.00  0.00     0.076 A 
HETATM    7  C7  UNL     1      20.371   1.130  52.501  1.00  0.00     0.262 C 
HETATM    8  N1  UNL     1      20.623   0.819  53.854  1.00  0.00    -0.268 NA
HETATM    9  C8  UNL     1      21.251  -0.114  54.582  1.00  0.00     0.116 C 
HETATM   10  C9  UNL     1      22.636  -0.662  54.222  1.00  0.00     0.048 C 
HETATM   11  C10 UNL     1      23.665  -0.252  53.360  1.00  0.00     0.035 C 
HETATM   12  O1  UNL     1      21.173   0.017  51.694  1.00  0.00    -0.343 OA
ENDROOT
BRANCH  11  13
HETATM   13  N2  UNL     1      24.919  -0.750  53.523  1.00  0.00    -0.385 N 
HETATM   14  H7  UNL     1      24.890  -1.708  53.982  1.00  0.00     0.160 HD
BRANCH  13  15
HETATM   15  C11 UNL     1      26.051   0.012  53.092  1.00  0.00     0.160 C 
BRANCH  15  16
HETATM   16  C12 UNL     1      27.349  -0.680  53.211  1.00  0.00    -0.023 A 
HETATM   17  C13 UNL     1      28.536  -0.059  53.542  1.00  0.00     0.012 A 
HETATM   18  C14 UNL     1      29.676  -0.849  53.614  1.00  0.00     0.020 A 
HETATM   19  C15 UNL     1      29.642  -2.205  53.366  1.00  0.00     0.116 A 
HETATM   20  N3  UNL     1      28.448  -2.781  53.041  1.00  0.00    -0.273 NA
HETATM   21  C16 UNL     1      27.313  -2.052  52.960  1.00  0.00     0.124 A 
ENDBRANCH  15  16
ENDBRANCH  13  15
ENDBRANCH  11  13
TORSDOF 3
ENDMDL
MODEL 8
REMARK VINA RESULT:      -7.2      2.647      5.497
REMARK  3 active torsions:
REMARK  status: ('A' for Active; 'I' for Inactive)
REMARK    1  A    between atoms: C10_11  and  N2_12 
REMARK    2  A    between atoms: N2_12  and  C11_13 
REMARK    3  A    between atoms: C11_13  and  C12_14 
ROOT
HETATM    1  C1  UNL     1      23.894   4.145  50.781  1.00  0.00    -0.035 A 
HETATM    2  C2  UNL     1      24.788   3.076  50.311  1.00  0.00     0.026 A 
HETATM    3  C3  UNL     1      23.936   2.099  51.092  1.00  0.00     0.124 A 
HETATM    4  C4  UNL     1      23.927   1.468  52.295  1.00  0.00    -0.013 C 
HETATM    5  C5  UNL     1      23.737   3.000  52.732  1.00  0.00     0.062 C 
HETATM    6  C6  UNL     1      23.021   3.428  51.452  1.00  0.00     0.076 A 
HETATM    7  C7  UNL     1      21.719   2.616  51.331  1.00  0.00     0.262 C 
HETATM    8  N1  UNL     1      21.237   2.062  52.535  1.00  0.00    -0.268 NA
HETATM    9  C8  UNL     1      21.260   0.898  53.200  1.00  0.00     0.116 C 
HETATM   10  C9  UNL     1      22.524   0.042  53.339  1.00  0.00     0.048 C 
HETATM   11  C10 UNL     1      23.894   0.266  53.132  1.00  0.00     0.035 C 
HETATM   12  O1  UNL     1      22.590   1.447  50.691  1.00  0.00    -0.343 OA
ENDROOT
BRANCH  11  13
HETATM   13  N2  UNL     1      24.805  -0.580  53.682  1.00  0.00    -0.385 N 
HETATM   14  H7  UNL     1      24.526  -0.846  54.673  1.00  0.00     0.160 HD
BRANCH  13  15
HETATM   15  C11 UNL     1      25.950  -0.985  52.925  1.00  0.00     0.160 C 
BRANCH  15  16
HETATM   16  C12 UNL     1      27.230  -0.404  53.374  1.00  0.00    -0.023 A 
HETATM   17  C13 UNL     1      28.459  -1.013  53.223  1.00  0.00     0.012 A 
HETATM   18  C14 UNL     1      29.575  -0.338  53.700  1.00  0.00     0.020 A 
HETATM   19  C15 UNL     1      29.477   0.897  54.305  1.00  0.00     0.116 A 
HETATM   20  N3  UNL     1      28.244   1.466  54.437  1.00  0.00    -0.273 NA
HETATM   21  C16 UNL     1      27.130   0.845  53.987  1.00  0.00     0.124 A 
ENDBRANCH  15  16
ENDBRANCH  13  15
ENDBRANCH  11  13
TORSDOF 3
ENDMDL
MODEL 9
REMARK VINA RESULT:      -7.0      3.230      6.624
REMARK  3 active torsions:
REMARK  status: ('A' for Active; 'I' for Inactive)
REMARK    1  A    between atoms: C10_11  and  N2_12 
REMARK    2  A    between atoms: N2_12  and  C11_13 
REMARK    3  A    between atoms: C11_13  and  C12_14 
ROOT
HETATM    1  C1  UNL     1      19.321   0.231  51.410  1.00  0.00    -0.035 A 
HETATM    2  C2  UNL     1      19.819  -0.099  52.753  1.00  0.00     0.026 A 
HETATM    3  C3  UNL     1      20.695   1.132  52.669  1.00  0.00     0.124 A 
HETATM    4  C4  UNL     1      21.972   1.472  52.354  1.00  0.00    -0.013 C 
HETATM    5  C5  UNL     1      21.414   0.965  50.938  1.00  0.00     0.062 C 
HETATM    6  C6  UNL     1      19.963   1.360  51.205  1.00  0.00     0.076 A 
HETATM    7  C7  UNL     1      19.907   2.882  51.422  1.00  0.00     0.262 C 
HETATM    8  N1  UNL     1      20.996   3.609  50.896  1.00  0.00    -0.268 NA
HETATM    9  C8  UNL     1      22.156   4.140  51.305  1.00  0.00     0.116 C 
HETATM   10  C9  UNL     1      23.127   3.407  52.238  1.00  0.00     0.048 C 
HETATM   11  C10 UNL     1      23.270   2.077  52.663  1.00  0.00     0.035 C 
HETATM   12  O1  UNL     1      20.321   2.611  52.935  1.00  0.00    -0.343 OA
ENDROOT
BRANCH  11  13
HETATM   13  N2  UNL     1      24.444   1.669  53.214  1.00  0.00    -0.385 N 
HETATM   14  H7  UNL     1      24.936   2.476  53.699  1.00  0.00     0.160 HD
BRANCH  13  15
HETATM   15  C11 UNL     1      24.854   0.304  53.088  1.00  0.00     0.160 C 
BRANCH  15  16
HETATM   16  C12 UNL     1      26.261   0.041  53.448  1.00  0.00    -0.023 A 
HETATM   17  C13 UNL     1      27.082  -0.850  52.786  1.00  0.00     0.012 A 
HETATM   18  C14 UNL     1      28.385  -0.987  53.246  1.00  0.00     0.020 A 
HETATM   19  C15 UNL     1      28.858  -0.267  54.322  1.00  0.00     0.116 A 
HETATM   20  N3  UNL     1      28.016   0.605  54.949  1.00  0.00    -0.273 NA
HETATM   21  C16 UNL     1      26.739   0.770  54.537  1.00  0.00     0.124 A 
ENDBRANCH  15  16
ENDBRANCH  13  15
ENDBRANCH  11  13
TORSDOF 3
ENDMDL
