MODEL 1
REMARK VINA RESULT:      -7.0      0.000      0.000
REMARK  7 active torsions:
REMARK  status: ('A' for Active; 'I' for Inactive)
REMARK    1  A    between atoms: O1_2  and  C2_3 
REMARK    2  A    between atoms: C6_9  and  N3_10 
REMARK    3  A    between atoms: N3_10  and  C7_11 
REMARK    4  A    between atoms: C8_12  and  C9_13 
REMARK    5  A    between atoms: C10_14  and  C11_15 
REMARK    6  A    between atoms: C12_16  and  S1_17 
REMARK    7  A    between atoms: C16_21  and  O2_22 
ROOT
HETATM    1  C2  UNL     1      27.399   0.171  53.726  1.00  0.00     0.103 A 
HETATM    2  C3  UNL     1      27.727   1.164  52.823  1.00  0.00     0.072 A 
HETATM    3  C4  UNL     1      26.768   1.784  52.062  1.00  0.00     0.075 A 
HETATM    4  N1  UNL     1      27.077   2.753  51.181  1.00  0.00    -0.241 NA
HETATM    5  C5  UNL     1      26.191   3.393  50.412  1.00  0.00     0.236 A 
HETATM    6  N2  UNL     1      24.869   3.085  50.485  1.00  0.00    -0.224 NA
HETATM    7  C6  UNL     1      24.505   2.107  51.366  1.00  0.00     0.141 A 
HETATM    8  C14 UNL     1      25.423   1.451  52.155  1.00  0.00     0.042 A 
HETATM    9  C15 UNL     1      25.089   0.462  53.052  1.00  0.00     0.057 A 
HETATM   10  C16 UNL     1      26.060  -0.156  53.813  1.00  0.00     0.102 A 
ENDROOT
BRANCH   7  11
HETATM   11  N3  UNL     1      23.145   1.736  51.494  1.00  0.00    -0.350 N 
HETATM   12  H6  UNL     1      22.711   1.811  52.447  1.00  0.00     0.166 HD
BRANCH  11  13
HETATM   13  C7  UNL     1      22.106   1.254  50.661  1.00  0.00     0.090 C 
HETATM   14  C8  UNL     1      21.355   0.289  51.165  1.00  0.00     0.017 C 
BRANCH  14  15
HETATM   15  C9  UNL     1      21.607  -0.224  52.499  1.00  0.00     0.001 C 
HETATM   16  C10 UNL     1      20.652  -0.473  53.367  1.00  0.00     0.001 C 
BRANCH  16  17
HETATM   17  C11 UNL     1      19.265  -0.239  53.020  1.00  0.00     0.007 C 
HETATM   18  C12 UNL     1      18.337  -1.178  53.090  1.00  0.00     0.044 C 
BRANCH  18  19
HETATM   19  S1  UNL     1      16.600  -1.044  52.699  1.00  0.00    -0.146 SA
HETATM   20  C13 UNL     1      16.307   0.487  51.795  1.00  0.00     0.095 C 
ENDBRANCH  18  19
ENDBRANCH  16  17
ENDBRANCH  14  15
ENDBRANCH  11  13
ENDBRANCH   7  11
BRANCH  10  21
HETATM   21  O2  UNL     1      25.672  -1.142  54.698  1.00  0.00    -0.353 OA
HETATM   22  C17 UNL     1      24.454  -1.177  55.373  1.00  0.00     0.210 C 
ENDBRANCH  10  21
BRANCH   1  23
HETATM   23  O1  UNL     1      28.303  -0.508  54.533  1.00  0.00    -0.353 OA
HETATM   24  C1  UNL     1      29.553  -0.859  53.967  1.00  0.00     0.210 C 
ENDBRANCH   1  23
TORSDOF 7
ENDMDL
MODEL 2
REMARK VINA RESULT:      -6.9      4.016      6.698
REMARK  7 active torsions:
REMARK  status: ('A' for Active; 'I' for Inactive)
REMARK    1  A    between atoms: O1_2  and  C2_3 
REMARK    2  A    between atoms: C6_9  and  N3_10 
REMARK    3  A    between atoms: N3_10  and  C7_11 
REMARK    4  A    between atoms: C8_12  and  C9_13 
REMARK    5  A    between atoms: C10_14  and  C11_15 
REMARK    6  A    between atoms: C12_16  and  S1_17 
REMARK    7  A    between atoms: C16_21  and  O2_22 
ROOT
HETATM    1  C2  UNL     1      27.335  -0.442  53.535  1.00  0.00     0.103 A 
HETATM    2  C3  UNL     1      26.011  -0.833  53.553  1.00  0.00     0.072 A 
HETATM    3  C4  UNL     1      25.000   0.047  53.256  1.00  0.00     0.075 A 
HETATM    4  N1  UNL     1      23.707  -0.325  53.270  1.00  0.00    -0.241 NA
HETATM    5  C5  UNL     1      22.680   0.484  52.991  1.00  0.00     0.236 A 
HETATM    6  N2  UNL     1      22.900   1.785  52.662  1.00  0.00    -0.224 NA
HETATM    7  C6  UNL     1      24.197   2.210  52.635  1.00  0.00     0.141 A 
HETATM    8  C14 UNL     1      25.251   1.372  52.924  1.00  0.00     0.042 A 
HETATM    9  C15 UNL     1      26.568   1.769  52.904  1.00  0.00     0.057 A 
HETATM   10  C16 UNL     1      27.577   0.876  53.205  1.00  0.00     0.102 A 
ENDROOT
BRANCH   7  11
HETATM   11  N3  UNL     1      24.499   3.553  52.301  1.00  0.00    -0.350 N 
HETATM   12  H6  UNL     1      25.245   4.034  52.860  1.00  0.00     0.166 HD
BRANCH  11  13
HETATM   13  C7  UNL     1      24.064   4.523  51.365  1.00  0.00     0.090 C 
HETATM   14  C8  UNL     1      24.654   4.496  50.182  1.00  0.00     0.017 C 
BRANCH  14  15
HETATM   15  C9  UNL     1      25.683   3.515  49.891  1.00  0.00     0.001 C 
HETATM   16  C10 UNL     1      26.798   3.808  49.259  1.00  0.00     0.001 C 
BRANCH  16  17
HETATM   17  C11 UNL     1      27.056   5.162  48.813  1.00  0.00     0.007 C 
HETATM   18  C12 UNL     1      28.233   5.559  48.360  1.00  0.00     0.044 C 
BRANCH  18  19
HETATM   19  S1  UNL     1      28.701   7.181  47.779  1.00  0.00    -0.146 SA
HETATM   20  C13 UNL     1      28.051   8.430  48.904  1.00  0.00     0.095 C 
ENDBRANCH  18  19
ENDBRANCH  16  17
ENDBRANCH  14  15
ENDBRANCH  11  13
ENDBRANCH   7  11
BRANCH  10  21
HETATM   21  O2  UNL     1      28.882   1.325  53.171  1.00  0.00    -0.353 OA
HETATM   22  C17 UNL     1      29.491   2.093  54.162  1.00  0.00     0.210 C 
ENDBRANCH  10  21
BRANCH   1  23
HETATM   23  O1  UNL     1      28.417  -1.265  53.823  1.00  0.00    -0.353 OA
HETATM   24  C1  UNL     1      28.561  -2.449  53.060  1.00  0.00     0.210 C 
ENDBRANCH   1  23
TORSDOF 7
ENDMDL
MODEL 3
REMARK VINA RESULT:      -6.9      2.999      5.301
REMARK  7 active torsions:
REMARK  status: ('A' for Active; 'I' for Inactive)
REMARK    1  A    between atoms: O1_2  and  C2_3 
REMARK    2  A    between atoms: C6_9  and  N3_10 
REMARK    3  A    between atoms: N3_10  and  C7_11 
REMARK    4  A    between atoms: C8_12  and  C9_13 
REMARK    5  A    between atoms: C10_14  and  C11_15 
REMARK    6  A    between atoms: C12_16  and  S1_17 
REMARK    7  A    between atoms: C16_21  and  O2_22 
ROOT
HETATM    1  C2  UNL     1      23.663  -0.292  53.308  1.00  0.00     0.103 A 
HETATM    2  C3  UNL     1      24.944  -0.397  53.814  1.00  0.00     0.072 A 
HETATM    3  C4  UNL     1      25.945   0.449  53.408  1.00  0.00     0.075 A 
HETATM    4  N1  UNL     1      27.196   0.355  53.895  1.00  0.00    -0.241 NA
HETATM    5  C5  UNL     1      28.212   1.147  53.540  1.00  0.00     0.236 A 
HETATM    6  N2  UNL     1      28.025   2.136  52.626  1.00  0.00    -0.224 NA
HETATM    7  C6  UNL     1      26.772   2.271  52.102  1.00  0.00     0.141 A 
HETATM    8  C14 UNL     1      25.728   1.452  52.472  1.00  0.00     0.042 A 
HETATM    9  C15 UNL     1      24.455   1.563  51.964  1.00  0.00     0.057 A 
HETATM   10  C16 UNL     1      23.454   0.707  52.378  1.00  0.00     0.102 A 
ENDROOT
BRANCH   7  11
HETATM   11  N3  UNL     1      26.506   3.281  51.146  1.00  0.00    -0.350 N 
HETATM   12  H6  UNL     1      25.951   4.113  51.463  1.00  0.00     0.166 HD
BRANCH  11  13
HETATM   13  C7  UNL     1      26.783   3.530  49.780  1.00  0.00     0.090 C 
HETATM   14  C8  UNL     1      26.170   4.571  49.241  1.00  0.00     0.017 C 
BRANCH  14  15
HETATM   15  C9  UNL     1      25.270   5.390  50.033  1.00  0.00     0.001 C 
HETATM   16  C10 UNL     1      23.965   5.383  49.876  1.00  0.00     0.001 C 
BRANCH  16  17
HETATM   17  C11 UNL     1      23.350   4.533  48.877  1.00  0.00     0.007 C 
HETATM   18  C12 UNL     1      22.811   3.360  49.162  1.00  0.00     0.044 C 
BRANCH  18  19
HETATM   19  S1  UNL     1      22.022   2.208  48.049  1.00  0.00    -0.146 SA
HETATM   20  C13 UNL     1      20.289   2.658  47.851  1.00  0.00     0.095 C 
ENDBRANCH  18  19
ENDBRANCH  16  17
ENDBRANCH  14  15
ENDBRANCH  11  13
ENDBRANCH   7  11
BRANCH  10  21
HETATM   21  O2  UNL     1      22.193   0.860  51.837  1.00  0.00    -0.353 OA
HETATM   22  C17 UNL     1      21.278   1.843  52.208  1.00  0.00     0.210 C 
ENDBRANCH  10  21
BRANCH   1  23
HETATM   23  O1  UNL     1      22.593  -1.104  53.662  1.00  0.00    -0.353 OA
HETATM   24  C1  UNL     1      22.007  -0.900  54.935  1.00  0.00     0.210 C 
ENDBRANCH   1  23
TORSDOF 7
ENDMDL
MODEL 4
REMARK VINA RESULT:      -6.7      3.152      4.839
REMARK  7 active torsions:
REMARK  status: ('A' for Active; 'I' for Inactive)
REMARK    1  A    between atoms: O1_2  and  C2_3 
REMARK    2  A    between atoms: C6_9  and  N3_10 
REMARK    3  A    between atoms: N3_10  and  C7_11 
REMARK    4  A    between atoms: C8_12  and  C9_13 
REMARK    5  A    between atoms: C10_14  and  C11_15 
REMARK    6  A    between atoms: C12_16  and  S1_17 
REMARK    7  A    between atoms: C16_21  and  O2_22 
ROOT
HETATM    1  C2  UNL     1      27.223   0.603  53.320  1.00  0.00     0.103 A 
HETATM    2  C3  UNL     1      26.736  -0.086  54.414  1.00  0.00     0.072 A 
HETATM    3  C4  UNL     1      25.416  -0.454  54.499  1.00  0.00     0.075 A 
HETATM    4  N1  UNL     1      24.933  -1.125  55.560  1.00  0.00    -0.241 NA
HETATM    5  C5  UNL     1      23.660  -1.510  55.702  1.00  0.00     0.236 A 
HETATM    6  N2  UNL     1      22.746  -1.229  54.735  1.00  0.00    -0.224 NA
HETATM    7  C6  UNL     1      23.190  -0.548  53.638  1.00  0.00     0.141 A 
HETATM    8  C14 UNL     1      24.502  -0.154  53.498  1.00  0.00     0.042 A 
HETATM    9  C15 UNL     1      24.979   0.532  52.406  1.00  0.00     0.057 A 
HETATM   10  C16 UNL     1      26.309   0.897  52.329  1.00  0.00     0.102 A 
ENDROOT
BRANCH   7  11
HETATM   11  N3  UNL     1      22.292  -0.222  52.593  1.00  0.00    -0.350 N 
HETATM   12  H6  UNL     1      22.547  -0.533  51.623  1.00  0.00     0.166 HD
BRANCH  11  13
HETATM   13  C7  UNL     1      21.054   0.449  52.444  1.00  0.00     0.090 C 
HETATM   14  C8  UNL     1      20.862   1.067  51.291  1.00  0.00     0.017 C 
BRANCH  14  15
HETATM   15  C9  UNL     1      21.880   1.040  50.258  1.00  0.00     0.001 C 
HETATM   16  C10 UNL     1      22.670   2.058  49.998  1.00  0.00     0.001 C 
BRANCH  16  17
HETATM   17  C11 UNL     1      22.555   3.288  50.754  1.00  0.00     0.007 C 
HETATM   18  C12 UNL     1      22.959   4.459  50.291  1.00  0.00     0.044 C 
BRANCH  18  19
HETATM   19  S1  UNL     1      22.885   6.049  51.099  1.00  0.00    -0.146 SA
HETATM   20  C13 UNL     1      21.473   6.975  50.468  1.00  0.00     0.095 C 
ENDBRANCH  18  19
ENDBRANCH  16  17
ENDBRANCH  14  15
ENDBRANCH  11  13
ENDBRANCH   7  11
BRANCH  10  21
HETATM   21  O2  UNL     1      26.737   1.585  51.211  1.00  0.00    -0.353 OA
HETATM   22  C17 UNL     1      26.352   2.880  50.872  1.00  0.00     0.210 C 
ENDBRANCH  10  21
BRANCH   1  23
HETATM   23  O1  UNL     1      28.540   1.012  53.154  1.00  0.00    -0.353 OA
HETATM   24  C1  UNL     1      29.558   0.171  53.664  1.00  0.00     0.210 C 
ENDBRANCH   1  23
TORSDOF 7
ENDMDL
MODEL 5
REMARK VINA RESULT:      -6.6      2.609      4.058
REMARK  7 active torsions:
REMARK  status: ('A' for Active; 'I' for Inactive)
REMARK    1  A    between atoms: O1_2  and  C2_3 
REMARK    2  A    between atoms: C6_9  and  N3_10 
REMARK    3  A    between atoms: N3_10  and  C7_11 
REMARK    4  A    between atoms: C8_12  and  C9_13 
REMARK    5  A    between atoms: C10_14  and  C11_15 
REMARK    6  A    between atoms: C12_16  and  S1_17 
REMARK    7  A    between atoms: C16_21  and  O2_22 
ROOT
HETATM    1  C2  UNL     1      25.725   3.044  51.032  1.00  0.00     0.103 A 
HETATM    2  C3  UNL     1      26.750   2.475  51.762  1.00  0.00     0.072 A 
HETATM    3  C4  UNL     1      26.530   1.401  52.588  1.00  0.00     0.075 A 
HETATM    4  N1  UNL     1      27.523   0.840  53.302  1.00  0.00    -0.241 NA
HETATM    5  C5  UNL     1      27.373  -0.205  54.122  1.00  0.00     0.236 A 
HETATM    6  N2  UNL     1      26.152  -0.782  54.283  1.00  0.00    -0.224 NA
HETATM    7  C6  UNL     1      25.112  -0.246  53.578  1.00  0.00     0.141 A 
HETATM    8  C14 UNL     1      25.273   0.830  52.735  1.00  0.00     0.042 A 
HETATM    9  C15 UNL     1      24.247   1.392  52.011  1.00  0.00     0.057 A 
HETATM   10  C16 UNL     1      24.478   2.472  51.184  1.00  0.00     0.102 A 
ENDROOT
BRANCH   7  11
HETATM   11  N3  UNL     1      23.813  -0.798  53.698  1.00  0.00    -0.350 N 
HETATM   12  H6  UNL     1      23.321  -1.072  52.812  1.00  0.00     0.166 HD
BRANCH  11  13
HETATM   13  C7  UNL     1      22.901  -1.118  54.733  1.00  0.00     0.090 C 
HETATM   14  C8  UNL     1      21.750  -0.467  54.717  1.00  0.00     0.017 C 
BRANCH  14  15
HETATM   15  C9  UNL     1      21.469   0.513  53.684  1.00  0.00     0.001 C 
HETATM   16  C10 UNL     1      20.329   0.563  53.031  1.00  0.00     0.001 C 
BRANCH  16  17
HETATM   17  C11 UNL     1      19.273  -0.383  53.322  1.00  0.00     0.007 C 
HETATM   18  C12 UNL     1      18.268  -0.619  52.496  1.00  0.00     0.044 C 
BRANCH  18  19
HETATM   19  S1  UNL     1      16.902  -1.747  52.714  1.00  0.00    -0.146 SA
HETATM   20  C13 UNL     1      17.467  -3.206  53.608  1.00  0.00     0.095 C 
ENDBRANCH  18  19
ENDBRANCH  16  17
ENDBRANCH  14  15
ENDBRANCH  11  13
ENDBRANCH   7  11
BRANCH  10  21
HETATM   21  O2  UNL     1      23.414   2.998  50.479  1.00  0.00    -0.353 OA
HETATM   22  C17 UNL     1      22.468   2.250  49.782  1.00  0.00     0.210 C 
ENDBRANCH  10  21
BRANCH   1  23
HETATM   23  O1  UNL     1      25.859   4.130  50.175  1.00  0.00    -0.353 OA
HETATM   24  C1  UNL     1      26.910   4.092  49.228  1.00  0.00     0.210 C 
ENDBRANCH   1  23
TORSDOF 7
ENDMDL
MODEL 6
REMARK VINA RESULT:      -6.6      2.790      3.711
REMARK  7 active torsions:
REMARK  status: ('A' for Active; 'I' for Inactive)
REMARK    1  A    between atoms: O1_2  and  C2_3 
REMARK    2  A    between atoms: C6_9  and  N3_10 
REMARK    3  A    between atoms: N3_10  and  C7_11 
REMARK    4  A    between atoms: C8_12  and  C9_13 
REMARK    5  A    between atoms: C10_14  and  C11_15 
REMARK    6  A    between atoms: C12_16  and  S1_17 
REMARK    7  A    between atoms: C16_21  and  O2_22 
ROOT
HETATM    1  C2  UNL     1      27.335  -0.045  53.648  1.00  0.00     0.103 A 
HETATM    2  C3  UNL     1      27.622   0.927  52.709  1.00  0.00     0.072 A 
HETATM    3  C4  UNL     1      26.625   1.632  52.082  1.00  0.00     0.075 A 
HETATM    4  N1  UNL     1      26.895   2.580  51.166  1.00  0.00    -0.241 NA
HETATM    5  C5  UNL     1      25.971   3.299  50.521  1.00  0.00     0.236 A 
HETATM    6  N2  UNL     1      24.648   3.100  50.769  1.00  0.00    -0.224 NA
HETATM    7  C6  UNL     1      24.325   2.146  51.692  1.00  0.00     0.141 A 
HETATM    8  C14 UNL     1      25.282   1.409  52.353  1.00  0.00     0.042 A 
HETATM    9  C15 UNL     1      24.989   0.442  53.287  1.00  0.00     0.057 A 
HETATM   10  C16 UNL     1      25.998  -0.262  53.913  1.00  0.00     0.102 A 
ENDROOT
BRANCH   7  11
HETATM   11  N3  UNL     1      22.968   1.886  52.000  1.00  0.00    -0.350 N 
HETATM   12  H6  UNL     1      22.743   0.966  52.452  1.00  0.00     0.166 HD
BRANCH  11  13
HETATM   13  C7  UNL     1      21.719   2.543  51.872  1.00  0.00     0.090 C 
HETATM   14  C8  UNL     1      20.903   2.067  50.946  1.00  0.00     0.017 C 
BRANCH  14  15
HETATM   15  C9  UNL     1      21.295   0.938  50.124  1.00  0.00     0.001 C 
HETATM   16  C10 UNL     1      21.440   1.013  48.820  1.00  0.00     0.001 C 
BRANCH  16  17
HETATM   17  C11 UNL     1      21.210   2.262  48.126  1.00  0.00     0.007 C 
HETATM   18  C12 UNL     1      22.066   2.773  47.257  1.00  0.00     0.044 C 
BRANCH  18  19
HETATM   19  S1  UNL     1      21.923   4.292  46.330  1.00  0.00    -0.146 SA
HETATM   20  C13 UNL     1      21.023   3.977  44.801  1.00  0.00     0.095 C 
ENDBRANCH  18  19
ENDBRANCH  16  17
ENDBRANCH  14  15
ENDBRANCH  11  13
ENDBRANCH   7  11
BRANCH  10  21
HETATM   21  O2  UNL     1      25.651  -1.221  54.843  1.00  0.00    -0.353 OA
HETATM   22  C17 UNL     1      24.509  -1.185  55.641  1.00  0.00     0.210 C 
ENDBRANCH  10  21
BRANCH   1  23
HETATM   23  O1  UNL     1      28.280  -0.803  54.329  1.00  0.00    -0.353 OA
HETATM   24  C1  UNL     1      29.591  -0.848  53.799  1.00  0.00     0.210 C 
ENDBRANCH   1  23
TORSDOF 7
ENDMDL
MODEL 7
REMARK VINA RESULT:      -6.5      6.358      8.683
REMARK  7 active torsions:
REMARK  status: ('A' for Active; 'I' for Inactive)
REMARK    1  A    between atoms: O1_2  and  C2_3 
REMARK    2  A    between atoms: C6_9  and  N3_10 
REMARK    3  A    between atoms: N3_10  and  C7_11 
REMARK    4  A    between atoms: C8_12  and  C9_13 
REMARK    5  A    between atoms: C10_14  and  C11_15 
REMARK    6  A    between atoms: C12_16  and  S1_17 
REMARK    7  A    between atoms: C16_21  and  O2_22 
ROOT
HETATM    1  C2  UNL     1      33.180   6.004  48.275  1.00  0.00     0.103 A 
HETATM    2  C3  UNL     1      32.945   7.339  48.539  1.00  0.00     0.072 A 
HETATM    3  C4  UNL     1      31.672   7.823  48.707  1.00  0.00     0.075 A 
HETATM    4  N1  UNL     1      31.433   9.121  48.966  1.00  0.00    -0.241 NA
HETATM    5  C5  UNL     1      30.219   9.652  49.138  1.00  0.00     0.236 A 
HETATM    6  N2  UNL     1      29.109   8.870  49.058  1.00  0.00    -0.224 NA
HETATM    7  C6  UNL     1      29.301   7.543  48.797  1.00  0.00     0.141 A 
HETATM    8  C14 UNL     1      30.555   7.002  48.620  1.00  0.00     0.042 A 
HETATM    9  C15 UNL     1      30.780   5.671  48.356  1.00  0.00     0.057 A 
HETATM   10  C16 UNL     1      32.065   5.194  48.189  1.00  0.00     0.102 A 
ENDROOT
BRANCH   7  11
HETATM   11  N3  UNL     1      28.190   6.670  48.700  1.00  0.00    -0.350 N 
HETATM   12  H6  UNL     1      28.377   5.681  48.404  1.00  0.00     0.166 HD
BRANCH  11  13
HETATM   13  C7  UNL     1      26.789   6.730  48.897  1.00  0.00     0.090 C 
HETATM   14  C8  UNL     1      26.177   5.572  49.080  1.00  0.00     0.017 C 
BRANCH  14  15
HETATM   15  C9  UNL     1      26.927   4.330  49.073  1.00  0.00     0.001 C 
HETATM   16  C10 UNL     1      26.509   3.234  49.666  1.00  0.00     0.001 C 
BRANCH  16  17
HETATM   17  C11 UNL     1      25.245   3.217  50.373  1.00  0.00     0.007 C 
HETATM   18  C12 UNL     1      25.099   2.687  51.575  1.00  0.00     0.044 C 
BRANCH  18  19
HETATM   19  S1  UNL     1      23.617   2.591  52.566  1.00  0.00    -0.146 SA
HETATM   20  C13 UNL     1      23.193   0.861  52.843  1.00  0.00     0.095 C 
ENDBRANCH  18  19
ENDBRANCH  16  17
ENDBRANCH  14  15
ENDBRANCH  11  13
ENDBRANCH   7  11
BRANCH  10  21
HETATM   21  O2  UNL     1      32.238   3.850  47.926  1.00  0.00    -0.353 OA
HETATM   22  C17 UNL     1      32.113   3.258  46.672  1.00  0.00     0.210 C 
ENDBRANCH  10  21
BRANCH   1  23
HETATM   23  O1  UNL     1      34.433   5.432  48.092  1.00  0.00    -0.353 OA
HETATM   24  C1  UNL     1      35.367   5.545  49.150  1.00  0.00     0.210 C 
ENDBRANCH   1  23
TORSDOF 7
ENDMDL
MODEL 8
REMARK VINA RESULT:      -6.3      4.449      7.917
REMARK  7 active torsions:
REMARK  status: ('A' for Active; 'I' for Inactive)
REMARK    1  A    between atoms: O1_2  and  C2_3 
REMARK    2  A    between atoms: C6_9  and  N3_10 
REMARK    3  A    between atoms: N3_10  and  C7_11 
REMARK    4  A    between atoms: C8_12  and  C9_13 
REMARK    5  A    between atoms: C10_14  and  C11_15 
REMARK    6  A    between atoms: C12_16  and  S1_17 
REMARK    7  A    between atoms: C16_21  and  O2_22 
ROOT
HETATM    1  C2  UNL     1      23.078  -0.193  53.451  1.00  0.00     0.103 A 
HETATM    2  C3  UNL     1      22.147   0.444  52.653  1.00  0.00     0.072 A 
HETATM    3  C4  UNL     1      22.500   1.494  51.841  1.00  0.00     0.075 A 
HETATM    4  N1  UNL     1      21.601   2.120  51.061  1.00  0.00    -0.241 NA
HETATM    5  C5  UNL     1      21.881   3.147  50.251  1.00  0.00     0.236 A 
HETATM    6  N2  UNL     1      23.149   3.632  50.172  1.00  0.00    -0.224 NA
HETATM    7  C6  UNL     1      24.097   3.028  50.947  1.00  0.00     0.141 A 
HETATM    8  C14 UNL     1      23.802   1.971  51.779  1.00  0.00     0.042 A 
HETATM    9  C15 UNL     1      24.734   1.342  52.571  1.00  0.00     0.057 A 
HETATM   10  C16 UNL     1      24.370   0.287  53.384  1.00  0.00     0.102 A 
ENDROOT
BRANCH   7  11
HETATM   11  N3  UNL     1      25.437   3.483  50.913  1.00  0.00    -0.350 N 
HETATM   12  H6  UNL     1      25.711   4.232  51.596  1.00  0.00     0.166 HD
BRANCH  11  13
HETATM   13  C7  UNL     1      26.618   3.214  50.179  1.00  0.00     0.090 C 
HETATM   14  C8  UNL     1      26.972   4.129  49.291  1.00  0.00     0.017 C 
BRANCH  14  15
HETATM   15  C9  UNL     1      26.175   5.327  49.105  1.00  0.00     0.001 C 
HETATM   16  C10 UNL     1      26.637   6.417  48.532  1.00  0.00     0.001 C 
BRANCH  16  17
HETATM   17  C11 UNL     1      28.000   6.470  48.046  1.00  0.00     0.007 C 
HETATM   18  C12 UNL     1      28.857   7.409  48.407  1.00  0.00     0.044 C 
BRANCH  18  19
HETATM   19  S1  UNL     1      30.557   7.607  47.897  1.00  0.00    -0.146 SA
HETATM   20  C13 UNL     1      31.125   9.260  48.335  1.00  0.00     0.095 C 
ENDBRANCH  18  19
ENDBRANCH  16  17
ENDBRANCH  14  15
ENDBRANCH  11  13
ENDBRANCH   7  11
BRANCH  10  21
HETATM   21  O2  UNL     1      25.343  -0.310  54.159  1.00  0.00    -0.353 OA
HETATM   22  C17 UNL     1      26.470   0.334  54.666  1.00  0.00     0.210 C 
ENDBRANCH  10  21
BRANCH   1  23
HETATM   23  O1  UNL     1      22.808  -1.260  54.299  1.00  0.00    -0.353 OA
HETATM   24  C1  UNL     1      21.450  -1.571  54.550  1.00  0.00     0.210 C 
ENDBRANCH   1  23
TORSDOF 7
ENDMDL
MODEL 9
REMARK VINA RESULT:      -6.1      2.737      3.707
REMARK  7 active torsions:
REMARK  status: ('A' for Active; 'I' for Inactive)
REMARK    1  A    between atoms: O1_2  and  C2_3 
REMARK    2  A    between atoms: C6_9  and  N3_10 
REMARK    3  A    between atoms: N3_10  and  C7_11 
REMARK    4  A    between atoms: C8_12  and  C9_13 
REMARK    5  A    between atoms: C10_14  and  C11_15 
REMARK    6  A    between atoms: C12_16  and  S1_17 
REMARK    7  A    between atoms: C16_21  and  O2_22 
ROOT
HETATM    1  C2  UNL     1      25.007   0.093  53.135  1.00  0.00     0.103 A 
HETATM    2  C3  UNL     1      25.437   1.190  52.413  1.00  0.00     0.072 A 
HETATM    3  C4  UNL     1      24.574   2.196  52.058  1.00  0.00     0.075 A 
HETATM    4  N1  UNL     1      24.984   3.268  51.356  1.00  0.00    -0.241 NA
HETATM    5  C5  UNL     1      24.194   4.279  50.979  1.00  0.00     0.236 A 
HETATM    6  N2  UNL     1      22.873   4.275  51.303  1.00  0.00    -0.224 NA
HETATM    7  C6  UNL     1      22.409   3.206  52.015  1.00  0.00     0.141 A 
HETATM    8  C14 UNL     1      23.229   2.168  52.400  1.00  0.00     0.042 A 
HETATM    9  C15 UNL     1      22.793   1.079  53.118  1.00  0.00     0.057 A 
HETATM   10  C16 UNL     1      23.668   0.072  53.471  1.00  0.00     0.102 A 
ENDROOT
BRANCH   7  11
HETATM   11  N3  UNL     1      21.044   3.137  52.386  1.00  0.00    -0.350 N 
HETATM   12  H6  UNL     1      20.816   2.679  53.302  1.00  0.00     0.166 HD
BRANCH  11  13
HETATM   13  C7  UNL     1      19.792   3.530  51.855  1.00  0.00     0.090 C 
HETATM   14  C8  UNL     1      18.999   2.552  51.449  1.00  0.00     0.017 C 
BRANCH  14  15
HETATM   15  C9  UNL     1      19.419   1.167  51.556  1.00  0.00     0.001 C 
HETATM   16  C10 UNL     1      20.113   0.551  50.624  1.00  0.00     0.001 C 
BRANCH  16  17
HETATM   17  C11 UNL     1      20.501   1.248  49.416  1.00  0.00     0.007 C 
HETATM   18  C12 UNL     1      21.760   1.398  49.042  1.00  0.00     0.044 C 
BRANCH  18  19
HETATM   19  S1  UNL     1      22.390   2.226  47.592  1.00  0.00    -0.146 SA
HETATM   20  C13 UNL     1      21.995   3.982  47.685  1.00  0.00     0.095 C 
ENDBRANCH  18  19
ENDBRANCH  16  17
ENDBRANCH  14  15
ENDBRANCH  11  13
ENDBRANCH   7  11
BRANCH  10  21
HETATM   21  O2  UNL     1      23.180  -1.000  54.192  1.00  0.00    -0.353 OA
HETATM   22  C17 UNL     1      22.001  -0.994  54.935  1.00  0.00     0.210 C 
ENDBRANCH  10  21
BRANCH   1  23
HETATM   23  O1  UNL     1      25.810  -0.967  53.535  1.00  0.00    -0.353 OA
HETATM   24  C1  UNL     1      26.629  -1.576  52.553  1.00  0.00     0.210 C 
ENDBRANCH   1  23
TORSDOF 7
ENDMDL
