MODEL 1
REMARK VINA RESULT:      -9.1      0.000      0.000
REMARK  6 active torsions:
REMARK  status: ('A' for Active; 'I' for Inactive)
REMARK    1  A    between atoms: C1_2  and  C2_3 
REMARK       I    between atoms: C1_2  and  N2_12 
REMARK    2  A    between atoms: C3_4  and  C4_5 
REMARK    3  A    between atoms: C4_5  and  N1_6 
REMARK    4  A    between atoms: N2_12  and  C9_13 
REMARK    5  A    between atoms: C12_16  and  N3_17 
REMARK    6  A    between atoms: N3_17  and  C13_18 
ROOT
HETATM    1  C9  UNL     1      27.033   2.214  51.934  1.00  0.00     0.038 C 
HETATM    2  C10 UNL     1      26.243   1.064  51.734  1.00  0.00     0.039 C 
HETATM    3  C11 UNL     1      26.360   0.131  52.873  1.00  0.00    -0.026 C 
HETATM    4  C12 UNL     1      25.550  -0.373  53.775  1.00  0.00     0.034 C 
HETATM    5  C19 UNL     1      26.144  -0.389  55.196  1.00  0.00     0.177 C 
HETATM    6  N4  UNL     1      27.007   0.861  55.253  1.00  0.00    -0.387 N 
HETATM    7  C20 UNL     1      27.593   1.246  54.013  1.00  0.00     0.011 C 
HETATM    8  C21 UNL     1      27.796   2.309  53.252  1.00  0.00     0.054 C 
HETATM    9  C22 UNL     1      27.881  -0.095  53.211  1.00  0.00     0.097 C 
HETATM   10  H20 UNL     1      27.400   1.667  55.851  1.00  0.00     0.159 HD
ENDROOT
BRANCH   1  11
HETATM   11  N2  UNL     1      27.018   3.158  50.916  1.00  0.00    -0.316 N 
HETATM   12  C1  UNL     1      26.170   3.708  49.893  1.00  0.00     0.301 C 
HETATM   13  O1  UNL     1      25.008   3.305  49.720  1.00  0.00    -0.258 OA
HETATM   14  H11 UNL     1      28.023   3.501  51.022  1.00  0.00     0.170 HD
BRANCH  12  15
HETATM   15  C2  UNL     1      26.855   4.746  49.154  1.00  0.00    -0.004 C 
HETATM   16  C3  UNL     1      27.446   5.633  48.544  1.00  0.00    -0.077 C 
BRANCH  16  17
HETATM   17  C4  UNL     1      28.132   6.691  47.809  1.00  0.00     0.212 C 
BRANCH  17  18
HETATM   18  N1  UNL     1      29.288   7.055  48.606  1.00  0.00    -0.401 N 
HETATM   19  C5  UNL     1      29.582   8.451  48.531  1.00  0.00     0.128 C 
HETATM   20  C6  UNL     1      30.176   8.843  47.203  1.00  0.00     0.093 C 
HETATM   21  S1  UNL     1      31.513   7.756  46.679  1.00  0.00    -0.166 SA
HETATM   22  C7  UNL     1      31.168   6.100  47.287  1.00  0.00     0.093 C 
HETATM   23  C8  UNL     1      30.370   6.155  48.538  1.00  0.00     0.128 C 
ENDBRANCH  17  18
ENDBRANCH  16  17
ENDBRANCH  12  15
ENDBRANCH   1  11
BRANCH   4  24
HETATM   24  N3  UNL     1      24.405  -0.623  52.917  1.00  0.00    -0.358 N 
HETATM   25  H13 UNL     1      24.569  -0.948  51.967  1.00  0.00     0.166 HD
BRANCH  24  26
HETATM   26  C13 UNL     1      23.097  -0.366  53.509  1.00  0.00     0.033 A 
HETATM   27  C14 UNL     1      22.584  -1.160  54.625  1.00  0.00     0.029 A 
HETATM   28  C15 UNL     1      21.456  -0.332  54.524  1.00  0.00     0.004 A 
HETATM   29  C16 UNL     1      20.455   0.383  54.455  1.00  0.00     0.019 A 
HETATM   30  C17 UNL     1      21.145   1.046  53.361  1.00  0.00     0.013 A 
HETATM   31 BR1  UNL     1      20.379   2.542  52.340  1.00  0.00    -0.051 Br
HETATM   32  C18 UNL     1      22.439   0.739  52.841  1.00  0.00     0.048 A 
ENDBRANCH  24  26
ENDBRANCH   4  24
TORSDOF 6
ENDMDL
MODEL 2
REMARK VINA RESULT:      -8.4      2.668      4.348
REMARK  6 active torsions:
REMARK  status: ('A' for Active; 'I' for Inactive)
REMARK    1  A    between atoms: C1_2  and  C2_3 
REMARK       I    between atoms: C1_2  and  N2_12 
REMARK    2  A    between atoms: C3_4  and  C4_5 
REMARK    3  A    between atoms: C4_5  and  N1_6 
REMARK    4  A    between atoms: N2_12  and  C9_13 
REMARK    5  A    between atoms: C12_16  and  N3_17 
REMARK    6  A    between atoms: N3_17  and  C13_18 
ROOT
HETATM    1  C9  UNL     1      26.033   4.205  49.701  1.00  0.00     0.038 C 
HETATM    2  C10 UNL     1      26.143   3.306  50.781  1.00  0.00     0.039 C 
HETATM    3  C11 UNL     1      24.812   2.899  51.274  1.00  0.00    -0.026 C 
HETATM    4  C12 UNL     1      24.138   1.775  51.370  1.00  0.00     0.034 C 
HETATM    5  C19 UNL     1      22.663   1.904  50.946  1.00  0.00     0.177 C 
HETATM    6  N4  UNL     1      22.685   2.932  49.828  1.00  0.00    -0.387 N 
HETATM    7  C20 UNL     1      23.702   3.925  49.941  1.00  0.00     0.011 C 
HETATM    8  C21 UNL     1      24.625   4.544  49.222  1.00  0.00     0.054 C 
HETATM    9  C22 UNL     1      23.920   4.177  51.493  1.00  0.00     0.097 C 
HETATM   10  H20 UNL     1      22.255   3.276  48.900  1.00  0.00     0.159 HD
ENDROOT
BRANCH   1  11
HETATM   11  N2  UNL     1      27.225   4.675  49.165  1.00  0.00    -0.316 N 
HETATM   12  C1  UNL     1      27.773   5.763  48.401  1.00  0.00     0.301 C 
HETATM   13  O1  UNL     1      27.064   6.697  47.993  1.00  0.00    -0.258 OA
HETATM   14  H11 UNL     1      27.852   3.868  49.476  1.00  0.00     0.170 HD
BRANCH  12  15
HETATM   15  C2  UNL     1      29.198   5.596  48.209  1.00  0.00    -0.004 C 
HETATM   16  C3  UNL     1      30.406   5.438  48.057  1.00  0.00    -0.077 C 
BRANCH  16  17
HETATM   17  C4  UNL     1      31.845   5.270  47.879  1.00  0.00     0.212 C 
BRANCH  17  18
HETATM   18  N1  UNL     1      32.022   4.634  46.588  1.00  0.00    -0.401 N 
HETATM   19  C5  UNL     1      32.002   3.208  46.677  1.00  0.00     0.128 C 
HETATM   20  C6  UNL     1      33.258   2.654  47.299  1.00  0.00     0.093 C 
HETATM   21  S1  UNL     1      34.761   3.351  46.595  1.00  0.00    -0.166 SA
HETATM   22  C7  UNL     1      34.427   5.049  46.112  1.00  0.00     0.093 C 
HETATM   23  C8  UNL     1      32.996   5.223  45.758  1.00  0.00     0.128 C 
ENDBRANCH  17  18
ENDBRANCH  16  17
ENDBRANCH  12  15
ENDBRANCH   1  11
BRANCH   4  24
HETATM   24  N3  UNL     1      25.223   0.913  51.804  1.00  0.00    -0.358 N 
HETATM   25  H13 UNL     1      26.054   0.843  51.220  1.00  0.00     0.166 HD
BRANCH  24  26
HETATM   26  C13 UNL     1      25.009   0.202  53.059  1.00  0.00     0.033 A 
HETATM   27  C14 UNL     1      26.103  -0.063  53.994  1.00  0.00     0.029 A 
HETATM   28  C15 UNL     1      25.115  -0.691  54.767  1.00  0.00     0.004 A 
HETATM   29  C16 UNL     1      24.264  -1.248  55.463  1.00  0.00     0.019 A 
HETATM   30  C17 UNL     1      23.330  -0.883  54.411  1.00  0.00     0.013 A 
HETATM   31 BR1  UNL     1      21.417  -1.338  54.451  1.00  0.00    -0.051 Br
HETATM   32  C18 UNL     1      23.618  -0.173  53.207  1.00  0.00     0.048 A 
ENDBRANCH  24  26
ENDBRANCH   4  24
TORSDOF 6
ENDMDL
MODEL 3
REMARK VINA RESULT:      -8.2      2.943      4.267
REMARK  6 active torsions:
REMARK  status: ('A' for Active; 'I' for Inactive)
REMARK    1  A    between atoms: C1_2  and  C2_3 
REMARK       I    between atoms: C1_2  and  N2_12 
REMARK    2  A    between atoms: C3_4  and  C4_5 
REMARK    3  A    between atoms: C4_5  and  N1_6 
REMARK    4  A    between atoms: N2_12  and  C9_13 
REMARK    5  A    between atoms: C12_16  and  N3_17 
REMARK    6  A    between atoms: N3_17  and  C13_18 
ROOT
HETATM    1  C9  UNL     1      24.899   5.217  50.429  1.00  0.00     0.038 C 
HETATM    2  C10 UNL     1      24.905   3.915  50.968  1.00  0.00     0.039 C 
HETATM    3  C11 UNL     1      23.690   3.662  51.767  1.00  0.00    -0.026 C 
HETATM    4  C12 UNL     1      22.671   2.836  51.709  1.00  0.00     0.034 C 
HETATM    5  C19 UNL     1      21.314   3.510  51.990  1.00  0.00     0.177 C 
HETATM    6  N4  UNL     1      21.467   4.908  51.414  1.00  0.00    -0.387 N 
HETATM    7  C20 UNL     1      22.789   5.439  51.462  1.00  0.00     0.011 C 
HETATM    8  C21 UNL     1      23.673   6.079  50.713  1.00  0.00     0.054 C 
HETATM    9  C22 UNL     1      23.466   4.852  52.773  1.00  0.00     0.097 C 
HETATM   10  H20 UNL     1      20.995   5.748  50.930  1.00  0.00     0.159 HD
ENDROOT
BRANCH   1  11
HETATM   11  N2  UNL     1      26.006   5.578  49.671  1.00  0.00    -0.316 N 
HETATM   12  C1  UNL     1      26.396   6.385  48.547  1.00  0.00     0.301 C 
HETATM   13  O1  UNL     1      25.571   7.060  47.910  1.00  0.00    -0.258 OA
HETATM   14  H11 UNL     1      26.731   4.981  50.181  1.00  0.00     0.170 HD
BRANCH  12  15
HETATM   15  C2  UNL     1      27.819   6.285  48.305  1.00  0.00    -0.004 C 
HETATM   16  C3  UNL     1      29.030   6.212  48.115  1.00  0.00    -0.077 C 
BRANCH  16  17
HETATM   17  C4  UNL     1      30.467   6.127  47.871  1.00  0.00     0.212 C 
BRANCH  17  18
HETATM   18  N1  UNL     1      31.112   6.567  49.092  1.00  0.00    -0.401 N 
HETATM   19  C5  UNL     1      31.165   7.992  49.196  1.00  0.00     0.128 C 
HETATM   20  C6  UNL     1      32.175   8.599  48.257  1.00  0.00     0.093 C 
HETATM   21  S1  UNL     1      33.774   7.773  48.308  1.00  0.00    -0.166 SA
HETATM   22  C7  UNL     1      33.502   6.031  48.657  1.00  0.00     0.093 C 
HETATM   23  C8  UNL     1      32.265   5.843  49.456  1.00  0.00     0.128 C 
ENDBRANCH  17  18
ENDBRANCH  16  17
ENDBRANCH  12  15
ENDBRANCH   1  11
BRANCH   4  24
HETATM   24  N3  UNL     1      23.392   1.634  51.327  1.00  0.00    -0.358 N 
HETATM   25  H13 UNL     1      23.554   1.456  50.338  1.00  0.00     0.166 HD
BRANCH  24  26
HETATM   26  C13 UNL     1      23.816   0.770  52.422  1.00  0.00     0.033 A 
HETATM   27  C14 UNL     1      22.875   0.279  53.430  1.00  0.00     0.029 A 
HETATM   28  C15 UNL     1      23.999  -0.354  53.981  1.00  0.00     0.004 A 
HETATM   29  C16 UNL     1      24.971  -0.920  54.483  1.00  0.00     0.019 A 
HETATM   30  C17 UNL     1      25.731  -0.334  53.392  1.00  0.00     0.013 A 
HETATM   31 BR1  UNL     1      27.668  -0.584  53.159  1.00  0.00    -0.051 Br
HETATM   32  C18 UNL     1      25.238   0.501  52.344  1.00  0.00     0.048 A 
ENDBRANCH  24  26
ENDBRANCH   4  24
TORSDOF 6
ENDMDL
MODEL 4
REMARK VINA RESULT:      -8.1      2.758      4.169
REMARK  6 active torsions:
REMARK  status: ('A' for Active; 'I' for Inactive)
REMARK    1  A    between atoms: C1_2  and  C2_3 
REMARK       I    between atoms: C1_2  and  N2_12 
REMARK    2  A    between atoms: C3_4  and  C4_5 
REMARK    3  A    between atoms: C4_5  and  N1_6 
REMARK    4  A    between atoms: N2_12  and  C9_13 
REMARK    5  A    between atoms: C12_16  and  N3_17 
REMARK    6  A    between atoms: N3_17  and  C13_18 
ROOT
HETATM    1  C9  UNL     1      24.978   5.398  50.317  1.00  0.00     0.038 C 
HETATM    2  C10 UNL     1      24.943   4.081  50.816  1.00  0.00     0.039 C 
HETATM    3  C11 UNL     1      23.712   3.837  51.593  1.00  0.00    -0.026 C 
HETATM    4  C12 UNL     1      22.672   3.040  51.500  1.00  0.00     0.034 C 
HETATM    5  C19 UNL     1      21.331   3.741  51.785  1.00  0.00     0.177 C 
HETATM    6  N4  UNL     1      21.527   5.151  51.253  1.00  0.00    -0.387 N 
HETATM    7  C20 UNL     1      22.862   5.645  51.332  1.00  0.00     0.011 C 
HETATM    8  C21 UNL     1      23.772   6.283  50.613  1.00  0.00     0.054 C 
HETATM    9  C22 UNL     1      23.508   5.002  52.632  1.00  0.00     0.097 C 
HETATM   10  H20 UNL     1      21.084   6.018  50.789  1.00  0.00     0.159 HD
ENDROOT
BRANCH   1  11
HETATM   11  N2  UNL     1      26.104   5.751  49.583  1.00  0.00    -0.316 N 
HETATM   12  C1  UNL     1      26.529   6.587  48.493  1.00  0.00     0.301 C 
HETATM   13  O1  UNL     1      25.732   7.311  47.875  1.00  0.00    -0.258 OA
HETATM   14  H11 UNL     1      26.804   5.114  50.076  1.00  0.00     0.170 HD
BRANCH  12  15
HETATM   15  C2  UNL     1      27.951   6.451  48.260  1.00  0.00    -0.004 C 
HETATM   16  C3  UNL     1      29.155   6.316  48.064  1.00  0.00    -0.077 C 
BRANCH  16  17
HETATM   17  C4  UNL     1      30.591   6.170  47.843  1.00  0.00     0.212 C 
BRANCH  17  18
HETATM   18  N1  UNL     1      31.235   6.583  49.074  1.00  0.00    -0.401 N 
HETATM   19  C5  UNL     1      31.311   8.005  49.198  1.00  0.00     0.128 C 
HETATM   20  C6  UNL     1      32.336   8.608  48.273  1.00  0.00     0.093 C 
HETATM   21  S1  UNL     1      33.921   7.755  48.325  1.00  0.00    -0.166 SA
HETATM   22  C7  UNL     1      33.619   6.014  48.648  1.00  0.00     0.093 C 
HETATM   23  C8  UNL     1      32.373   5.835  49.436  1.00  0.00     0.128 C 
ENDBRANCH  17  18
ENDBRANCH  16  17
ENDBRANCH  12  15
ENDBRANCH   1  11
BRANCH   4  24
HETATM   24  N3  UNL     1      23.366   1.832  51.089  1.00  0.00    -0.358 N 
HETATM   25  H13 UNL     1      23.483   1.650  50.095  1.00  0.00     0.166 HD
BRANCH  24  26
HETATM   26  C13 UNL     1      23.831   0.966  52.168  1.00  0.00     0.033 A 
HETATM   27  C14 UNL     1      25.250   0.833  52.496  1.00  0.00     0.029 A 
HETATM   28  C15 UNL     1      24.804  -0.059  53.483  1.00  0.00     0.004 A 
HETATM   29  C16 UNL     1      24.435  -0.845  54.356  1.00  0.00     0.019 A 
HETATM   30  C17 UNL     1      23.091  -0.571  53.876  1.00  0.00     0.013 A 
HETATM   31 BR1  UNL     1      21.477  -1.405  54.627  1.00  0.00    -0.051 Br
HETATM   32  C18 UNL     1      22.715   0.304  52.812  1.00  0.00     0.048 A 
ENDBRANCH  24  26
ENDBRANCH   4  24
TORSDOF 6
ENDMDL
MODEL 5
REMARK VINA RESULT:      -8.1      3.197      5.193
REMARK  6 active torsions:
REMARK  status: ('A' for Active; 'I' for Inactive)
REMARK    1  A    between atoms: C1_2  and  C2_3 
REMARK       I    between atoms: C1_2  and  N2_12 
REMARK    2  A    between atoms: C3_4  and  C4_5 
REMARK    3  A    between atoms: C4_5  and  N1_6 
REMARK    4  A    between atoms: N2_12  and  C9_13 
REMARK    5  A    between atoms: C12_16  and  N3_17 
REMARK    6  A    between atoms: N3_17  and  C13_18 
ROOT
HETATM    1  C9  UNL     1      26.199   5.527  49.304  1.00  0.00     0.038 C 
HETATM    2  C10 UNL     1      25.831   4.372  50.022  1.00  0.00     0.039 C 
HETATM    3  C11 UNL     1      24.410   4.420  50.420  1.00  0.00    -0.026 C 
HETATM    4  C12 UNL     1      23.331   3.712  50.176  1.00  0.00     0.034 C 
HETATM    5  C19 UNL     1      22.083   4.569  49.892  1.00  0.00     0.177 C 
HETATM    6  N4  UNL     1      22.627   5.793  49.174  1.00  0.00    -0.387 N 
HETATM    7  C20 UNL     1      23.945   6.180  49.555  1.00  0.00     0.011 C 
HETATM    8  C21 UNL     1      25.103   6.553  49.035  1.00  0.00     0.054 C 
HETATM    9  C22 UNL     1      24.100   5.809  51.091  1.00  0.00     0.097 C 
HETATM   10  H20 UNL     1      22.464   6.560  48.433  1.00  0.00     0.159 HD
ENDROOT
BRANCH   1  11
HETATM   11  N2  UNL     1      27.524   5.603  48.893  1.00  0.00    -0.316 N 
HETATM   12  C1  UNL     1      28.402   6.350  48.033  1.00  0.00     0.301 C 
HETATM   13  O1  UNL     1      27.990   7.292  47.337  1.00  0.00    -0.258 OA
HETATM   14  H11 UNL     1      27.898   4.777  49.456  1.00  0.00     0.170 HD
BRANCH  12  15
HETATM   15  C2  UNL     1      29.758   5.851  48.117  1.00  0.00    -0.004 C 
HETATM   16  C3  UNL     1      30.913   5.439  48.173  1.00  0.00    -0.077 C 
BRANCH  16  17
HETATM   17  C4  UNL     1      32.280   4.931  48.242  1.00  0.00     0.212 C 
BRANCH  17  18
HETATM   18  N1  UNL     1      32.314   3.743  47.410  1.00  0.00    -0.401 N 
HETATM   19  C5  UNL     1      33.250   2.774  47.885  1.00  0.00     0.128 C 
HETATM   20  C6  UNL     1      34.678   3.184  47.633  1.00  0.00     0.093 C 
HETATM   21  S1  UNL     1      34.962   3.754  45.949  1.00  0.00    -0.166 SA
HETATM   22  C7  UNL     1      33.466   4.557  45.362  1.00  0.00     0.093 C 
HETATM   23  C8  UNL     1      32.267   3.982  46.023  1.00  0.00     0.128 C 
ENDBRANCH  17  18
ENDBRANCH  16  17
ENDBRANCH  12  15
ENDBRANCH   1  11
BRANCH   4  24
HETATM   24  N3  UNL     1      23.925   2.388  50.247  1.00  0.00    -0.358 N 
HETATM   25  H13 UNL     1      24.605   2.119  49.539  1.00  0.00     0.166 HD
BRANCH  24  26
HETATM   26  C13 UNL     1      23.470   1.544  51.346  1.00  0.00     0.033 A 
HETATM   27  C14 UNL     1      22.059   1.201  51.525  1.00  0.00     0.029 A 
HETATM   28  C15 UNL     1      22.510   0.490  52.648  1.00  0.00     0.004 A 
HETATM   29  C16 UNL     1      22.882  -0.141  53.638  1.00  0.00     0.019 A 
HETATM   30  C17 UNL     1      24.217   0.310  53.281  1.00  0.00     0.013 A 
HETATM   31 BR1  UNL     1      25.828  -0.139  54.315  1.00  0.00    -0.051 Br
HETATM   32  C18 UNL     1      24.585   1.134  52.175  1.00  0.00     0.048 A 
ENDBRANCH  24  26
ENDBRANCH   4  24
TORSDOF 6
ENDMDL
MODEL 6
REMARK VINA RESULT:      -8.0      2.694      4.419
REMARK  6 active torsions:
REMARK  status: ('A' for Active; 'I' for Inactive)
REMARK    1  A    between atoms: C1_2  and  C2_3 
REMARK       I    between atoms: C1_2  and  N2_12 
REMARK    2  A    between atoms: C3_4  and  C4_5 
REMARK    3  A    between atoms: C4_5  and  N1_6 
REMARK    4  A    between atoms: N2_12  and  C9_13 
REMARK    5  A    between atoms: C12_16  and  N3_17 
REMARK    6  A    between atoms: N3_17  and  C13_18 
ROOT
HETATM    1  C9  UNL     1      25.239   3.536  50.504  1.00  0.00     0.038 C 
HETATM    2  C10 UNL     1      25.527   3.188  51.839  1.00  0.00     0.039 C 
HETATM    3  C11 UNL     1      24.368   2.539  52.484  1.00  0.00    -0.026 C 
HETATM    4  C12 UNL     1      24.110   1.365  53.012  1.00  0.00     0.034 C 
HETATM    5  C19 UNL     1      22.735   0.797  52.611  1.00  0.00     0.177 C 
HETATM    6  N4  UNL     1      22.530   1.290  51.188  1.00  0.00    -0.387 N 
HETATM    7  C20 UNL     1      23.130   2.549  50.894  1.00  0.00     0.011 C 
HETATM    8  C21 UNL     1      23.861   3.154  49.971  1.00  0.00     0.054 C 
HETATM    9  C22 UNL     1      23.076   3.402  52.232  1.00  0.00     0.097 C 
HETATM   10  H20 UNL     1      22.114   1.101  50.211  1.00  0.00     0.159 HD
ENDROOT
BRANCH   1  11
HETATM   11  N2  UNL     1      26.252   4.173  49.799  1.00  0.00    -0.316 N 
HETATM   12  C1  UNL     1      26.492   5.279  48.912  1.00  0.00     0.301 C 
HETATM   13  O1  UNL     1      25.576   6.029  48.540  1.00  0.00    -0.258 OA
HETATM   14  H11 UNL     1      27.052   3.524  50.078  1.00  0.00     0.170 HD
BRANCH  12  15
HETATM   15  C2  UNL     1      27.892   5.363  48.556  1.00  0.00    -0.004 C 
HETATM   16  C3  UNL     1      29.080   5.454  48.258  1.00  0.00    -0.077 C 
BRANCH  16  17
HETATM   17  C4  UNL     1      30.489   5.551  47.888  1.00  0.00     0.212 C 
BRANCH  17  18
HETATM   18  N1  UNL     1      30.709   6.926  47.485  1.00  0.00    -0.401 N 
HETATM   19  C5  UNL     1      31.734   7.045  46.498  1.00  0.00     0.128 C 
HETATM   20  C6  UNL     1      33.111   6.826  47.069  1.00  0.00     0.093 C 
HETATM   21  S1  UNL     1      33.403   7.756  48.584  1.00  0.00    -0.166 SA
HETATM   22  C7  UNL     1      31.848   7.890  49.475  1.00  0.00     0.093 C 
HETATM   23  C8  UNL     1      30.700   7.867  48.534  1.00  0.00     0.128 C 
ENDBRANCH  17  18
ENDBRANCH  16  17
ENDBRANCH  12  15
ENDBRANCH   1  11
BRANCH   4  24
HETATM   24  N3  UNL     1      25.368   1.163  53.709  1.00  0.00    -0.358 N 
HETATM   25  H13 UNL     1      25.659   1.851  54.400  1.00  0.00     0.166 HD
BRANCH  24  26
HETATM   26  C13 UNL     1      26.120  -0.030  53.335  1.00  0.00     0.033 A 
HETATM   27  C14 UNL     1      25.464  -1.217  52.788  1.00  0.00     0.029 A 
HETATM   28  C15 UNL     1      26.760  -1.754  52.747  1.00  0.00     0.004 A 
HETATM   29  C16 UNL     1      27.888  -2.245  52.702  1.00  0.00     0.019 A 
HETATM   30  C17 UNL     1      28.338  -0.977  53.251  1.00  0.00     0.013 A 
HETATM   31 BR1  UNL     1      30.218  -0.579  53.668  1.00  0.00    -0.051 Br
HETATM   32  C18 UNL     1      27.535   0.155  53.585  1.00  0.00     0.048 A 
ENDBRANCH  24  26
ENDBRANCH   4  24
TORSDOF 6
ENDMDL
MODEL 7
REMARK VINA RESULT:      -8.0      4.029     10.284
REMARK  6 active torsions:
REMARK  status: ('A' for Active; 'I' for Inactive)
REMARK    1  A    between atoms: C1_2  and  C2_3 
REMARK       I    between atoms: C1_2  and  N2_12 
REMARK    2  A    between atoms: C3_4  and  C4_5 
REMARK    3  A    between atoms: C4_5  and  N1_6 
REMARK    4  A    between atoms: N2_12  and  C9_13 
REMARK    5  A    between atoms: C12_16  and  N3_17 
REMARK    6  A    between atoms: N3_17  and  C13_18 
ROOT
HETATM    1  C9  UNL     1      28.621   6.599  48.430  1.00  0.00     0.038 C 
HETATM    2  C10 UNL     1      29.823   5.877  48.287  1.00  0.00     0.039 C 
HETATM    3  C11 UNL     1      30.917   6.748  47.815  1.00  0.00    -0.026 C 
HETATM    4  C12 UNL     1      32.078   7.150  48.277  1.00  0.00     0.034 C 
HETATM    5  C19 UNL     1      32.343   8.652  48.058  1.00  0.00     0.177 C 
HETATM    6  N4  UNL     1      30.972   9.294  48.182  1.00  0.00    -0.387 N 
HETATM    7  C20 UNL     1      29.883   8.478  47.759  1.00  0.00     0.011 C 
HETATM    8  C21 UNL     1      28.672   8.095  48.133  1.00  0.00     0.054 C 
HETATM    9  C22 UNL     1      30.426   7.577  46.569  1.00  0.00     0.097 C 
HETATM   10  H20 UNL     1      30.394  10.153  48.484  1.00  0.00     0.159 HD
ENDROOT
BRANCH   1  11
HETATM   11  N2  UNL     1      27.512   5.877  48.853  1.00  0.00    -0.316 N 
HETATM   12  C1  UNL     1      26.076   5.865  48.787  1.00  0.00     0.301 C 
HETATM   13  O1  UNL     1      25.442   6.743  48.181  1.00  0.00    -0.258 OA
HETATM   14  H11 UNL     1      28.031   5.128  49.408  1.00  0.00     0.170 HD
BRANCH  12  15
HETATM   15  C2  UNL     1      25.534   4.727  49.498  1.00  0.00    -0.004 C 
HETATM   16  C3  UNL     1      25.092   3.751  50.099  1.00  0.00    -0.077 C 
BRANCH  16  17
HETATM   17  C4  UNL     1      24.550   2.593  50.803  1.00  0.00     0.212 C 
BRANCH  17  18
HETATM   18  N1  UNL     1      25.148   2.606  52.124  1.00  0.00    -0.401 N 
HETATM   19  C5  UNL     1      26.512   2.181  52.107  1.00  0.00     0.128 C 
HETATM   20  C6  UNL     1      26.648   0.697  51.887  1.00  0.00     0.093 C 
HETATM   21  S1  UNL     1      25.562  -0.277  52.942  1.00  0.00    -0.166 SA
HETATM   22  C7  UNL     1      24.055   0.661  53.224  1.00  0.00     0.093 C 
HETATM   23  C8  UNL     1      24.325   2.119  53.159  1.00  0.00     0.128 C 
ENDBRANCH  17  18
ENDBRANCH  16  17
ENDBRANCH  12  15
ENDBRANCH   1  11
BRANCH   4  24
HETATM   24  N3  UNL     1      32.525   5.893  48.851  1.00  0.00    -0.358 N 
HETATM   25  H13 UNL     1      32.282   5.684  49.817  1.00  0.00     0.166 HD
BRANCH  24  26
HETATM   26  C13 UNL     1      33.308   5.033  47.971  1.00  0.00     0.033 A 
HETATM   27  C14 UNL     1      34.558   5.486  47.360  1.00  0.00     0.029 A 
HETATM   28  C15 UNL     1      34.583   4.209  46.779  1.00  0.00     0.004 A 
HETATM   29  C16 UNL     1      34.626   3.094  46.258  1.00  0.00     0.019 A 
HETATM   30  C17 UNL     1      33.379   2.842  46.961  1.00  0.00     0.013 A 
HETATM   31 BR1  UNL     1      32.385   1.151  46.839  1.00  0.00    -0.051 Br
HETATM   32  C18 UNL     1      32.674   3.740  47.819  1.00  0.00     0.048 A 
ENDBRANCH  24  26
ENDBRANCH   4  24
TORSDOF 6
ENDMDL
MODEL 8
REMARK VINA RESULT:      -8.0      5.066      9.864
REMARK  6 active torsions:
REMARK  status: ('A' for Active; 'I' for Inactive)
REMARK    1  A    between atoms: C1_2  and  C2_3 
REMARK       I    between atoms: C1_2  and  N2_12 
REMARK    2  A    between atoms: C3_4  and  C4_5 
REMARK    3  A    between atoms: C4_5  and  N1_6 
REMARK    4  A    between atoms: N2_12  and  C9_13 
REMARK    5  A    between atoms: C12_16  and  N3_17 
REMARK    6  A    between atoms: N3_17  and  C13_18 
ROOT
HETATM    1  C9  UNL     1      23.150   0.297  53.078  1.00  0.00     0.038 C 
HETATM    2  C10 UNL     1      23.376   1.604  52.601  1.00  0.00     0.039 C 
HETATM    3  C11 UNL     1      24.817   1.922  52.573  1.00  0.00    -0.026 C 
HETATM    4  C12 UNL     1      25.704   2.229  51.655  1.00  0.00     0.034 C 
HETATM    5  C19 UNL     1      27.049   1.498  51.828  1.00  0.00     0.177 C 
HETATM    6  N4  UNL     1      26.666   0.141  52.394  1.00  0.00    -0.387 N 
HETATM    7  C20 UNL     1      25.501   0.138  53.217  1.00  0.00     0.011 C 
HETATM    8  C21 UNL     1      24.381  -0.537  53.419  1.00  0.00     0.054 C 
HETATM    9  C22 UNL     1      25.465   1.543  53.957  1.00  0.00     0.097 C 
HETATM   10  H20 UNL     1      26.881  -0.914  52.452  1.00  0.00     0.159 HD
ENDROOT
BRANCH   1  11
HETATM   11  N2  UNL     1      21.825  -0.108  53.168  1.00  0.00    -0.316 N 
HETATM   12  C1  UNL     1      20.934  -0.898  53.973  1.00  0.00     0.301 C 
HETATM   13  O1  UNL     1      21.329  -1.505  54.982  1.00  0.00    -0.258 OA
HETATM   14  H11 UNL     1      21.465   0.377  52.287  1.00  0.00     0.170 HD
BRANCH  12  15
HETATM   15  C2  UNL     1      19.587  -0.862  53.444  1.00  0.00    -0.004 C 
HETATM   16  C3  UNL     1      18.452  -0.835  52.977  1.00  0.00    -0.077 C 
BRANCH  16  17
HETATM   17  C4  UNL     1      17.098  -0.787  52.433  1.00  0.00     0.212 C 
BRANCH  17  18
HETATM   18  N1  UNL     1      17.069   0.337  51.517  1.00  0.00    -0.401 N 
HETATM   19  C5  UNL     1      16.016   1.255  51.817  1.00  0.00     0.128 C 
HETATM   20  C6  UNL     1      14.659   0.715  51.447  1.00  0.00     0.093 C 
HETATM   21  S1  UNL     1      14.607   0.013  49.790  1.00  0.00    -0.166 SA
HETATM   22  C7  UNL     1      16.214  -0.702  49.424  1.00  0.00     0.093 C 
HETATM   23  C8  UNL     1      17.286   0.012  50.163  1.00  0.00     0.128 C 
ENDBRANCH  17  18
ENDBRANCH  16  17
ENDBRANCH  12  15
ENDBRANCH   1  11
BRANCH   4  24
HETATM   24  N3  UNL     1      24.883   3.122  50.856  1.00  0.00    -0.358 N 
HETATM   25  H13 UNL     1      23.873   2.996  50.867  1.00  0.00     0.166 HD
BRANCH  24  26
HETATM   26  C13 UNL     1      25.601   4.131  50.086  1.00  0.00     0.033 A 
HETATM   27  C14 UNL     1      26.745   3.789  49.240  1.00  0.00     0.029 A 
HETATM   28  C15 UNL     1      26.778   5.162  48.956  1.00  0.00     0.004 A 
HETATM   29  C16 UNL     1      26.827   6.364  48.692  1.00  0.00     0.019 A 
HETATM   30  C17 UNL     1      25.681   6.489  49.577  1.00  0.00     0.013 A 
HETATM   31 BR1  UNL     1      24.800   8.200  49.980  1.00  0.00    -0.051 Br
HETATM   32  C18 UNL     1      25.024   5.443  50.293  1.00  0.00     0.048 A 
ENDBRANCH  24  26
ENDBRANCH   4  24
TORSDOF 6
ENDMDL
MODEL 9
REMARK VINA RESULT:      -7.9      4.394     10.326
REMARK  6 active torsions:
REMARK  status: ('A' for Active; 'I' for Inactive)
REMARK    1  A    between atoms: C1_2  and  C2_3 
REMARK       I    between atoms: C1_2  and  N2_12 
REMARK    2  A    between atoms: C3_4  and  C4_5 
REMARK    3  A    between atoms: C4_5  and  N1_6 
REMARK    4  A    between atoms: N2_12  and  C9_13 
REMARK    5  A    between atoms: C12_16  and  N3_17 
REMARK    6  A    between atoms: N3_17  and  C13_18 
ROOT
HETATM    1  C9  UNL     1      26.121   5.516  49.628  1.00  0.00     0.038 C 
HETATM    2  C10 UNL     1      27.158   5.098  48.769  1.00  0.00     0.039 C 
HETATM    3  C11 UNL     1      27.907   6.253  48.235  1.00  0.00    -0.026 C 
HETATM    4  C12 UNL     1      29.142   6.696  48.300  1.00  0.00     0.034 C 
HETATM    5  C19 UNL     1      29.240   8.215  48.535  1.00  0.00     0.177 C 
HETATM    6  N4  UNL     1      28.045   8.533  49.418  1.00  0.00    -0.387 N 
HETATM    7  C20 UNL     1      26.904   7.703  49.211  1.00  0.00     0.011 C 
HETATM    8  C21 UNL     1      25.993   7.015  49.880  1.00  0.00     0.054 C 
HETATM    9  C22 UNL     1      26.896   7.319  47.671  1.00  0.00     0.097 C 
HETATM   10  H20 UNL     1      27.634   9.143  50.207  1.00  0.00     0.159 HD
ENDROOT
BRANCH   1  11
HETATM   11  N2  UNL     1      25.332   4.514  50.177  1.00  0.00    -0.316 N 
HETATM   12  C1  UNL     1      24.315   3.556  49.835  1.00  0.00     0.301 C 
HETATM   13  O1  UNL     1      23.867   3.463  48.681  1.00  0.00    -0.258 OA
HETATM   14  H11 UNL     1      25.676   4.594  51.185  1.00  0.00     0.170 HD
BRANCH  12  15
HETATM   15  C2  UNL     1      23.934   2.770  50.989  1.00  0.00    -0.004 C 
HETATM   16  C3  UNL     1      23.592   2.107  51.964  1.00  0.00    -0.077 C 
BRANCH  16  17
HETATM   17  C4  UNL     1      23.200   1.327  53.134  1.00  0.00     0.212 C 
BRANCH  17  18
HETATM   18  N1  UNL     1      23.592  -0.041  52.859  1.00  0.00    -0.401 N 
HETATM   19  C5  UNL     1      22.611  -0.985  53.294  1.00  0.00     0.128 C 
HETATM   20  C6  UNL     1      22.578  -1.130  54.793  1.00  0.00     0.093 C 
HETATM   21  S1  UNL     1      24.213  -1.342  55.518  1.00  0.00    -0.166 SA
HETATM   22  C7  UNL     1      25.397  -0.426  54.526  1.00  0.00     0.093 C 
HETATM   23  C8  UNL     1      24.945  -0.340  53.114  1.00  0.00     0.128 C 
ENDBRANCH  17  18
ENDBRANCH  16  17
ENDBRANCH  12  15
ENDBRANCH   1  11
BRANCH   4  24
HETATM   24  N3  UNL     1      29.831   5.424  48.164  1.00  0.00    -0.358 N 
HETATM   25  H13 UNL     1      29.279   4.583  48.011  1.00  0.00     0.166 HD
BRANCH  24  26
HETATM   26  C13 UNL     1      31.285   5.473  48.275  1.00  0.00     0.033 A 
HETATM   27  C14 UNL     1      31.953   5.916  49.499  1.00  0.00     0.029 A 
HETATM   28  C15 UNL     1      33.136   5.675  48.784  1.00  0.00     0.004 A 
HETATM   29  C16 UNL     1      34.187   5.470  48.176  1.00  0.00     0.019 A 
HETATM   30  C17 UNL     1      33.336   5.064  47.071  1.00  0.00     0.013 A 
HETATM   31 BR1  UNL     1      34.027   4.469  45.328  1.00  0.00    -0.051 Br
HETATM   32  C18 UNL     1      31.909   5.036  47.043  1.00  0.00     0.048 A 
ENDBRANCH  24  26
ENDBRANCH   4  24
TORSDOF 6
ENDMDL
