MODEL 1
REMARK VINA RESULT:      -8.5      0.000      0.000
REMARK  2 active torsions:
REMARK  status: ('A' for Active; 'I' for Inactive)
REMARK    1  A    between atoms: C5_5  and  C6_6 
REMARK    2  A    between atoms: C10_13  and  O1_14 
ROOT
HETATM    1  C6  UNL     1      26.769   1.141  52.164  1.00  0.00     0.141 C 
HETATM    2  C7  UNL     1      26.379  -0.332  52.247  1.00  0.00     0.088 C 
HETATM    3  C8  UNL     1      25.006  -0.285  52.794  1.00  0.00     0.043 C 
HETATM    4  N1  UNL     1      24.946   0.623  51.880  1.00  0.00    -0.183 NA
HETATM    5  N2  UNL     1      25.501   1.742  52.513  1.00  0.00    -0.267 N 
HETATM    6  C9  UNL     1      24.777   2.832  53.137  1.00  0.00     0.270 C 
HETATM    7  N3  UNL     1      24.577   3.281  51.947  1.00  0.00    -0.258 NA
HETATM    8  C10 UNL     1      23.819   4.506  51.823  1.00  0.00     0.307 C 
HETATM    9  S1  UNL     1      22.157   4.184  51.148  1.00  0.00    -0.087 SA
HETATM   10  C11 UNL     1      21.140   3.261  52.246  1.00  0.00     0.048 C 
HETATM   11  C12 UNL     1      21.091   2.195  52.981  1.00  0.00     0.021 C 
HETATM   12  C13 UNL     1      21.488   0.971  53.607  1.00  0.00     0.216 A 
HETATM   13  C14 UNL     1      21.772  -0.130  54.206  1.00  0.00     0.085 A 
HETATM   14  F1  UNL     1      20.520   0.198  54.582  1.00  0.00    -0.357 F 
HETATM   15  C15 UNL     1      22.918  -0.998  54.244  1.00  0.00     0.022 C 
HETATM   16  C16 UNL     1      23.748  -0.395  53.456  1.00  0.00     0.074 C 
ENDROOT
BRANCH   1  17
HETATM   17  C5  UNL     1      27.852   1.492  53.114  1.00  0.00    -0.055 A 
HETATM   18  C2  UNL     1      28.688   0.733  54.042  1.00  0.00     0.016 A 
HETATM   19  C1  UNL     1      27.936   0.038  55.158  1.00  0.00     0.015 C 
HETATM   20  C3  UNL     1      29.309   2.027  54.390  1.00  0.00     0.036 A 
HETATM   21  C4  UNL     1      28.404   2.623  53.428  1.00  0.00    -0.021 A 
ENDBRANCH   1  17
BRANCH   8  22
HETATM   22  O1  UNL     1      23.718   5.161  53.044  1.00  0.00    -0.366 OA
HETATM   23  H13 UNL     1      23.007   4.770  53.615  1.00  0.00     0.213 HD
ENDBRANCH   8  22
TORSDOF 2
ENDMDL
MODEL 2
REMARK VINA RESULT:      -7.8      2.829      3.931
REMARK  2 active torsions:
REMARK  status: ('A' for Active; 'I' for Inactive)
REMARK    1  A    between atoms: C5_5  and  C6_6 
REMARK    2  A    between atoms: C10_13  and  O1_14 
ROOT
HETATM    1  C6  UNL     1      26.346   0.795  53.887  1.00  0.00     0.141 C 
HETATM    2  C7  UNL     1      26.638   2.076  53.113  1.00  0.00     0.088 C 
HETATM    3  C8  UNL     1      25.468   2.200  52.216  1.00  0.00     0.043 C 
HETATM    4  N1  UNL     1      24.898   1.925  53.341  1.00  0.00    -0.183 NA
HETATM    5  N2  UNL     1      25.005   0.531  53.413  1.00  0.00    -0.267 N 
HETATM    6  C9  UNL     1      23.981  -0.436  53.070  1.00  0.00     0.270 C 
HETATM    7  N3  UNL     1      23.443  -0.158  54.207  1.00  0.00    -0.258 NA
HETATM    8  C10 UNL     1      22.226  -0.859  54.549  1.00  0.00     0.307 C 
HETATM    9  S1  UNL     1      20.785   0.253  54.469  1.00  0.00    -0.087 SA
HETATM   10  C11 UNL     1      20.424   0.786  52.831  1.00  0.00     0.048 C 
HETATM   11  C12 UNL     1      20.938   1.311  51.765  1.00  0.00     0.021 C 
HETATM   12  C13 UNL     1      21.902   1.879  50.873  1.00  0.00     0.216 A 
HETATM   13  C14 UNL     1      22.710   2.395  50.017  1.00  0.00     0.085 A 
HETATM   14  F1  UNL     1      21.504   2.335  49.418  1.00  0.00    -0.357 F 
HETATM   15  C15 UNL     1      24.110   2.725  50.014  1.00  0.00     0.022 C 
HETATM   16  C16 UNL     1      24.484   2.360  51.197  1.00  0.00     0.074 C 
ENDROOT
BRANCH   1  17
HETATM   17  C5  UNL     1      27.297  -0.293  53.556  1.00  0.00    -0.055 A 
HETATM   18  C2  UNL     1      28.648  -0.642  53.991  1.00  0.00     0.016 A 
HETATM   19  C1  UNL     1      29.710   0.385  53.663  1.00  0.00     0.015 C 
HETATM   20  C3  UNL     1      28.548  -1.787  53.063  1.00  0.00     0.036 A 
HETATM   21  C4  UNL     1      27.221  -1.302  52.744  1.00  0.00    -0.021 A 
ENDBRANCH   1  17
BRANCH   8  22
HETATM   22  O1  UNL     1      22.028  -1.958  53.722  1.00  0.00    -0.366 OA
HETATM   23  H13 UNL     1      22.879  -2.275  53.322  1.00  0.00     0.213 HD
ENDBRANCH   8  22
TORSDOF 2
ENDMDL
MODEL 3
REMARK VINA RESULT:      -7.8      2.856      5.404
REMARK  2 active torsions:
REMARK  status: ('A' for Active; 'I' for Inactive)
REMARK    1  A    between atoms: C5_5  and  C6_6 
REMARK    2  A    between atoms: C10_13  and  O1_14 
ROOT
HETATM    1  C6  UNL     1      22.650   3.332  51.126  1.00  0.00     0.141 C 
HETATM    2  C7  UNL     1      21.316   3.272  51.864  1.00  0.00     0.088 C 
HETATM    3  C8  UNL     1      21.408   2.004  52.620  1.00  0.00     0.043 C 
HETATM    4  N1  UNL     1      22.561   2.529  52.864  1.00  0.00    -0.183 NA
HETATM    5  N2  UNL     1      23.305   2.191  51.728  1.00  0.00    -0.267 N 
HETATM    6  C9  UNL     1      24.237   1.089  51.598  1.00  0.00     0.270 C 
HETATM    7  N3  UNL     1      25.075   1.818  52.250  1.00  0.00    -0.258 NA
HETATM    8  C10 UNL     1      26.380   1.253  52.507  1.00  0.00     0.307 C 
HETATM    9  S1  UNL     1      26.573   0.820  54.266  1.00  0.00    -0.087 SA
HETATM   10  C11 UNL     1      25.524  -0.502  54.764  1.00  0.00     0.048 C 
HETATM   11  C12 UNL     1      24.301  -0.927  54.753  1.00  0.00     0.021 C 
HETATM   12  C13 UNL     1      22.892  -0.973  54.505  1.00  0.00     0.216 A 
HETATM   13  C14 UNL     1      21.625  -1.085  54.320  1.00  0.00     0.085 A 
HETATM   14  F1  UNL     1      22.015  -2.192  54.983  1.00  0.00    -0.357 F 
HETATM   15  C15 UNL     1      20.616  -0.275  53.691  1.00  0.00     0.022 C 
HETATM   16  C16 UNL     1      21.297   0.743  53.276  1.00  0.00     0.074 C 
ENDROOT
BRANCH   1  17
HETATM   17  C5  UNL     1      22.490   3.195  49.659  1.00  0.00    -0.055 A 
HETATM   18  C2  UNL     1      21.526   2.524  48.791  1.00  0.00     0.016 A 
HETATM   19  C1  UNL     1      21.476   1.017  48.935  1.00  0.00     0.015 C 
HETATM   20  C3  UNL     1      22.328   3.038  47.662  1.00  0.00     0.036 A 
HETATM   21  C4  UNL     1      23.188   3.641  48.660  1.00  0.00    -0.021 A 
ENDBRANCH   1  17
BRANCH   8  22
HETATM   22  O1  UNL     1      26.611   0.135  51.712  1.00  0.00    -0.366 OA
HETATM   23  H13 UNL     1      27.347  -0.425  52.070  1.00  0.00     0.213 HD
ENDBRANCH   8  22
TORSDOF 2
ENDMDL
MODEL 4
REMARK VINA RESULT:      -7.6      2.890      5.097
REMARK  2 active torsions:
REMARK  status: ('A' for Active; 'I' for Inactive)
REMARK    1  A    between atoms: C5_5  and  C6_6 
REMARK    2  A    between atoms: C10_13  and  O1_14 
ROOT
HETATM    1  C6  UNL     1      25.523   5.030  49.260  1.00  0.00     0.141 C 
HETATM    2  C7  UNL     1      26.764   4.146  49.183  1.00  0.00     0.088 C 
HETATM    3  C8  UNL     1      26.588   3.222  50.325  1.00  0.00     0.043 C 
HETATM    4  N1  UNL     1      25.414   3.191  49.790  1.00  0.00    -0.183 NA
HETATM    5  N2  UNL     1      24.805   4.340  50.309  1.00  0.00    -0.267 N 
HETATM    6  C9  UNL     1      23.895   4.405  51.435  1.00  0.00     0.270 C 
HETATM    7  N3  UNL     1      22.987   3.970  50.632  1.00  0.00    -0.258 NA
HETATM    8  C10 UNL     1      21.662   3.780  51.176  1.00  0.00     0.307 C 
HETATM    9  S1  UNL     1      21.270   2.008  51.343  1.00  0.00    -0.087 SA
HETATM   10  C11 UNL     1      22.257   1.200  52.555  1.00  0.00     0.048 C 
HETATM   11  C12 UNL     1      23.474   1.009  52.954  1.00  0.00     0.021 C 
HETATM   12  C13 UNL     1      24.901   1.087  53.011  1.00  0.00     0.216 A 
HETATM   13  C14 UNL     1      26.181   1.109  53.126  1.00  0.00     0.085 A 
HETATM   14  F1  UNL     1      25.720   0.334  54.128  1.00  0.00    -0.357 F 
HETATM   15  C15 UNL     1      27.255   1.735  52.402  1.00  0.00     0.022 C 
HETATM   16  C16 UNL     1      26.625   2.374  51.471  1.00  0.00     0.074 C 
ENDROOT
BRANCH   1  17
HETATM   17  C5  UNL     1      25.850   6.432  49.613  1.00  0.00    -0.055 A 
HETATM   18  C2  UNL     1      25.269   7.425  50.514  1.00  0.00     0.016 A 
HETATM   19  C1  UNL     1      23.852   7.840  50.179  1.00  0.00     0.015 C 
HETATM   20  C3  UNL     1      26.335   8.333  50.047  1.00  0.00     0.036 A 
HETATM   21  C4  UNL     1      26.782   7.239  49.209  1.00  0.00    -0.021 A 
ENDBRANCH   1  17
BRANCH   8  22
HETATM   22  O1  UNL     1      21.525   4.416  52.404  1.00  0.00    -0.366 OA
HETATM   23  H13 UNL     1      22.324   4.285  52.978  1.00  0.00     0.213 HD
ENDBRANCH   8  22
TORSDOF 2
ENDMDL
MODEL 5
REMARK VINA RESULT:      -7.5      3.006      5.278
REMARK  2 active torsions:
REMARK  status: ('A' for Active; 'I' for Inactive)
REMARK    1  A    between atoms: C5_5  and  C6_6 
REMARK    2  A    between atoms: C10_13  and  O1_14 
ROOT
HETATM    1  C6  UNL     1      22.595   0.021  51.937  1.00  0.00     0.141 C 
HETATM    2  C7  UNL     1      21.216   0.491  51.485  1.00  0.00     0.088 C 
HETATM    3  C8  UNL     1      21.383   1.956  51.368  1.00  0.00     0.043 C 
HETATM    4  N1  UNL     1      22.443   1.531  50.767  1.00  0.00    -0.183 NA
HETATM    5  N2  UNL     1      23.319   1.269  51.827  1.00  0.00    -0.267 N 
HETATM    6  C9  UNL     1      24.377   2.133  52.311  1.00  0.00     0.270 C 
HETATM    7  N3  UNL     1      25.066   1.731  51.300  1.00  0.00    -0.258 NA
HETATM    8  C10 UNL     1      26.399   2.270  51.154  1.00  0.00     0.307 C 
HETATM    9  S1  UNL     1      26.483   3.444  49.763  1.00  0.00    -0.087 SA
HETATM   10  C11 UNL     1      25.550   4.909  50.047  1.00  0.00     0.048 C 
HETATM   11  C12 UNL     1      24.388   5.356  50.406  1.00  0.00     0.021 C 
HETATM   12  C13 UNL     1      23.022   5.369  50.829  1.00  0.00     0.216 A 
HETATM   13  C14 UNL     1      21.797   5.461  51.208  1.00  0.00     0.085 A 
HETATM   14  F1  UNL     1      22.249   6.722  51.064  1.00  0.00    -0.357 F 
HETATM   15  C15 UNL     1      20.763   4.517  51.537  1.00  0.00     0.022 C 
HETATM   16  C16 UNL     1      21.358   3.382  51.362  1.00  0.00     0.074 C 
ENDROOT
BRANCH   1  17
HETATM   17  C5  UNL     1      22.583  -0.516  53.319  1.00  0.00    -0.055 A 
HETATM   18  C2  UNL     1      21.535  -0.827  54.289  1.00  0.00     0.016 A 
HETATM   19  C1  UNL     1      20.713   0.361  54.744  1.00  0.00     0.015 C 
HETATM   20  C3  UNL     1      22.627  -1.240  55.193  1.00  0.00     0.036 A 
HETATM   21  C4  UNL     1      23.534  -0.882  54.122  1.00  0.00    -0.021 A 
ENDBRANCH   1  17
BRANCH   8  22
HETATM   22  O1  UNL     1      26.824   2.887  52.325  1.00  0.00    -0.366 OA
HETATM   23  H13 UNL     1      26.182   2.748  53.068  1.00  0.00     0.213 HD
ENDBRANCH   8  22
TORSDOF 2
ENDMDL
MODEL 6
REMARK VINA RESULT:      -7.4      3.757      6.143
REMARK  2 active torsions:
REMARK  status: ('A' for Active; 'I' for Inactive)
REMARK    1  A    between atoms: C5_5  and  C6_6 
REMARK    2  A    between atoms: C10_13  and  O1_14 
ROOT
HETATM    1  C6  UNL     1      22.591   2.658  52.675  1.00  0.00     0.141 C 
HETATM    2  C7  UNL     1      23.978   2.078  52.938  1.00  0.00     0.088 C 
HETATM    3  C8  UNL     1      24.804   2.689  51.874  1.00  0.00     0.043 C 
HETATM    4  N1  UNL     1      24.148   3.713  52.307  1.00  0.00    -0.183 NA
HETATM    5  N2  UNL     1      22.924   3.607  51.635  1.00  0.00    -0.267 N 
HETATM    6  C9  UNL     1      22.531   4.315  50.433  1.00  0.00     0.270 C 
HETATM    7  N3  UNL     1      22.322   5.335  51.192  1.00  0.00    -0.258 NA
HETATM    8  C10 UNL     1      21.854   6.545  50.556  1.00  0.00     0.307 C 
HETATM    9  S1  UNL     1      23.162   7.814  50.517  1.00  0.00    -0.087 SA
HETATM   10  C11 UNL     1      24.509   7.376  49.473  1.00  0.00     0.048 C 
HETATM   11  C12 UNL     1      25.357   6.437  49.198  1.00  0.00     0.021 C 
HETATM   12  C13 UNL     1      26.047   5.185  49.258  1.00  0.00     0.216 A 
HETATM   13  C14 UNL     1      26.714   4.086  49.252  1.00  0.00     0.085 A 
HETATM   14  F1  UNL     1      27.248   4.864  48.288  1.00  0.00    -0.357 F 
HETATM   15  C15 UNL     1      26.661   2.863  50.005  1.00  0.00     0.022 C 
HETATM   16  C16 UNL     1      25.678   3.080  50.818  1.00  0.00     0.074 C 
ENDROOT
BRANCH   1  17
HETATM   17  C5  UNL     1      21.624   1.628  52.226  1.00  0.00    -0.055 A 
HETATM   18  C2  UNL     1      20.419   1.034  52.800  1.00  0.00     0.016 A 
HETATM   19  C1  UNL     1      20.635   0.268  54.088  1.00  0.00     0.015 C 
HETATM   20  C3  UNL     1      20.351   0.221  51.569  1.00  0.00     0.036 A 
HETATM   21  C4  UNL     1      21.554   0.908  51.149  1.00  0.00    -0.021 A 
ENDBRANCH   1  17
BRANCH   8  22
HETATM   22  O1  UNL     1      21.397   6.293  49.268  1.00  0.00    -0.366 OA
HETATM   23  H13 UNL     1      20.453   5.988  49.265  1.00  0.00     0.213 HD
ENDBRANCH   8  22
TORSDOF 2
ENDMDL
MODEL 7
REMARK VINA RESULT:      -7.3      2.582      5.349
REMARK  2 active torsions:
REMARK  status: ('A' for Active; 'I' for Inactive)
REMARK    1  A    between atoms: C5_5  and  C6_6 
REMARK    2  A    between atoms: C10_13  and  O1_14 
ROOT
HETATM    1  C6  UNL     1      22.980   4.547  51.304  1.00  0.00     0.141 C 
HETATM    2  C7  UNL     1      21.575   4.333  51.860  1.00  0.00     0.088 C 
HETATM    3  C8  UNL     1      21.583   2.906  52.250  1.00  0.00     0.043 C 
HETATM    4  N1  UNL     1      22.706   3.310  52.742  1.00  0.00    -0.183 NA
HETATM    5  N2  UNL     1      23.565   3.267  51.638  1.00  0.00    -0.267 N 
HETATM    6  C9  UNL     1      24.502   2.211  51.310  1.00  0.00     0.270 C 
HETATM    7  N3  UNL     1      25.269   2.712  52.215  1.00  0.00    -0.258 NA
HETATM    8  C10 UNL     1      26.539   2.059  52.439  1.00  0.00     0.307 C 
HETATM    9  S1  UNL     1      26.544   1.164  54.026  1.00  0.00    -0.087 SA
HETATM   10  C11 UNL     1      25.445  -0.209  54.041  1.00  0.00     0.048 C 
HETATM   11  C12 UNL     1      24.228  -0.578  53.792  1.00  0.00     0.021 C 
HETATM   12  C13 UNL     1      22.854  -0.512  53.401  1.00  0.00     0.216 A 
HETATM   13  C14 UNL     1      21.613  -0.531  53.066  1.00  0.00     0.085 A 
HETATM   14  F1  UNL     1      21.928  -1.787  53.441  1.00  0.00    -0.357 F 
HETATM   15  C15 UNL     1      20.678   0.448  52.581  1.00  0.00     0.022 C 
HETATM   16  C16 UNL     1      21.401   1.519  52.527  1.00  0.00     0.074 C 
ENDROOT
BRANCH   1  17
HETATM   17  C5  UNL     1      22.974   4.814  49.846  1.00  0.00    -0.055 A 
HETATM   18  C2  UNL     1      23.959   4.678  48.775  1.00  0.00     0.016 A 
HETATM   19  C1  UNL     1      25.193   5.543  48.928  1.00  0.00     0.015 C 
HETATM   20  C3  UNL     1      22.911   5.202  47.875  1.00  0.00     0.036 A 
HETATM   21  C4  UNL     1      22.062   5.273  49.046  1.00  0.00    -0.021 A 
ENDBRANCH   1  17
BRANCH   8  22
HETATM   22  O1  UNL     1      26.848   1.189  51.400  1.00  0.00    -0.366 OA
HETATM   23  H13 UNL     1      27.275   0.357  51.732  1.00  0.00     0.213 HD
ENDBRANCH   8  22
TORSDOF 2
ENDMDL
MODEL 8
REMARK VINA RESULT:      -7.2      4.106      5.913
REMARK  2 active torsions:
REMARK  status: ('A' for Active; 'I' for Inactive)
REMARK    1  A    between atoms: C5_5  and  C6_6 
REMARK    2  A    between atoms: C10_13  and  O1_14 
ROOT
HETATM    1  C6  UNL     1      25.601   5.833  49.665  1.00  0.00     0.141 C 
HETATM    2  C7  UNL     1      24.468   6.300  48.757  1.00  0.00     0.088 C 
HETATM    3  C8  UNL     1      23.651   5.079  48.585  1.00  0.00     0.043 C 
HETATM    4  N1  UNL     1      23.853   5.072  49.860  1.00  0.00    -0.183 NA
HETATM    5  N2  UNL     1      25.127   4.501  49.971  1.00  0.00    -0.267 N 
HETATM    6  C9  UNL     1      25.433   3.118  50.278  1.00  0.00     0.270 C 
HETATM    7  N3  UNL     1      25.172   3.411  51.505  1.00  0.00    -0.258 NA
HETATM    8  C10 UNL     1      25.295   2.348  52.477  1.00  0.00     0.307 C 
HETATM    9  S1  UNL     1      23.658   1.807  53.068  1.00  0.00    -0.087 SA
HETATM   10  C11 UNL     1      22.706   1.018  51.816  1.00  0.00     0.048 C 
HETATM   11  C12 UNL     1      22.273   1.136  50.601  1.00  0.00     0.021 C 
HETATM   12  C13 UNL     1      22.042   1.685  49.300  1.00  0.00     0.216 A 
HETATM   13  C14 UNL     1      21.792   2.113  48.114  1.00  0.00     0.085 A 
HETATM   14  F1  UNL     1      21.177   0.919  48.229  1.00  0.00    -0.357 F 
HETATM   15  C15 UNL     1      22.141   3.289  47.365  1.00  0.00     0.022 C 
HETATM   16  C16 UNL     1      22.863   3.952  48.211  1.00  0.00     0.074 C 
ENDROOT
BRANCH   1  17
HETATM   17  C5  UNL     1      26.913   5.831  48.974  1.00  0.00    -0.055 A 
HETATM   18  C2  UNL     1      27.809   6.870  48.472  1.00  0.00     0.016 A 
HETATM   19  C1  UNL     1      27.231   7.734  47.370  1.00  0.00     0.015 C 
HETATM   20  C3  UNL     1      28.687   5.767  48.033  1.00  0.00     0.036 A 
HETATM   21  C4  UNL     1      27.693   4.870  48.584  1.00  0.00    -0.021 A 
ENDBRANCH   1  17
BRANCH   8  22
HETATM   22  O1  UNL     1      25.995   1.267  51.956  1.00  0.00    -0.366 OA
HETATM   23  H13 UNL     1      26.061   0.522  52.608  1.00  0.00     0.213 HD
ENDBRANCH   8  22
TORSDOF 2
ENDMDL
MODEL 9
REMARK VINA RESULT:      -7.1      4.053      5.937
REMARK  2 active torsions:
REMARK  status: ('A' for Active; 'I' for Inactive)
REMARK    1  A    between atoms: C5_5  and  C6_6 
REMARK    2  A    between atoms: C10_13  and  O1_14 
ROOT
HETATM    1  C6  UNL     1      24.957   3.285  49.658  1.00  0.00     0.141 C 
HETATM    2  C7  UNL     1      23.516   2.889  49.346  1.00  0.00     0.088 C 
HETATM    3  C8  UNL     1      22.773   4.153  49.540  1.00  0.00     0.043 C 
HETATM    4  N1  UNL     1      23.779   4.556  48.839  1.00  0.00    -0.183 NA
HETATM    5  N2  UNL     1      24.785   4.714  49.799  1.00  0.00    -0.267 N 
HETATM    6  C9  UNL     1      25.191   5.953  50.433  1.00  0.00     0.270 C 
HETATM    7  N3  UNL     1      25.828   6.214  49.344  1.00  0.00    -0.258 NA
HETATM    8  C10 UNL     1      26.552   7.464  49.286  1.00  0.00     0.307 C 
HETATM    9  S1  UNL     1      25.726   8.649  48.176  1.00  0.00    -0.087 SA
HETATM   10  C11 UNL     1      24.165   9.184  48.785  1.00  0.00     0.048 C 
HETATM   11  C12 UNL     1      23.030   8.775  49.257  1.00  0.00     0.021 C 
HETATM   12  C13 UNL     1      21.996   7.894  49.704  1.00  0.00     0.216 A 
HETATM   13  C14 UNL     1      21.022   7.166  50.121  1.00  0.00     0.085 A 
HETATM   14  F1  UNL     1      20.620   8.447  50.238  1.00  0.00    -0.357 F 
HETATM   15  C15 UNL     1      20.800   5.752  50.264  1.00  0.00     0.022 C 
HETATM   16  C16 UNL     1      21.915   5.252  49.839  1.00  0.00     0.074 C 
ENDROOT
BRANCH   1  17
HETATM   17  C5  UNL     1      25.464   2.642  50.894  1.00  0.00    -0.055 A 
HETATM   18  C2  UNL     1      24.844   2.153  52.123  1.00  0.00     0.016 A 
HETATM   19  C1  UNL     1      24.158   3.213  52.958  1.00  0.00     0.015 C 
HETATM   20  C3  UNL     1      26.208   1.780  52.548  1.00  0.00     0.036 A 
HETATM   21  C4  UNL     1      26.658   2.310  51.278  1.00  0.00    -0.021 A 
ENDBRANCH   1  17
BRANCH   8  22
HETATM   22  O1  UNL     1      26.699   8.019  50.552  1.00  0.00    -0.366 OA
HETATM   23  H13 UNL     1      26.058   7.630  51.202  1.00  0.00     0.213 HD
ENDBRANCH   8  22
TORSDOF 2
ENDMDL
