MODEL 1
REMARK VINA RESULT:      -8.2      0.000      0.000
REMARK  10 active torsions:
REMARK  status: ('A' for Active; 'I' for Inactive)
REMARK    1  A    between atoms: C2_2  and  C3_3 
REMARK    2  A    between atoms: C4_4  and  C5_5 
REMARK    3  A    between atoms: C7_7  and  C8_8 
REMARK    4  A    between atoms: C8_8  and  C9_9 
REMARK    5  A    between atoms: C10_12  and  S1_13 
REMARK    6  A    between atoms: S1_13  and  S2_14 
REMARK    7  A    between atoms: S2_14  and  C11_15 
REMARK    8  A    between atoms: C12_16  and  C13_17 
REMARK    9  A    between atoms: C13_17  and  C14_18 
REMARK   10  A    between atoms: C14_18  and  O4_20 
ROOT
HETATM    1  S1  UNL     1      23.941   5.394  51.183  1.00  0.00    -0.032 SA
ENDROOT
BRANCH   1   2
HETATM    2  C10 UNL     1      25.306   5.730  50.097  1.00  0.00     0.092 A 
HETATM    3  C7  UNL     1      25.743   6.865  49.584  1.00  0.00     0.009 A 
HETATM    4  C6  UNL     1      26.808   6.164  48.890  1.00  0.00     0.044 A 
HETATM    5  C5  UNL     1      27.820   6.400  48.087  1.00  0.00     0.030 C 
HETATM    6  N2  UNL     1      26.315   4.962  49.456  1.00  0.00    -0.344 N 
HETATM    7  C22 UNL     1      26.725   3.567  49.380  1.00  0.00     0.157 C 
BRANCH   3   8
HETATM    8  C8  UNL     1      25.521   8.321  49.520  1.00  0.00     0.114 C 
BRANCH   8   9
HETATM    9  C9  UNL     1      26.553   9.083  50.246  1.00  0.00     0.121 A 
HETATM   10  O1  UNL     1      27.111  10.223  50.125  1.00  0.00    -0.194 OA
HETATM   11  O2  UNL     1      27.496   9.361  51.201  1.00  0.00     0.000 OA
HETATM   12  H11 UNL     1      27.811   8.681  51.891  1.00  0.00     0.000 HD
ENDBRANCH   8   9
ENDBRANCH   3   8
BRANCH   5  13
HETATM   13  C4  UNL     1      28.191   7.719  47.596  1.00  0.00    -0.002 C 
HETATM   14  C3  UNL     1      29.281   8.392  47.911  1.00  0.00    -0.027 C 
BRANCH  14  15
HETATM   15  C2  UNL     1      29.639   9.728  47.403  1.00  0.00     0.022 C 
HETATM   16  C1  UNL     1      30.332  10.572  48.450  1.00  0.00     0.009 C 
ENDBRANCH  14  15
ENDBRANCH   5  13
ENDBRANCH   1   2
BRANCH   1  17
HETATM   17  S2  UNL     1      22.797   3.750  50.556  1.00  0.00    -0.032 SA
BRANCH  17  18
HETATM   18  C11 UNL     1      22.844   2.389  51.710  1.00  0.00     0.091 A 
HETATM   19  C12 UNL     1      23.738   1.493  52.250  1.00  0.00    -0.001 A 
HETATM   20  C15 UNL     1      23.090   0.669  53.144  1.00  0.00     0.000 A 
HETATM   21  C16 UNL     1      23.638  -0.355  53.889  1.00  0.00     0.014 A 
HETATM   22  C20 UNL     1      21.777   1.075  53.143  1.00  0.00     0.045 A 
HETATM   23  C17 UNL     1      22.788  -1.040  54.718  1.00  0.00     0.001 A 
HETATM   24  C18 UNL     1      21.455  -0.687  54.769  1.00  0.00     0.002 A 
HETATM   25  C19 UNL     1      20.958   0.345  54.003  1.00  0.00     0.030 A 
HETATM   26  N1  UNL     1      21.626   2.118  52.274  1.00  0.00    -0.344 N 
HETATM   27  C21 UNL     1      20.276   2.672  52.155  1.00  0.00     0.157 C 
BRANCH  19  28
HETATM   28  C13 UNL     1      25.120   1.573  51.794  1.00  0.00     0.152 C 
BRANCH  28  29
HETATM   29  C14 UNL     1      26.078   2.021  52.782  1.00  0.00     0.143 C 
HETATM   30  O3  UNL     1      27.258   1.758  52.407  1.00  0.00    -0.650 OA
BRANCH  29  31
HETATM   31  O4  UNL     1      26.269   2.635  54.000  1.00  0.00    -0.776 OA
HETATM   32  H14 UNL     1      25.471   2.966  54.555  1.00  0.00     0.167 HD
ENDBRANCH  29  31
ENDBRANCH  28  29
ENDBRANCH  19  28
ENDBRANCH  17  18
ENDBRANCH   1  17
TORSDOF 10
ENDMDL
MODEL 2
REMARK VINA RESULT:      -8.1      2.425      8.265
REMARK  10 active torsions:
REMARK  status: ('A' for Active; 'I' for Inactive)
REMARK    1  A    between atoms: C2_2  and  C3_3 
REMARK    2  A    between atoms: C4_4  and  C5_5 
REMARK    3  A    between atoms: C7_7  and  C8_8 
REMARK    4  A    between atoms: C8_8  and  C9_9 
REMARK    5  A    between atoms: C10_12  and  S1_13 
REMARK    6  A    between atoms: S1_13  and  S2_14 
REMARK    7  A    between atoms: S2_14  and  C11_15 
REMARK    8  A    between atoms: C12_16  and  C13_17 
REMARK    9  A    between atoms: C13_17  and  C14_18 
REMARK   10  A    between atoms: C14_18  and  O4_20 
ROOT
HETATM    1  S1  UNL     1      22.390   5.579  48.927  1.00  0.00    -0.032 SA
ENDROOT
BRANCH   1   2
HETATM    2  C10 UNL     1      22.226   3.896  49.472  1.00  0.00     0.092 A 
HETATM    3  C7  UNL     1      22.037   3.393  50.678  1.00  0.00     0.009 A 
HETATM    4  C6  UNL     1      22.040   2.046  50.138  1.00  0.00     0.044 A 
HETATM    5  C5  UNL     1      21.921   0.798  50.530  1.00  0.00     0.030 C 
HETATM    6  N2  UNL     1      22.244   2.615  48.857  1.00  0.00    -0.344 N 
HETATM    7  C22 UNL     1      22.387   2.064  47.517  1.00  0.00     0.157 C 
BRANCH   3   8
HETATM    8  C8  UNL     1      21.861   3.722  52.105  1.00  0.00     0.114 C 
BRANCH   8   9
HETATM    9  C9  UNL     1      23.142   3.980  52.787  1.00  0.00     0.121 A 
HETATM   10  O1  UNL     1      23.739   4.998  53.268  1.00  0.00    -0.194 OA
HETATM   11  O2  UNL     1      24.365   3.714  53.344  1.00  0.00     0.000 OA
HETATM   12  H11 UNL     1      24.820   2.804  53.290  1.00  0.00     0.000 HD
ENDBRANCH   8   9
ENDBRANCH   3   8
BRANCH   5  13
HETATM   13  C4  UNL     1      21.713   0.384  51.910  1.00  0.00    -0.002 C 
HETATM   14  C3  UNL     1      22.648   0.021  52.766  1.00  0.00    -0.027 C 
BRANCH  14  15
HETATM   15  C2  UNL     1      22.417  -0.396  54.160  1.00  0.00     0.022 C 
HETATM   16  C1  UNL     1      21.133  -1.181  54.318  1.00  0.00     0.009 C 
ENDBRANCH  14  15
ENDBRANCH   5  13
ENDBRANCH   1   2
BRANCH   1  17
HETATM   17  S2  UNL     1      23.824   6.647  50.023  1.00  0.00    -0.032 SA
BRANCH  17  18
HETATM   18  C11 UNL     1      25.489   6.378  49.441  1.00  0.00     0.091 A 
HETATM   19  C12 UNL     1      26.343   5.347  49.123  1.00  0.00    -0.001 A 
HETATM   20  C15 UNL     1      27.550   5.856  48.696  1.00  0.00     0.000 A 
HETATM   21  C16 UNL     1      28.662   5.147  48.290  1.00  0.00     0.014 A 
HETATM   22  C20 UNL     1      27.424   7.222  48.758  1.00  0.00     0.045 A 
HETATM   23  C17 UNL     1      29.756   5.878  47.906  1.00  0.00     0.001 A 
HETATM   24  C18 UNL     1      29.701   7.256  47.942  1.00  0.00     0.002 A 
HETATM   25  C19 UNL     1      28.564   7.916  48.357  1.00  0.00     0.030 A 
HETATM   26  N1  UNL     1      26.174   7.542  49.210  1.00  0.00    -0.344 N 
HETATM   27  C21 UNL     1      25.875   8.969  49.334  1.00  0.00     0.157 C 
BRANCH  19  28
HETATM   28  C13 UNL     1      25.842   3.990  49.296  1.00  0.00     0.152 C 
BRANCH  28  29
HETATM   29  C14 UNL     1      26.332   3.288  50.464  1.00  0.00     0.143 C 
HETATM   30  O3  UNL     1      25.477   2.444  50.865  1.00  0.00    -0.650 OA
BRANCH  29  31
HETATM   31  O4  UNL     1      27.365   3.134  51.362  1.00  0.00    -0.776 OA
HETATM   32  H14 UNL     1      27.228   2.619  52.241  1.00  0.00     0.167 HD
ENDBRANCH  29  31
ENDBRANCH  28  29
ENDBRANCH  19  28
ENDBRANCH  17  18
ENDBRANCH   1  17
TORSDOF 10
ENDMDL
MODEL 3
REMARK VINA RESULT:      -8.0      2.645      9.558
REMARK  10 active torsions:
REMARK  status: ('A' for Active; 'I' for Inactive)
REMARK    1  A    between atoms: C2_2  and  C3_3 
REMARK    2  A    between atoms: C4_4  and  C5_5 
REMARK    3  A    between atoms: C7_7  and  C8_8 
REMARK    4  A    between atoms: C8_8  and  C9_9 
REMARK    5  A    between atoms: C10_12  and  S1_13 
REMARK    6  A    between atoms: S1_13  and  S2_14 
REMARK    7  A    between atoms: S2_14  and  C11_15 
REMARK    8  A    between atoms: C12_16  and  C13_17 
REMARK    9  A    between atoms: C13_17  and  C14_18 
REMARK   10  A    between atoms: C14_18  and  O4_20 
ROOT
HETATM    1  S1  UNL     1      22.349   2.686  49.298  1.00  0.00    -0.032 SA
ENDROOT
BRANCH   1   2
HETATM    2  C10 UNL     1      20.998   1.907  50.148  1.00  0.00     0.092 A 
HETATM    3  C7  UNL     1      20.977   0.887  50.986  1.00  0.00     0.009 A 
HETATM    4  C6  UNL     1      19.535   0.999  51.116  1.00  0.00     0.044 A 
HETATM    5  C5  UNL     1      18.529   0.430  51.739  1.00  0.00     0.030 C 
HETATM    6  N2  UNL     1      19.590   2.090  50.214  1.00  0.00    -0.344 N 
HETATM    7  C22 UNL     1      18.590   2.983  49.647  1.00  0.00     0.157 C 
BRANCH   3   8
HETATM    8  C8  UNL     1      21.804  -0.116  51.681  1.00  0.00     0.114 C 
BRANCH   8   9
HETATM    9  C9  UNL     1      22.809   0.498  52.568  1.00  0.00     0.121 A 
HETATM   10  O1  UNL     1      23.052   1.668  53.012  1.00  0.00    -0.194 OA
HETATM   11  O2  UNL     1      23.897   0.579  53.397  1.00  0.00     0.000 OA
HETATM   12  H11 UNL     1      24.530  -0.201  53.568  1.00  0.00     0.000 HD
ENDBRANCH   8   9
ENDBRANCH   3   8
BRANCH   5  13
HETATM   13  C4  UNL     1      18.654  -0.700  52.647  1.00  0.00    -0.002 C 
HETATM   14  C3  UNL     1      17.705  -1.563  52.956  1.00  0.00    -0.027 C 
BRANCH  14  15
HETATM   15  C2  UNL     1      17.851  -2.702  53.880  1.00  0.00     0.022 C 
HETATM   16  C1  UNL     1      17.014  -3.890  53.461  1.00  0.00     0.009 C 
ENDBRANCH  14  15
ENDBRANCH   5  13
ENDBRANCH   1   2
BRANCH   1  17
HETATM   17  S2  UNL     1      23.332   4.113  50.482  1.00  0.00    -0.032 SA
BRANCH  17  18
HETATM   18  C11 UNL     1      24.885   4.648  49.782  1.00  0.00     0.091 A 
HETATM   19  C12 UNL     1      26.131   4.152  49.474  1.00  0.00    -0.001 A 
HETATM   20  C15 UNL     1      26.900   5.146  48.907  1.00  0.00     0.000 A 
HETATM   21  C16 UNL     1      28.203   5.046  48.465  1.00  0.00     0.014 A 
HETATM   22  C20 UNL     1      26.103   6.264  48.874  1.00  0.00     0.045 A 
HETATM   23  C17 UNL     1      28.764   6.178  47.933  1.00  0.00     0.001 A 
HETATM   24  C18 UNL     1      28.022   7.339  47.867  1.00  0.00     0.002 A 
HETATM   25  C19 UNL     1      26.723   7.385  48.324  1.00  0.00     0.030 A 
HETATM   26  N1  UNL     1      24.880   5.964  49.404  1.00  0.00    -0.344 N 
HETATM   27  C21 UNL     1      23.905   7.056  49.441  1.00  0.00     0.157 C 
BRANCH  19  28
HETATM   28  C13 UNL     1      26.390   2.755  49.795  1.00  0.00     0.152 C 
BRANCH  28  29
HETATM   29  C14 UNL     1      26.787   2.491  51.162  1.00  0.00     0.143 C 
HETATM   30  O3  UNL     1      26.109   1.538  51.645  1.00  0.00    -0.650 OA
BRANCH  29  31
HETATM   31  O4  UNL     1      27.616   2.841  52.204  1.00  0.00    -0.776 OA
HETATM   32  H14 UNL     1      28.541   3.252  52.027  1.00  0.00     0.167 HD
ENDBRANCH  29  31
ENDBRANCH  28  29
ENDBRANCH  19  28
ENDBRANCH  17  18
ENDBRANCH   1  17
TORSDOF 10
ENDMDL
MODEL 4
REMARK VINA RESULT:      -8.0      2.396      3.165
REMARK  10 active torsions:
REMARK  status: ('A' for Active; 'I' for Inactive)
REMARK    1  A    between atoms: C2_2  and  C3_3 
REMARK    2  A    between atoms: C4_4  and  C5_5 
REMARK    3  A    between atoms: C7_7  and  C8_8 
REMARK    4  A    between atoms: C8_8  and  C9_9 
REMARK    5  A    between atoms: C10_12  and  S1_13 
REMARK    6  A    between atoms: S1_13  and  S2_14 
REMARK    7  A    between atoms: S2_14  and  C11_15 
REMARK    8  A    between atoms: C12_16  and  C13_17 
REMARK    9  A    between atoms: C13_17  and  C14_18 
REMARK   10  A    between atoms: C14_18  and  O4_20 
ROOT
HETATM    1  S1  UNL     1      26.809   3.907  49.328  1.00  0.00    -0.032 SA
ENDROOT
BRANCH   1   2
HETATM    2  C10 UNL     1      27.413   5.412  48.602  1.00  0.00     0.092 A 
HETATM    3  C7  UNL     1      28.609   5.732  48.145  1.00  0.00     0.009 A 
HETATM    4  C6  UNL     1      28.140   7.059  47.791  1.00  0.00     0.044 A 
HETATM    5  C5  UNL     1      28.575   8.177  47.257  1.00  0.00     0.030 C 
HETATM    6  N2  UNL     1      26.868   6.686  48.290  1.00  0.00    -0.344 N 
HETATM    7  C22 UNL     1      25.584   7.366  48.395  1.00  0.00     0.157 C 
BRANCH   3   8
HETATM    8  C8  UNL     1      29.985   5.247  47.932  1.00  0.00     0.114 C 
BRANCH   8   9
HETATM    9  C9  UNL     1      30.872   5.548  49.071  1.00  0.00     0.121 A 
HETATM   10  O1  UNL     1      31.975   6.164  49.239  1.00  0.00    -0.194 OA
HETATM   11  O2  UNL     1      31.325   5.562  50.364  1.00  0.00     0.000 OA
HETATM   12  H11 UNL     1      30.884   5.038  51.118  1.00  0.00     0.000 HD
ENDBRANCH   8   9
ENDBRANCH   3   8
BRANCH   5  13
HETATM   13  C4  UNL     1      29.937   8.392  46.791  1.00  0.00    -0.002 C 
HETATM   14  C3  UNL     1      30.419   8.061  45.609  1.00  0.00    -0.027 C 
BRANCH  14  15
HETATM   15  C2  UNL     1      31.803   8.286  45.155  1.00  0.00     0.022 C 
HETATM   16  C1  UNL     1      32.182   7.386  44.000  1.00  0.00     0.009 C 
ENDBRANCH  14  15
ENDBRANCH   5  13
ENDBRANCH   1   2
BRANCH   1  17
HETATM   17  S2  UNL     1      25.202   4.229  50.637  1.00  0.00    -0.032 SA
BRANCH  17  18
HETATM   18  C11 UNL     1      24.772   2.779  51.584  1.00  0.00     0.091 A 
HETATM   19  C12 UNL     1      25.362   1.665  52.136  1.00  0.00    -0.001 A 
HETATM   20  C15 UNL     1      24.412   0.910  52.789  1.00  0.00     0.000 A 
HETATM   21  C16 UNL     1      24.606  -0.276  53.467  1.00  0.00     0.014 A 
HETATM   22  C20 UNL     1      23.224   1.580  52.626  1.00  0.00     0.045 A 
HETATM   23  C17 UNL     1      23.501  -0.848  54.041  1.00  0.00     0.001 A 
HETATM   24  C18 UNL     1      22.273  -0.231  53.918  1.00  0.00     0.002 A 
HETATM   25  C19 UNL     1      22.134   0.954  53.230  1.00  0.00     0.030 A 
HETATM   26  N1  UNL     1      23.440   2.714  51.895  1.00  0.00    -0.344 N 
HETATM   27  C21 UNL     1      22.266   3.548  51.632  1.00  0.00     0.157 C 
BRANCH  19  28
HETATM   28  C13 UNL     1      26.795   1.500  51.932  1.00  0.00     0.152 C 
BRANCH  28  29
HETATM   29  C14 UNL     1      27.646   2.232  52.846  1.00  0.00     0.143 C 
HETATM   30  O3  UNL     1      27.162   2.211  54.016  1.00  0.00    -0.650 OA
BRANCH  29  31
HETATM   31  O4  UNL     1      28.798   2.970  53.001  1.00  0.00    -0.776 OA
HETATM   32  H14 UNL     1      28.759   3.956  53.285  1.00  0.00     0.167 HD
ENDBRANCH  29  31
ENDBRANCH  28  29
ENDBRANCH  19  28
ENDBRANCH  17  18
ENDBRANCH   1  17
TORSDOF 10
ENDMDL
MODEL 5
REMARK VINA RESULT:      -7.9      2.180      2.805
REMARK  10 active torsions:
REMARK  status: ('A' for Active; 'I' for Inactive)
REMARK    1  A    between atoms: C2_2  and  C3_3 
REMARK    2  A    between atoms: C4_4  and  C5_5 
REMARK    3  A    between atoms: C7_7  and  C8_8 
REMARK    4  A    between atoms: C8_8  and  C9_9 
REMARK    5  A    between atoms: C10_12  and  S1_13 
REMARK    6  A    between atoms: S1_13  and  S2_14 
REMARK    7  A    between atoms: S2_14  and  C11_15 
REMARK    8  A    between atoms: C12_16  and  C13_17 
REMARK    9  A    between atoms: C13_17  and  C14_18 
REMARK   10  A    between atoms: C14_18  and  O4_20 
ROOT
HETATM    1  S1  UNL     1      23.332   3.937  49.859  1.00  0.00    -0.032 SA
ENDROOT
BRANCH   1   2
HETATM    2  C10 UNL     1      24.264   5.265  49.136  1.00  0.00     0.092 A 
HETATM    3  C7  UNL     1      25.552   5.369  48.866  1.00  0.00     0.009 A 
HETATM    4  C6  UNL     1      25.353   6.708  48.341  1.00  0.00     0.044 A 
HETATM    5  C5  UNL     1      26.032   7.697  47.807  1.00  0.00     0.030 C 
HETATM    6  N2  UNL     1      23.976   6.566  48.644  1.00  0.00    -0.344 N 
HETATM    7  C22 UNL     1      22.812   7.425  48.480  1.00  0.00     0.157 C 
BRANCH   3   8
HETATM    8  C8  UNL     1      26.854   4.679  48.924  1.00  0.00     0.114 C 
BRANCH   8   9
HETATM    9  C9  UNL     1      26.937   3.724  50.044  1.00  0.00     0.121 A 
HETATM   10  O1  UNL     1      26.731   2.476  50.205  1.00  0.00    -0.194 OA
HETATM   11  O2  UNL     1      27.154   3.270  51.318  1.00  0.00     0.000 OA
HETATM   12  H11 UNL     1      27.359   3.885  52.104  1.00  0.00     0.000 HD
ENDBRANCH   8   9
ENDBRANCH   3   8
BRANCH   5  13
HETATM   13  C4  UNL     1      27.466   7.674  47.562  1.00  0.00    -0.002 C 
HETATM   14  C3  UNL     1      28.073   8.003  46.438  1.00  0.00    -0.027 C 
BRANCH  14  15
HETATM   15  C2  UNL     1      29.528   7.973  46.209  1.00  0.00     0.022 C 
HETATM   16  C1  UNL     1      30.301   8.611  47.342  1.00  0.00     0.009 C 
ENDBRANCH  14  15
ENDBRANCH   5  13
ENDBRANCH   1   2
BRANCH   1  17
HETATM   17  S2  UNL     1      23.648   3.759  51.925  1.00  0.00    -0.032 SA
BRANCH  17  18
HETATM   18  C11 UNL     1      23.175   2.163  52.568  1.00  0.00     0.091 A 
HETATM   19  C12 UNL     1      23.742   0.973  52.963  1.00  0.00    -0.001 A 
HETATM   20  C15 UNL     1      22.759   0.110  53.397  1.00  0.00     0.000 A 
HETATM   21  C16 UNL     1      22.923  -1.176  53.871  1.00  0.00     0.014 A 
HETATM   22  C20 UNL     1      21.574   0.791  53.260  1.00  0.00     0.045 A 
HETATM   23  C17 UNL     1      21.787  -1.846  54.247  1.00  0.00     0.001 A 
HETATM   24  C18 UNL     1      20.561  -1.223  54.137  1.00  0.00     0.002 A 
HETATM   25  C19 UNL     1      20.453   0.064  53.657  1.00  0.00     0.030 A 
HETATM   26  N1  UNL     1      21.824   2.037  52.757  1.00  0.00    -0.344 N 
HETATM   27  C21 UNL     1      20.658   2.898  52.551  1.00  0.00     0.157 C 
BRANCH  19  28
HETATM   28  C13 UNL     1      25.189   0.853  52.847  1.00  0.00     0.152 C 
BRANCH  28  29
HETATM   29  C14 UNL     1      25.938   1.139  54.052  1.00  0.00     0.143 C 
HETATM   30  O3  UNL     1      26.388   2.322  54.026  1.00  0.00    -0.650 OA
BRANCH  29  31
HETATM   31  O4  UNL     1      26.391   0.662  55.262  1.00  0.00    -0.776 OA
HETATM   32  H14 UNL     1      25.813   0.028  55.829  1.00  0.00     0.167 HD
ENDBRANCH  29  31
ENDBRANCH  28  29
ENDBRANCH  19  28
ENDBRANCH  17  18
ENDBRANCH   1  17
TORSDOF 10
ENDMDL
MODEL 6
REMARK VINA RESULT:      -7.8      5.739     10.429
REMARK  10 active torsions:
REMARK  status: ('A' for Active; 'I' for Inactive)
REMARK    1  A    between atoms: C2_2  and  C3_3 
REMARK    2  A    between atoms: C4_4  and  C5_5 
REMARK    3  A    between atoms: C7_7  and  C8_8 
REMARK    4  A    between atoms: C8_8  and  C9_9 
REMARK    5  A    between atoms: C10_12  and  S1_13 
REMARK    6  A    between atoms: S1_13  and  S2_14 
REMARK    7  A    between atoms: S2_14  and  C11_15 
REMARK    8  A    between atoms: C12_16  and  C13_17 
REMARK    9  A    between atoms: C13_17  and  C14_18 
REMARK   10  A    between atoms: C14_18  and  O4_20 
ROOT
HETATM    1  S1  UNL     1      19.905   2.590  51.807  1.00  0.00    -0.032 SA
ENDROOT
BRANCH   1   2
HETATM    2  C10 UNL     1      18.199   2.132  51.624  1.00  0.00     0.092 A 
HETATM    3  C7  UNL     1      17.629   0.946  51.518  1.00  0.00     0.009 A 
HETATM    4  C6  UNL     1      16.319   1.563  51.417  1.00  0.00     0.044 A 
HETATM    5  C5  UNL     1      15.054   1.236  51.281  1.00  0.00     0.030 C 
HETATM    6  N2  UNL     1      16.959   2.821  51.531  1.00  0.00    -0.344 N 
HETATM    7  C22 UNL     1      16.486   4.198  51.552  1.00  0.00     0.157 C 
BRANCH   3   8
HETATM    8  C8  UNL     1      17.874  -0.508  51.481  1.00  0.00     0.114 C 
BRANCH   8   9
HETATM    9  C9  UNL     1      17.857  -1.117  52.824  1.00  0.00     0.121 A 
HETATM   10  O1  UNL     1      18.062  -2.277  53.309  1.00  0.00    -0.194 OA
HETATM   11  O2  UNL     1      17.718  -1.198  54.184  1.00  0.00     0.000 OA
HETATM   12  H11 UNL     1      17.377  -0.430  54.759  1.00  0.00     0.000 HD
ENDBRANCH   8   9
ENDBRANCH   3   8
BRANCH   5  13
HETATM   13  C4  UNL     1      14.563  -0.130  51.176  1.00  0.00    -0.002 C 
HETATM   14  C3  UNL     1      14.278  -0.937  52.180  1.00  0.00    -0.027 C 
BRANCH  14  15
HETATM   15  C2  UNL     1      13.783  -2.319  52.054  1.00  0.00     0.022 C 
HETATM   16  C1  UNL     1      14.810  -3.339  52.493  1.00  0.00     0.009 C 
ENDBRANCH  14  15
ENDBRANCH   5  13
ENDBRANCH   1   2
BRANCH   1  17
HETATM   17  S2  UNL     1      21.215   1.170  50.988  1.00  0.00    -0.032 SA
BRANCH  17  18
HETATM   18  C11 UNL     1      22.674   0.912  51.983  1.00  0.00     0.091 A 
HETATM   19  C12 UNL     1      23.186   0.017  52.894  1.00  0.00    -0.001 A 
HETATM   20  C15 UNL     1      24.443   0.422  53.289  1.00  0.00     0.000 A 
HETATM   21  C16 UNL     1      25.281  -0.205  54.188  1.00  0.00     0.014 A 
HETATM   22  C20 UNL     1      24.694   1.585  52.604  1.00  0.00     0.045 A 
HETATM   23  C17 UNL     1      26.493   0.390  54.423  1.00  0.00     0.001 A 
HETATM   24  C18 UNL     1      26.814   1.562  53.769  1.00  0.00     0.002 A 
HETATM   25  C19 UNL     1      25.940   2.148  52.880  1.00  0.00     0.030 A 
HETATM   26  N1  UNL     1      23.622   1.885  51.811  1.00  0.00    -0.344 N 
HETATM   27  C21 UNL     1      23.731   3.104  51.007  1.00  0.00     0.157 C 
BRANCH  19  28
HETATM   28  C13 UNL     1      22.348  -1.118  53.256  1.00  0.00     0.152 C 
BRANCH  28  29
HETATM   29  C14 UNL     1      21.337  -0.855  54.258  1.00  0.00     0.143 C 
HETATM   30  O3  UNL     1      21.137  -1.883  54.968  1.00  0.00    -0.650 OA
BRANCH  29  31
HETATM   31  O4  UNL     1      20.464   0.066  54.793  1.00  0.00    -0.776 OA
HETATM   32  H14 UNL     1      19.449  -0.042  54.681  1.00  0.00     0.167 HD
ENDBRANCH  29  31
ENDBRANCH  28  29
ENDBRANCH  19  28
ENDBRANCH  17  18
ENDBRANCH   1  17
TORSDOF 10
ENDMDL
MODEL 7
REMARK VINA RESULT:      -7.7      2.102      2.349
REMARK  10 active torsions:
REMARK  status: ('A' for Active; 'I' for Inactive)
REMARK    1  A    between atoms: C2_2  and  C3_3 
REMARK    2  A    between atoms: C4_4  and  C5_5 
REMARK    3  A    between atoms: C7_7  and  C8_8 
REMARK    4  A    between atoms: C8_8  and  C9_9 
REMARK    5  A    between atoms: C10_12  and  S1_13 
REMARK    6  A    between atoms: S1_13  and  S2_14 
REMARK    7  A    between atoms: S2_14  and  C11_15 
REMARK    8  A    between atoms: C12_16  and  C13_17 
REMARK    9  A    between atoms: C13_17  and  C14_18 
REMARK   10  A    between atoms: C14_18  and  O4_20 
ROOT
HETATM    1  S1  UNL     1      25.668   3.597  49.918  1.00  0.00    -0.032 SA
ENDROOT
BRANCH   1   2
HETATM    2  C10 UNL     1      26.152   5.095  49.095  1.00  0.00     0.092 A 
HETATM    3  C7  UNL     1      25.457   6.174  48.784  1.00  0.00     0.009 A 
HETATM    4  C6  UNL     1      26.632   6.780  48.183  1.00  0.00     0.044 A 
HETATM    5  C5  UNL     1      27.001   7.883  47.573  1.00  0.00     0.030 C 
HETATM    6  N2  UNL     1      27.350   5.609  48.529  1.00  0.00    -0.344 N 
HETATM    7  C22 UNL     1      28.732   5.184  48.359  1.00  0.00     0.157 C 
BRANCH   3   8
HETATM    8  C8  UNL     1      24.129   6.811  48.852  1.00  0.00     0.114 C 
BRANCH   8   9
HETATM    9  C9  UNL     1      23.848   7.389  50.179  1.00  0.00     0.121 A 
HETATM   10  O1  UNL     1      22.852   7.947  50.746  1.00  0.00    -0.194 OA
HETATM   11  O2  UNL     1      24.073   7.778  51.473  1.00  0.00     0.000 OA
HETATM   12  H11 UNL     1      24.986   7.729  51.922  1.00  0.00     0.000 HD
ENDBRANCH   8   9
ENDBRANCH   3   8
BRANCH   5  13
HETATM   13  C4  UNL     1      26.118   9.006  47.295  1.00  0.00    -0.002 C 
HETATM   14  C3  UNL     1      26.485  10.206  46.890  1.00  0.00    -0.027 C 
BRANCH  14  15
HETATM   15  C2  UNL     1      25.575  11.332  46.614  1.00  0.00     0.022 C 
HETATM   16  C1  UNL     1      25.941  12.066  45.343  1.00  0.00     0.009 C 
ENDBRANCH  14  15
ENDBRANCH   5  13
ENDBRANCH   1   2
BRANCH   1  17
HETATM   17  S2  UNL     1      24.243   3.927  51.423  1.00  0.00    -0.032 SA
BRANCH  17  18
HETATM   18  C11 UNL     1      23.757   2.430  52.263  1.00  0.00     0.091 A 
HETATM   19  C12 UNL     1      24.314   1.287  52.791  1.00  0.00    -0.001 A 
HETATM   20  C15 UNL     1      23.326   0.500  53.344  1.00  0.00     0.000 A 
HETATM   21  C16 UNL     1      23.480  -0.720  53.968  1.00  0.00     0.014 A 
HETATM   22  C20 UNL     1      22.150   1.181  53.144  1.00  0.00     0.045 A 
HETATM   23  C17 UNL     1      22.342  -1.320  54.442  1.00  0.00     0.001 A 
HETATM   24  C18 UNL     1      21.123  -0.694  54.278  1.00  0.00     0.002 A 
HETATM   25  C19 UNL     1      21.025   0.527  53.646  1.00  0.00     0.030 A 
HETATM   26  N1  UNL     1      22.409   2.351  52.489  1.00  0.00    -0.344 N 
HETATM   27  C21 UNL     1      21.252   3.201  52.199  1.00  0.00     0.157 C 
BRANCH  19  28
HETATM   28  C13 UNL     1      25.756   1.129  52.666  1.00  0.00     0.152 C 
BRANCH  28  29
HETATM   29  C14 UNL     1      26.547   1.771  53.696  1.00  0.00     0.143 C 
HETATM   30  O3  UNL     1      26.455   1.135  54.786  1.00  0.00    -0.650 OA
BRANCH  29  31
HETATM   31  O4  UNL     1      27.388   2.814  54.014  1.00  0.00    -0.776 OA
HETATM   32  H14 UNL     1      27.639   3.009  54.991  1.00  0.00     0.167 HD
ENDBRANCH  29  31
ENDBRANCH  28  29
ENDBRANCH  19  28
ENDBRANCH  17  18
ENDBRANCH   1  17
TORSDOF 10
ENDMDL
MODEL 8
REMARK VINA RESULT:      -7.6      2.125      9.453
REMARK  10 active torsions:
REMARK  status: ('A' for Active; 'I' for Inactive)
REMARK    1  A    between atoms: C2_2  and  C3_3 
REMARK    2  A    between atoms: C4_4  and  C5_5 
REMARK    3  A    between atoms: C7_7  and  C8_8 
REMARK    4  A    between atoms: C8_8  and  C9_9 
REMARK    5  A    between atoms: C10_12  and  S1_13 
REMARK    6  A    between atoms: S1_13  and  S2_14 
REMARK    7  A    between atoms: S2_14  and  C11_15 
REMARK    8  A    between atoms: C12_16  and  C13_17 
REMARK    9  A    between atoms: C13_17  and  C14_18 
REMARK   10  A    between atoms: C14_18  and  O4_20 
ROOT
HETATM    1  S1  UNL     1      25.552   4.477  50.186  1.00  0.00    -0.032 SA
ENDROOT
BRANCH   1   2
HETATM    2  C10 UNL     1      24.331   3.526  51.060  1.00  0.00     0.092 A 
HETATM    3  C7  UNL     1      24.446   2.426  51.780  1.00  0.00     0.009 A 
HETATM    4  C6  UNL     1      23.019   2.429  52.047  1.00  0.00     0.044 A 
HETATM    5  C5  UNL     1      22.109   1.733  52.688  1.00  0.00     0.030 C 
HETATM    6  N2  UNL     1      22.928   3.608  51.267  1.00  0.00    -0.344 N 
HETATM    7  C22 UNL     1      21.831   4.487  50.890  1.00  0.00     0.157 C 
BRANCH   3   8
HETATM    8  C8  UNL     1      25.390   1.414  52.288  1.00  0.00     0.114 C 
BRANCH   8   9
HETATM    9  C9  UNL     1      26.260   1.938  53.357  1.00  0.00     0.121 A 
HETATM   10  O1  UNL     1      26.455   1.684  54.591  1.00  0.00    -0.194 OA
HETATM   11  O2  UNL     1      27.209   2.722  53.957  1.00  0.00     0.000 OA
HETATM   12  H11 UNL     1      27.653   3.516  53.497  1.00  0.00     0.000 HD
ENDBRANCH   8   9
ENDBRANCH   3   8
BRANCH   5  13
HETATM   13  C4  UNL     1      22.382   0.526  53.453  1.00  0.00    -0.002 C 
HETATM   14  C3  UNL     1      21.542  -0.469  53.669  1.00  0.00    -0.027 C 
BRANCH  14  15
HETATM   15  C2  UNL     1      21.837  -1.684  54.448  1.00  0.00     0.022 C 
HETATM   16  C1  UNL     1      22.949  -1.467  55.451  1.00  0.00     0.009 C 
ENDBRANCH  14  15
ENDBRANCH   5  13
ENDBRANCH   1   2
BRANCH   1  17
HETATM   17  S2  UNL     1      25.102   6.526  50.147  1.00  0.00    -0.032 SA
BRANCH  17  18
HETATM   18  C11 UNL     1      25.546   7.308  48.605  1.00  0.00     0.091 A 
HETATM   19  C12 UNL     1      26.589   8.001  48.034  1.00  0.00    -0.001 A 
HETATM   20  C15 UNL     1      26.277   8.323  46.731  1.00  0.00     0.000 A 
HETATM   21  C16 UNL     1      27.059   9.014  45.828  1.00  0.00     0.014 A 
HETATM   22  C20 UNL     1      25.020   7.815  46.510  1.00  0.00     0.045 A 
HETATM   23  C17 UNL     1      26.531   9.215  44.580  1.00  0.00     0.001 A 
HETATM   24  C18 UNL     1      25.272   8.732  44.287  1.00  0.00     0.002 A 
HETATM   25  C19 UNL     1      24.532   8.048  45.225  1.00  0.00     0.030 A 
HETATM   26  N1  UNL     1      24.574   7.199  47.646  1.00  0.00    -0.344 N 
HETATM   27  C21 UNL     1      23.241   6.599  47.577  1.00  0.00     0.157 C 
BRANCH  19  28
HETATM   28  C13 UNL     1      27.755   8.257  48.869  1.00  0.00     0.152 C 
BRANCH  28  29
HETATM   29  C14 UNL     1      27.571   9.241  49.914  1.00  0.00     0.143 C 
HETATM   30  O3  UNL     1      27.160  10.335  49.427  1.00  0.00    -0.650 OA
BRANCH  29  31
HETATM   31  O4  UNL     1      27.652   9.513  51.262  1.00  0.00    -0.776 OA
HETATM   32  H14 UNL     1      27.588  10.477  51.611  1.00  0.00     0.167 HD
ENDBRANCH  29  31
ENDBRANCH  28  29
ENDBRANCH  19  28
ENDBRANCH  17  18
ENDBRANCH   1  17
TORSDOF 10
ENDMDL
MODEL 9
REMARK VINA RESULT:      -7.6      2.911      8.606
REMARK  10 active torsions:
REMARK  status: ('A' for Active; 'I' for Inactive)
REMARK    1  A    between atoms: C2_2  and  C3_3 
REMARK    2  A    between atoms: C4_4  and  C5_5 
REMARK    3  A    between atoms: C7_7  and  C8_8 
REMARK    4  A    between atoms: C8_8  and  C9_9 
REMARK    5  A    between atoms: C10_12  and  S1_13 
REMARK    6  A    between atoms: S1_13  and  S2_14 
REMARK    7  A    between atoms: S2_14  and  C11_15 
REMARK    8  A    between atoms: C12_16  and  C13_17 
REMARK    9  A    between atoms: C13_17  and  C14_18 
REMARK   10  A    between atoms: C14_18  and  O4_20 
ROOT
HETATM    1  S1  UNL     1      21.638   5.462  48.808  1.00  0.00    -0.032 SA
ENDROOT
BRANCH   1   2
HETATM    2  C10 UNL     1      21.591   3.780  49.381  1.00  0.00     0.092 A 
HETATM    3  C7  UNL     1      21.204   3.271  50.535  1.00  0.00     0.009 A 
HETATM    4  C6  UNL     1      21.519   1.932  50.072  1.00  0.00     0.044 A 
HETATM    5  C5  UNL     1      21.490   0.686  50.486  1.00  0.00     0.030 C 
HETATM    6  N2  UNL     1      21.929   2.508  48.845  1.00  0.00    -0.344 N 
HETATM    7  C22 UNL     1      22.451   1.966  47.598  1.00  0.00     0.157 C 
BRANCH   3   8
HETATM    8  C8  UNL     1      20.662   3.589  51.869  1.00  0.00     0.114 C 
BRANCH   8   9
HETATM    9  C9  UNL     1      19.191   3.490  51.919  1.00  0.00     0.121 A 
HETATM   10  O1  UNL     1      18.335   2.548  51.979  1.00  0.00    -0.194 OA
HETATM   11  O2  UNL     1      17.887   3.907  51.944  1.00  0.00     0.000 OA
HETATM   12  H11 UNL     1      17.606   4.878  51.818  1.00  0.00     0.000 HD
ENDBRANCH   8   9
ENDBRANCH   3   8
BRANCH   5  13
HETATM   13  C4  UNL     1      21.031   0.264  51.800  1.00  0.00    -0.002 C 
HETATM   14  C3  UNL     1      21.788   0.040  52.857  1.00  0.00    -0.027 C 
BRANCH  14  15
HETATM   15  C2  UNL     1      21.305  -0.388  54.182  1.00  0.00     0.022 C 
HETATM   16  C1  UNL     1      22.360  -1.140  54.962  1.00  0.00     0.009 C 
ENDBRANCH  14  15
ENDBRANCH   5  13
ENDBRANCH   1   2
BRANCH   1  17
HETATM   17  S2  UNL     1      23.039   6.629  49.846  1.00  0.00    -0.032 SA
BRANCH  17  18
HETATM   18  C11 UNL     1      24.725   6.271  49.383  1.00  0.00     0.091 A 
HETATM   19  C12 UNL     1      25.575   5.198  49.242  1.00  0.00    -0.001 A 
HETATM   20  C15 UNL     1      26.809   5.636  48.812  1.00  0.00     0.000 A 
HETATM   21  C16 UNL     1      27.927   4.870  48.554  1.00  0.00     0.014 A 
HETATM   22  C20 UNL     1      26.702   7.000  48.692  1.00  0.00     0.045 A 
HETATM   23  C17 UNL     1      29.049   5.534  48.132  1.00  0.00     0.001 A 
HETATM   24  C18 UNL     1      29.014   6.906  47.988  1.00  0.00     0.002 A 
HETATM   25  C19 UNL     1      27.871   7.625  48.259  1.00  0.00     0.030 A 
HETATM   26  N1  UNL     1      25.438   7.388  49.038  1.00  0.00    -0.344 N 
HETATM   27  C21 UNL     1      25.156   8.822  48.962  1.00  0.00     0.157 C 
BRANCH  19  28
HETATM   28  C13 UNL     1      25.046   3.880  49.565  1.00  0.00     0.152 C 
BRANCH  28  29
HETATM   29  C14 UNL     1      24.931   3.581  50.976  1.00  0.00     0.143 C 
HETATM   30  O3  UNL     1      25.358   2.414  51.219  1.00  0.00    -0.650 OA
BRANCH  29  31
HETATM   31  O4  UNL     1      24.545   4.034  52.218  1.00  0.00    -0.776 OA
HETATM   32  H14 UNL     1      24.920   3.609  53.075  1.00  0.00     0.167 HD
ENDBRANCH  29  31
ENDBRANCH  28  29
ENDBRANCH  19  28
ENDBRANCH  17  18
ENDBRANCH   1  17
TORSDOF 10
ENDMDL
