MODEL 1
REMARK VINA RESULT:      -7.5      0.000      0.000
REMARK  5 active torsions:
REMARK  status: ('A' for Active; 'I' for Inactive)
REMARK    1  A    between atoms: N1_1  and  C1_2 
REMARK    2  A    between atoms: C1_2  and  C2_3 
REMARK    3  A    between atoms: C1_2  and  S1_10 
REMARK    4  A    between atoms: C2_3  and  C3_4 
REMARK    5  A    between atoms: S1_10  and  C8_13 
ROOT
HETATM    1  C1  UNL     1      25.680   0.306  54.246  1.00  0.00     0.347 C 
ENDROOT
BRANCH   1   2
HETATM    2  N1  UNL     1      26.674  -0.515  54.940  1.00  0.00     0.098 N 
HETATM    3  H1  UNL     1      27.028  -1.230  54.267  1.00  0.00     0.314 HD
HETATM    4  H2  UNL     1      26.257  -0.880  55.803  1.00  0.00     0.314 HD
ENDBRANCH   1   2
BRANCH   1   5
HETATM    5  C2  UNL     1      24.727  -0.553  53.451  1.00  0.00     0.091 C 
BRANCH   5   6
HETATM    6  C3  UNL     1      23.324  -0.398  53.854  1.00  0.00    -0.043 C 
HETATM    7  C4  UNL     1      22.379   0.454  53.491  1.00  0.00    -0.000 C 
HETATM    8  C5  UNL     1      21.185  -0.118  53.468  1.00  0.00     0.022 C 
HETATM    9 BR1  UNL     1      19.620   0.054  52.394  1.00  0.00    -0.050 Br
HETATM   10  C6  UNL     1      21.299  -1.062  54.599  1.00  0.00     0.020 C 
HETATM   11  C7  UNL     1      22.611  -1.233  54.836  1.00  0.00     0.009 C 
ENDBRANCH   5   6
ENDBRANCH   1   5
BRANCH   1  12
HETATM   12  S1  UNL     1      26.491   1.411  53.113  1.00  0.00     0.198 S 
HETATM   13  O1  UNL     1      27.427   0.606  52.261  1.00  0.00    -0.221 OA
HETATM   14  O2  UNL     1      27.319   2.391  53.914  1.00  0.00    -0.221 OA
BRANCH  12  15
HETATM   15  C8  UNL     1      25.274   2.207  52.181  1.00  0.00     0.122 C 
HETATM   16  C9  UNL     1      25.194   3.017  51.138  1.00  0.00    -0.023 C 
HETATM   17  C10 UNL     1      23.936   3.514  50.595  1.00  0.00     0.024 C 
HETATM   18  C14 UNL     1      26.438   3.414  50.525  1.00  0.00     0.036 C 
HETATM   19  C11 UNL     1      24.040   3.972  49.390  1.00  0.00    -0.023 C 
HETATM   20  C12 UNL     1      25.093   4.668  49.010  1.00  0.00     0.036 C 
HETATM   21  C13 UNL     1      26.425   4.232  49.468  1.00  0.00     0.035 C 
HETATM   22 CL1  UNL     1      27.841   4.802  48.616  1.00  0.00    -0.084 Cl
ENDBRANCH  12  15
ENDBRANCH   1  12
TORSDOF 5
ENDMDL
MODEL 2
REMARK VINA RESULT:      -7.5      4.386      6.685
REMARK  5 active torsions:
REMARK  status: ('A' for Active; 'I' for Inactive)
REMARK    1  A    between atoms: N1_1  and  C1_2 
REMARK    2  A    between atoms: C1_2  and  C2_3 
REMARK    3  A    between atoms: C1_2  and  S1_10 
REMARK    4  A    between atoms: C2_3  and  C3_4 
REMARK    5  A    between atoms: S1_10  and  C8_13 
ROOT
HETATM    1  C1  UNL     1      25.254   2.921  51.880  1.00  0.00     0.347 C 
ENDROOT
BRANCH   1   2
HETATM    2  N1  UNL     1      25.431   4.012  50.921  1.00  0.00     0.098 N 
HETATM    3  H1  UNL     1      25.190   4.906  51.403  1.00  0.00     0.314 HD
HETATM    4  H2  UNL     1      24.890   3.801  50.076  1.00  0.00     0.314 HD
ENDBRANCH   1   2
BRANCH   1   5
HETATM    5  C2  UNL     1      26.147   1.752  51.543  1.00  0.00     0.091 C 
BRANCH   5   6
HETATM    6  C3  UNL     1      27.071   1.390  52.625  1.00  0.00    -0.043 C 
HETATM    7  C4  UNL     1      27.341   0.241  53.224  1.00  0.00    -0.000 C 
HETATM    8  C5  UNL     1      28.618   0.151  53.560  1.00  0.00     0.022 C 
HETATM    9 BR1  UNL     1      29.900  -1.256  53.649  1.00  0.00    -0.050 Br
HETATM   10  C6  UNL     1      28.921   1.554  53.910  1.00  0.00     0.020 C 
HETATM   11  C7  UNL     1      27.972   2.314  53.336  1.00  0.00     0.009 C 
ENDBRANCH   5   6
ENDBRANCH   1   5
BRANCH   1  12
HETATM   12  S1  UNL     1      23.571   2.348  51.844  1.00  0.00     0.198 S 
HETATM   13  O1  UNL     1      23.247   1.934  50.439  1.00  0.00    -0.221 OA
HETATM   14  O2  UNL     1      22.666   3.504  52.208  1.00  0.00    -0.221 OA
BRANCH  12  15
HETATM   15  C8  UNL     1      23.428   1.040  52.963  1.00  0.00     0.122 C 
HETATM   16  C9  UNL     1      22.501   0.200  53.395  1.00  0.00    -0.023 C 
HETATM   17  C10 UNL     1      22.747  -0.828  54.398  1.00  0.00     0.024 C 
HETATM   18  C14 UNL     1      21.184   0.333  52.823  1.00  0.00     0.036 C 
HETATM   19  C11 UNL     1      21.851  -1.760  54.411  1.00  0.00    -0.023 C 
HETATM   20  C12 UNL     1      20.572  -1.484  54.237  1.00  0.00     0.036 C 
HETATM   21  C13 UNL     1      20.204  -0.485  53.217  1.00  0.00     0.035 C 
HETATM   22 CL1  UNL     1      18.561  -0.452  52.621  1.00  0.00    -0.084 Cl
ENDBRANCH  12  15
ENDBRANCH   1  12
TORSDOF 5
ENDMDL
MODEL 3
REMARK VINA RESULT:      -7.4      2.716      5.704
REMARK  5 active torsions:
REMARK  status: ('A' for Active; 'I' for Inactive)
REMARK    1  A    between atoms: N1_1  and  C1_2 
REMARK    2  A    between atoms: C1_2  and  C2_3 
REMARK    3  A    between atoms: C1_2  and  S1_10 
REMARK    4  A    between atoms: C2_3  and  C3_4 
REMARK    5  A    between atoms: S1_10  and  C8_13 
ROOT
HETATM    1  C1  UNL     1      26.234   0.148  52.327  1.00  0.00     0.347 C 
ENDROOT
BRANCH   1   2
HETATM    2  N1  UNL     1      26.946  -1.034  51.836  1.00  0.00     0.098 N 
HETATM    3  H1  UNL     1      27.032  -0.950  50.799  1.00  0.00     0.314 HD
HETATM    4  H2  UNL     1      26.468  -1.874  52.178  1.00  0.00     0.314 HD
ENDBRANCH   1   2
BRANCH   1   5
HETATM    5  C2  UNL     1      26.933   1.417  51.904  1.00  0.00     0.091 C 
BRANCH   5   6
HETATM    6  C3  UNL     1      26.078   2.326  51.129  1.00  0.00    -0.043 C 
HETATM    7  C4  UNL     1      24.797   2.643  51.220  1.00  0.00    -0.000 C 
HETATM    8  C5  UNL     1      24.583   3.912  50.910  1.00  0.00     0.022 C 
HETATM    9 BR1  UNL     1      23.390   5.272  51.510  1.00  0.00    -0.050 Br
HETATM   10  C6  UNL     1      25.591   4.121  49.850  1.00  0.00     0.020 C 
HETATM   11  C7  UNL     1      26.508   3.147  49.984  1.00  0.00     0.009 C 
ENDBRANCH   5   6
ENDBRANCH   1   5
BRANCH   1  12
HETATM   12  S1  UNL     1      26.175   0.125  54.103  1.00  0.00     0.198 S 
HETATM   13  O1  UNL     1      26.230   1.542  54.593  1.00  0.00    -0.221 OA
HETATM   14  O2  UNL     1      27.407  -0.590  54.612  1.00  0.00    -0.221 OA
BRANCH  12  15
HETATM   15  C8  UNL     1      24.721  -0.678  54.579  1.00  0.00     0.122 C 
HETATM   16  C9  UNL     1      23.416  -0.565  54.389  1.00  0.00    -0.023 C 
HETATM   17  C10 UNL     1      22.433  -1.466  54.975  1.00  0.00     0.024 C 
HETATM   18  C14 UNL     1      22.973   0.522  53.550  1.00  0.00     0.036 C 
HETATM   19  C11 UNL     1      21.281  -1.422  54.389  1.00  0.00    -0.023 C 
HETATM   20  C12 UNL     1      20.769  -0.283  53.966  1.00  0.00     0.036 C 
HETATM   21  C13 UNL     1      21.668   0.691  53.319  1.00  0.00     0.035 C 
HETATM   22 CL1  UNL     1      20.974   1.953  52.328  1.00  0.00    -0.084 Cl
ENDBRANCH  12  15
ENDBRANCH   1  12
TORSDOF 5
ENDMDL
MODEL 4
REMARK VINA RESULT:      -7.3      3.182      6.269
REMARK  5 active torsions:
REMARK  status: ('A' for Active; 'I' for Inactive)
REMARK    1  A    between atoms: N1_1  and  C1_2 
REMARK    2  A    between atoms: C1_2  and  C2_3 
REMARK    3  A    between atoms: C1_2  and  S1_10 
REMARK    4  A    between atoms: C2_3  and  C3_4 
REMARK    5  A    between atoms: S1_10  and  C8_13 
ROOT
HETATM    1  C1  UNL     1      26.532   1.971  52.623  1.00  0.00     0.347 C 
ENDROOT
BRANCH   1   2
HETATM    2  N1  UNL     1      26.186   2.605  53.896  1.00  0.00     0.098 N 
HETATM    3  H1  UNL     1      25.411   3.281  53.719  1.00  0.00     0.314 HD
HETATM    4  H2  UNL     1      27.036   2.999  54.312  1.00  0.00     0.314 HD
ENDBRANCH   1   2
BRANCH   1   5
HETATM    5  C2  UNL     1      25.378   2.035  51.653  1.00  0.00     0.091 C 
BRANCH   5   6
HETATM    6  C3  UNL     1      25.522   3.089  50.641  1.00  0.00    -0.043 C 
HETATM    7  C4  UNL     1      24.811   4.171  50.369  1.00  0.00    -0.000 C 
HETATM    8  C5  UNL     1      25.576   5.172  49.963  1.00  0.00     0.022 C 
HETATM    9 BR1  UNL     1      25.550   7.067  50.163  1.00  0.00    -0.050 Br
HETATM   10  C6  UNL     1      26.617   4.446  49.206  1.00  0.00     0.020 C 
HETATM   11  C7  UNL     1      26.583   3.168  49.623  1.00  0.00     0.009 C 
ENDBRANCH   5   6
ENDBRANCH   1   5
BRANCH   1  12
HETATM   12  S1  UNL     1      26.927   0.257  52.887  1.00  0.00     0.198 S 
HETATM   13  O1  UNL     1      28.376   0.162  53.261  1.00  0.00    -0.221 OA
HETATM   14  O2  UNL     1      26.734  -0.482  51.581  1.00  0.00    -0.221 OA
BRANCH  12  15
HETATM   15  C8  UNL     1      25.887  -0.345  54.128  1.00  0.00     0.122 C 
HETATM   16  C9  UNL     1      24.597  -0.570  54.320  1.00  0.00    -0.023 C 
HETATM   17  C10 UNL     1      24.047  -1.113  55.555  1.00  0.00     0.024 C 
HETATM   18  C14 UNL     1      23.711  -0.251  53.228  1.00  0.00     0.036 C 
HETATM   19  C11 UNL     1      22.856  -1.598  55.420  1.00  0.00    -0.023 C 
HETATM   20  C12 UNL     1      21.959  -1.008  54.654  1.00  0.00     0.036 C 
HETATM   21  C13 UNL     1      22.397  -0.455  53.360  1.00  0.00     0.035 C 
HETATM   22 CL1  UNL     1      21.197  -0.122  52.133  1.00  0.00    -0.084 Cl
ENDBRANCH  12  15
ENDBRANCH   1  12
TORSDOF 5
ENDMDL
MODEL 5
REMARK VINA RESULT:      -7.3      1.738      2.012
REMARK  5 active torsions:
REMARK  status: ('A' for Active; 'I' for Inactive)
REMARK    1  A    between atoms: N1_1  and  C1_2 
REMARK    2  A    between atoms: C1_2  and  C2_3 
REMARK    3  A    between atoms: C1_2  and  S1_10 
REMARK    4  A    between atoms: C2_3  and  C3_4 
REMARK    5  A    between atoms: S1_10  and  C8_13 
ROOT
HETATM    1  C1  UNL     1      25.441   0.204  54.081  1.00  0.00     0.347 C 
ENDROOT
BRANCH   1   2
HETATM    2  N1  UNL     1      26.481  -0.794  54.335  1.00  0.00     0.098 N 
HETATM    3  H1  UNL     1      27.309  -0.553  53.747  1.00  0.00     0.314 HD
HETATM    4  H2  UNL     1      26.086  -1.729  54.188  1.00  0.00     0.314 HD
ENDBRANCH   1   2
BRANCH   1   5
HETATM    5  C2  UNL     1      24.410  -0.321  53.111  1.00  0.00     0.091 C 
BRANCH   5   6
HETATM    6  C3  UNL     1      23.039  -0.279  53.634  1.00  0.00    -0.043 C 
HETATM    7  C4  UNL     1      21.995   0.483  53.347  1.00  0.00    -0.000 C 
HETATM    8  C5  UNL     1      20.858  -0.190  53.435  1.00  0.00     0.022 C 
HETATM    9 BR1  UNL     1      19.197  -0.172  52.501  1.00  0.00    -0.050 Br
HETATM   10  C6  UNL     1      21.151  -1.099  54.562  1.00  0.00     0.020 C 
HETATM   11  C7  UNL     1      22.489  -1.153  54.684  1.00  0.00     0.009 C 
ENDBRANCH   5   6
ENDBRANCH   1   5
BRANCH   1  12
HETATM   12  S1  UNL     1      26.163   1.665  53.370  1.00  0.00     0.198 S 
HETATM   13  O1  UNL     1      26.683   1.315  52.007  1.00  0.00    -0.221 OA
HETATM   14  O2  UNL     1      27.340   2.078  54.224  1.00  0.00    -0.221 OA
BRANCH  12  15
HETATM   15  C8  UNL     1      24.945   2.889  53.314  1.00  0.00     0.122 C 
HETATM   16  C9  UNL     1      24.074   3.385  52.450  1.00  0.00    -0.023 C 
HETATM   17  C10 UNL     1      23.156   4.472  52.762  1.00  0.00     0.024 C 
HETATM   18  C14 UNL     1      24.058   2.797  51.133  1.00  0.00     0.036 C 
HETATM   19  C11 UNL     1      22.162   4.559  51.940  1.00  0.00    -0.023 C 
HETATM   20  C12 UNL     1      22.322   4.355  50.646  1.00  0.00     0.036 C 
HETATM   21  C13 UNL     1      23.201   3.253  50.214  1.00  0.00     0.035 C 
HETATM   22 CL1  UNL     1      23.057   2.647  48.580  1.00  0.00    -0.084 Cl
ENDBRANCH  12  15
ENDBRANCH   1  12
TORSDOF 5
ENDMDL
MODEL 6
REMARK VINA RESULT:      -7.2      4.255      6.141
REMARK  5 active torsions:
REMARK  status: ('A' for Active; 'I' for Inactive)
REMARK    1  A    between atoms: N1_1  and  C1_2 
REMARK    2  A    between atoms: C1_2  and  C2_3 
REMARK    3  A    between atoms: C1_2  and  S1_10 
REMARK    4  A    between atoms: C2_3  and  C3_4 
REMARK    5  A    between atoms: S1_10  and  C8_13 
ROOT
HETATM    1  C1  UNL     1      24.291   2.590  52.770  1.00  0.00     0.347 C 
ENDROOT
BRANCH   1   2
HETATM    2  N1  UNL     1      24.471   3.896  53.407  1.00  0.00     0.098 N 
HETATM    3  H1  UNL     1      25.393   4.279  53.101  1.00  0.00     0.314 HD
HETATM    4  H2  UNL     1      24.345   3.790  54.419  1.00  0.00     0.314 HD
ENDBRANCH   1   2
BRANCH   1   5
HETATM    5  C2  UNL     1      25.588   2.091  52.179  1.00  0.00     0.091 C 
BRANCH   5   6
HETATM    6  C3  UNL     1      26.222   1.030  52.971  1.00  0.00    -0.043 C 
HETATM    7  C4  UNL     1      26.942  -0.028  52.635  1.00  0.00    -0.000 C 
HETATM    8  C5  UNL     1      27.886  -0.283  53.528  1.00  0.00     0.022 C 
HETATM    9 BR1  UNL     1      29.668  -0.954  53.462  1.00  0.00    -0.050 Br
HETATM   10  C6  UNL     1      27.205   0.105  54.781  1.00  0.00     0.020 C 
HETATM   11  C7  UNL     1      26.185   0.910  54.439  1.00  0.00     0.009 C 
ENDBRANCH   5   6
ENDBRANCH   1   5
BRANCH   1  12
HETATM   12  S1  UNL     1      23.106   2.717  51.451  1.00  0.00     0.198 S 
HETATM   13  O1  UNL     1      23.797   2.377  50.164  1.00  0.00    -0.221 OA
HETATM   14  O2  UNL     1      22.643   4.155  51.363  1.00  0.00    -0.221 OA
BRANCH  12  15
HETATM   15  C8  UNL     1      21.801   1.641  51.800  1.00  0.00     0.122 C 
HETATM   16  C9  UNL     1      21.538   0.630  52.613  1.00  0.00    -0.023 C 
HETATM   17  C10 UNL     1      20.265  -0.079  52.636  1.00  0.00     0.024 C 
HETATM   18  C14 UNL     1      22.589   0.231  53.516  1.00  0.00     0.036 C 
HETATM   19  C11 UNL     1      20.075  -0.762  53.717  1.00  0.00    -0.023 C 
HETATM   20  C12 UNL     1      21.060  -1.423  54.293  1.00  0.00     0.036 C 
HETATM   21  C13 UNL     1      22.387  -0.783  54.362  1.00  0.00     0.035 C 
HETATM   22 CL1  UNL     1      23.556  -1.385  55.515  1.00  0.00    -0.084 Cl
ENDBRANCH  12  15
ENDBRANCH   1  12
TORSDOF 5
ENDMDL
MODEL 7
REMARK VINA RESULT:      -7.1      4.622      7.116
REMARK  5 active torsions:
REMARK  status: ('A' for Active; 'I' for Inactive)
REMARK    1  A    between atoms: N1_1  and  C1_2 
REMARK    2  A    between atoms: C1_2  and  C2_3 
REMARK    3  A    between atoms: C1_2  and  S1_10 
REMARK    4  A    between atoms: C2_3  and  C3_4 
REMARK    5  A    between atoms: S1_10  and  C8_13 
ROOT
HETATM    1  C1  UNL     1      24.561   3.546  50.168  1.00  0.00     0.347 C 
ENDROOT
BRANCH   1   2
HETATM    2  N1  UNL     1      23.738   2.966  49.105  1.00  0.00     0.098 N 
HETATM    3  H1  UNL     1      23.665   3.667  48.336  1.00  0.00     0.314 HD
HETATM    4  H2  UNL     1      22.850   2.651  49.509  1.00  0.00     0.314 HD
ENDBRANCH   1   2
BRANCH   1   5
HETATM    5  C2  UNL     1      26.025   3.507  49.803  1.00  0.00     0.091 C 
BRANCH   5   6
HETATM    6  C3  UNL     1      26.497   4.733  49.146  1.00  0.00    -0.043 C 
HETATM    7  C4  UNL     1      25.938   5.916  48.954  1.00  0.00    -0.000 C 
HETATM    8  C5  UNL     1      26.827   6.896  49.019  1.00  0.00     0.022 C 
HETATM    9 BR1  UNL     1      26.817   8.695  49.645  1.00  0.00    -0.050 Br
HETATM   10  C6  UNL     1      28.014   6.244  48.428  1.00  0.00     0.020 C 
HETATM   11  C7  UNL     1      27.811   4.917  48.505  1.00  0.00     0.009 C 
ENDBRANCH   5   6
ENDBRANCH   1   5
BRANCH   1  12
HETATM   12  S1  UNL     1      24.351   2.620  51.671  1.00  0.00     0.198 S 
HETATM   13  O1  UNL     1      23.819   1.264  51.316  1.00  0.00    -0.221 OA
HETATM   14  O2  UNL     1      23.311   3.319  52.520  1.00  0.00    -0.221 OA
BRANCH  12  15
HETATM   15  C8  UNL     1      25.882   2.538  52.467  1.00  0.00     0.122 C 
HETATM   16  C9  UNL     1      26.772   1.623  52.816  1.00  0.00    -0.023 C 
HETATM   17  C10 UNL     1      28.016   1.929  53.510  1.00  0.00     0.024 C 
HETATM   18  C14 UNL     1      26.464   0.255  52.479  1.00  0.00     0.036 C 
HETATM   19  C11 UNL     1      28.895   0.984  53.432  1.00  0.00    -0.023 C 
HETATM   20  C12 UNL     1      28.546  -0.286  53.504  1.00  0.00     0.036 C 
HETATM   21  C13 UNL     1      27.322  -0.717  52.805  1.00  0.00     0.035 C 
HETATM   22 CL1  UNL     1      27.096  -2.418  52.466  1.00  0.00    -0.084 Cl
ENDBRANCH  12  15
ENDBRANCH   1  12
TORSDOF 5
ENDMDL
MODEL 8
REMARK VINA RESULT:      -7.1      4.006      6.608
REMARK  5 active torsions:
REMARK  status: ('A' for Active; 'I' for Inactive)
REMARK    1  A    between atoms: N1_1  and  C1_2 
REMARK    2  A    between atoms: C1_2  and  C2_3 
REMARK    3  A    between atoms: C1_2  and  S1_10 
REMARK    4  A    between atoms: C2_3  and  C3_4 
REMARK    5  A    between atoms: S1_10  and  C8_13 
ROOT
HETATM    1  C1  UNL     1      24.115   3.000  50.903  1.00  0.00     0.347 C 
ENDROOT
BRANCH   1   2
HETATM    2  N1  UNL     1      23.221   2.341  49.949  1.00  0.00     0.098 N 
HETATM    3  H1  UNL     1      23.800   1.990  49.155  1.00  0.00     0.314 HD
HETATM    4  H2  UNL     1      22.467   2.990  49.700  1.00  0.00     0.314 HD
ENDBRANCH   1   2
BRANCH   1   5
HETATM    5  C2  UNL     1      25.542   2.982  50.411  1.00  0.00     0.091 C 
BRANCH   5   6
HETATM    6  C3  UNL     1      25.911   4.178  49.642  1.00  0.00    -0.043 C 
HETATM    7  C4  UNL     1      25.293   5.328  49.426  1.00  0.00    -0.000 C 
HETATM    8  C5  UNL     1      26.146   6.338  49.356  1.00  0.00     0.022 C 
HETATM    9 BR1  UNL     1      26.120   8.173  49.869  1.00  0.00    -0.050 Br
HETATM   10  C6  UNL     1      27.304   5.689  48.706  1.00  0.00     0.020 C 
HETATM   11  C7  UNL     1      27.159   4.364  48.882  1.00  0.00     0.009 C 
ENDBRANCH   5   6
ENDBRANCH   1   5
BRANCH   1  12
HETATM   12  S1  UNL     1      24.068   2.152  52.464  1.00  0.00     0.198 S 
HETATM   13  O1  UNL     1      22.637   1.826  52.778  1.00  0.00    -0.221 OA
HETATM   14  O2  UNL     1      24.575   3.093  53.534  1.00  0.00    -0.221 OA
BRANCH  12  15
HETATM   15  C8  UNL     1      25.049   0.736  52.333  1.00  0.00     0.122 C 
HETATM   16  C9  UNL     1      26.266   0.337  52.667  1.00  0.00    -0.023 C 
HETATM   17  C10 UNL     1      26.786  -0.994  52.385  1.00  0.00     0.024 C 
HETATM   18  C14 UNL     1      27.101   1.296  53.347  1.00  0.00     0.036 C 
HETATM   19  C11 UNL     1      27.819  -1.306  53.096  1.00  0.00    -0.023 C 
HETATM   20  C12 UNL     1      28.756  -0.418  53.372  1.00  0.00     0.036 C 
HETATM   21  C13 UNL     1      28.341   0.955  53.711  1.00  0.00     0.035 C 
HETATM   22 CL1  UNL     1      29.472   1.999  54.541  1.00  0.00    -0.084 Cl
ENDBRANCH  12  15
ENDBRANCH   1  12
TORSDOF 5
ENDMDL
MODEL 9
REMARK VINA RESULT:      -7.0      4.299      6.874
REMARK  5 active torsions:
REMARK  status: ('A' for Active; 'I' for Inactive)
REMARK    1  A    between atoms: N1_1  and  C1_2 
REMARK    2  A    between atoms: C1_2  and  C2_3 
REMARK    3  A    between atoms: C1_2  and  S1_10 
REMARK    4  A    between atoms: C2_3  and  C3_4 
REMARK    5  A    between atoms: S1_10  and  C8_13 
ROOT
HETATM    1  C1  UNL     1      23.887   4.785  51.686  1.00  0.00     0.347 C 
ENDROOT
BRANCH   1   2
HETATM    2  N1  UNL     1      23.776   5.429  52.997  1.00  0.00     0.098 N 
HETATM    3  H1  UNL     1      24.519   6.159  53.060  1.00  0.00     0.314 HD
HETATM    4  H2  UNL     1      23.797   4.706  53.723  1.00  0.00     0.314 HD
ENDBRANCH   1   2
BRANCH   1   5
HETATM    5  C2  UNL     1      24.226   5.792  50.614  1.00  0.00     0.091 C 
BRANCH   5   6
HETATM    6  C3  UNL     1      25.301   5.350  49.716  1.00  0.00    -0.043 C 
HETATM    7  C4  UNL     1      25.896   5.925  48.684  1.00  0.00    -0.000 C 
HETATM    8  C5  UNL     1      27.180   5.609  48.620  1.00  0.00     0.022 C 
HETATM    9 BR1  UNL     1      28.774   6.509  48.089  1.00  0.00    -0.050 Br
HETATM   10  C6  UNL     1      27.155   4.214  49.108  1.00  0.00     0.020 C 
HETATM   11  C7  UNL     1      26.002   4.056  49.780  1.00  0.00     0.009 C 
ENDBRANCH   5   6
ENDBRANCH   1   5
BRANCH   1  12
HETATM   12  S1  UNL     1      22.339   4.027  51.251  1.00  0.00     0.198 S 
HETATM   13  O1  UNL     1      22.333   3.790  49.770  1.00  0.00    -0.221 OA
HETATM   14  O2  UNL     1      21.225   5.001  51.570  1.00  0.00    -0.221 OA
BRANCH  12  15
HETATM   15  C8  UNL     1      22.190   2.561  52.151  1.00  0.00     0.122 C 
HETATM   16  C9  UNL     1      22.946   1.536  52.513  1.00  0.00    -0.023 C 
HETATM   17  C10 UNL     1      22.464   0.419  53.314  1.00  0.00     0.024 C 
HETATM   18  C14 UNL     1      24.320   1.555  52.073  1.00  0.00     0.036 C 
HETATM   19  C11 UNL     1      23.412  -0.269  53.861  1.00  0.00    -0.023 C 
HETATM   20  C12 UNL     1      24.535  -0.524  53.217  1.00  0.00     0.036 C 
HETATM   21  C13 UNL     1      25.135   0.549  52.405  1.00  0.00     0.035 C 
HETATM   22 CL1  UNL     1      26.820   0.426  51.953  1.00  0.00    -0.084 Cl
ENDBRANCH  12  15
ENDBRANCH   1  12
TORSDOF 5
ENDMDL
