MODEL 1
REMARK VINA RESULT:      -8.2      0.000      0.000
REMARK  6 active torsions:
REMARK  status: ('A' for Active; 'I' for Inactive)
REMARK    1  A    between atoms: C2_2  and  C3_3 
REMARK    2  A    between atoms: C3_3  and  C4_5 
REMARK    3  A    between atoms: C8_10  and  O2_11 
REMARK    4  A    between atoms: O2_11  and  C9_12 
REMARK    5  A    between atoms: C9_12  and  C10_13 
REMARK    6  A    between atoms: C10_13  and  N1_14 
ROOT
HETATM    1  C4  UNL     1      26.884  -0.073  53.026  1.00  0.00     0.063 A 
HETATM    2  P1  UNL     1      26.835   0.813  51.518  1.00  0.00     0.016 P 
HETATM    3  C5  UNL     1      25.792   2.219  51.545  1.00  0.00     0.055 A 
HETATM    4  C6  UNL     1      25.108   2.514  52.709  1.00  0.00    -0.008 A 
HETATM    5  C7  UNL     1      25.332   1.642  53.753  1.00  0.00     0.049 A 
HETATM    6  C8  UNL     1      26.069   0.523  53.967  1.00  0.00     0.085 A 
HETATM    7  C13 UNL     1      24.173   3.631  53.008  1.00  0.00     0.191 C 
HETATM    8  N2  UNL     1      23.435   4.125  51.911  1.00  0.00    -0.279 NA
HETATM    9  C14 UNL     1      23.062   5.378  51.787  1.00  0.00     0.222 C 
HETATM   10  N3  UNL     1      22.309   5.688  50.582  1.00  0.00    -0.268 N 
HETATM   11  C15 UNL     1      21.094   4.869  50.728  1.00  0.00     0.181 C 
HETATM   12  N4  UNL     1      22.351   6.437  49.438  1.00  0.00    -0.182 NA
HETATM   13  C16 UNL     1      23.296   6.825  48.710  1.00  0.00     0.170 C 
HETATM   14  C17 UNL     1      24.722   6.850  48.462  1.00  0.00     0.077 A 
HETATM   15  C18 UNL     1      25.531   7.815  47.922  1.00  0.00     0.035 A 
HETATM   16  C19 UNL     1      26.776   7.232  47.976  1.00  0.00     0.030 A 
HETATM   17  C20 UNL     1      26.779   5.984  48.511  1.00  0.00     0.044 A 
HETATM   18  N5  UNL     1      25.482   5.837  48.778  1.00  0.00    -0.235 N 
HETATM   19  N6  UNL     1      25.087   4.664  49.388  1.00  0.00    -0.153 NA
HETATM   20  C21 UNL     1      26.188   4.015  49.532  1.00  0.00     0.131 A 
HETATM   21  C22 UNL     1      27.376   4.696  48.958  1.00  0.00     0.139 A 
HETATM   22  N7  UNL     1      25.881   2.810  50.241  1.00  0.00    -0.341 N 
HETATM   23  H26 UNL     1      25.664   2.211  49.385  1.00  0.00     0.167 HD
ENDROOT
BRANCH   6  24
HETATM   24  O2  UNL     1      26.083  -0.173  55.205  1.00  0.00    -0.348 OA
BRANCH  24  25
HETATM   25  C9  UNL     1      24.926  -0.855  55.651  1.00  0.00     0.206 C 
BRANCH  25  26
HETATM   26  C10 UNL     1      24.160  -1.310  54.442  1.00  0.00     0.297 C 
BRANCH  26  27
HETATM   27  N1  UNL     1      22.809  -0.805  54.372  1.00  0.00     0.082 N 
HETATM   28  C11 UNL     1      21.844  -1.727  54.919  1.00  0.00     0.309 C 
HETATM   29  C12 UNL     1      22.501  -0.382  53.031  1.00  0.00     0.309 C 
ENDBRANCH  26  27
ENDBRANCH  25  26
ENDBRANCH  24  25
ENDBRANCH   6  24
BRANCH   1  30
HETATM   30  C3  UNL     1      27.716  -1.250  53.100  1.00  0.00     0.185 C 
HETATM   31  O1  UNL     1      27.139  -2.339  52.846  1.00  0.00    -0.287 OA
BRANCH  30  32
HETATM   32  C2  UNL     1      29.089  -1.545  53.400  1.00  0.00     0.045 C 
HETATM   33  C1  UNL     1      30.159  -0.839  53.677  1.00  0.00     0.015 C 
ENDBRANCH  30  32
ENDBRANCH   1  30
TORSDOF 6
ENDMDL
MODEL 2
REMARK VINA RESULT:      -8.1      2.507      4.473
REMARK  6 active torsions:
REMARK  status: ('A' for Active; 'I' for Inactive)
REMARK    1  A    between atoms: C2_2  and  C3_3 
REMARK    2  A    between atoms: C3_3  and  C4_5 
REMARK    3  A    between atoms: C8_10  and  O2_11 
REMARK    4  A    between atoms: O2_11  and  C9_12 
REMARK    5  A    between atoms: C9_12  and  C10_13 
REMARK    6  A    between atoms: C10_13  and  N1_14 
ROOT
HETATM    1  C4  UNL     1      23.653   0.639  52.586  1.00  0.00     0.063 A 
HETATM    2  P1  UNL     1      22.699   1.688  51.560  1.00  0.00     0.016 P 
HETATM    3  C5  UNL     1      23.635   2.889  50.695  1.00  0.00     0.055 A 
HETATM    4  C6  UNL     1      25.004   2.922  50.879  1.00  0.00    -0.008 A 
HETATM    5  C7  UNL     1      25.496   1.974  51.750  1.00  0.00     0.049 A 
HETATM    6  C8  UNL     1      24.990   0.972  52.512  1.00  0.00     0.085 A 
HETATM    7  C13 UNL     1      26.025   3.820  50.279  1.00  0.00     0.191 C 
HETATM    8  N2  UNL     1      25.583   5.117  49.942  1.00  0.00    -0.279 NA
HETATM    9  C14 UNL     1      26.053   5.810  48.931  1.00  0.00     0.222 C 
HETATM   10  N3  UNL     1      25.465   7.128  48.750  1.00  0.00    -0.268 N 
HETATM   11  C15 UNL     1      25.836   7.831  49.989  1.00  0.00     0.181 C 
HETATM   12  N4  UNL     1      24.733   7.879  47.871  1.00  0.00    -0.182 NA
HETATM   13  C16 UNL     1      23.845   7.585  47.035  1.00  0.00     0.170 C 
HETATM   14  C17 UNL     1      23.036   6.556  46.418  1.00  0.00     0.077 A 
HETATM   15  C18 UNL     1      22.555   6.426  45.142  1.00  0.00     0.035 A 
HETATM   16  C19 UNL     1      21.875   5.231  45.194  1.00  0.00     0.030 A 
HETATM   17  C20 UNL     1      21.909   4.628  46.411  1.00  0.00     0.044 A 
HETATM   18  N5  UNL     1      22.640   5.511  47.091  1.00  0.00    -0.235 N 
HETATM   19  N6  UNL     1      22.933   5.214  48.407  1.00  0.00    -0.153 NA
HETATM   20  C21 UNL     1      22.368   4.073  48.590  1.00  0.00     0.131 A 
HETATM   21  C22 UNL     1      21.602   3.577  47.418  1.00  0.00     0.139 A 
HETATM   22  N7  UNL     1      22.696   3.644  49.915  1.00  0.00    -0.341 N 
HETATM   23  H26 UNL     1      21.870   4.109  50.407  1.00  0.00     0.167 HD
ENDROOT
BRANCH   6  24
HETATM   24  O2  UNL     1      25.794   0.140  53.336  1.00  0.00    -0.348 OA
BRANCH  24  25
HETATM   25  C9  UNL     1      26.526   0.698  54.411  1.00  0.00     0.206 C 
BRANCH  25  26
HETATM   26  C10 UNL     1      27.800  -0.083  54.561  1.00  0.00     0.297 C 
BRANCH  26  27
HETATM   27  N1  UNL     1      28.996   0.679  54.290  1.00  0.00     0.082 N 
HETATM   28  C11 UNL     1      28.710   1.977  53.728  1.00  0.00     0.309 C 
HETATM   29  C12 UNL     1      29.917  -0.096  53.500  1.00  0.00     0.309 C 
ENDBRANCH  26  27
ENDBRANCH  25  26
ENDBRANCH  24  25
ENDBRANCH   6  24
BRANCH   1  30
HETATM   30  C3  UNL     1      22.969  -0.383  53.341  1.00  0.00     0.185 C 
HETATM   31  O1  UNL     1      22.402  -1.274  52.658  1.00  0.00    -0.287 OA
BRANCH  30  32
HETATM   32  C2  UNL     1      22.741  -0.686  54.726  1.00  0.00     0.045 C 
HETATM   33  C1  UNL     1      23.307  -1.460  55.621  1.00  0.00     0.015 C 
ENDBRANCH  30  32
ENDBRANCH   1  30
TORSDOF 6
ENDMDL
MODEL 3
REMARK VINA RESULT:      -8.1      4.933      8.802
REMARK  6 active torsions:
REMARK  status: ('A' for Active; 'I' for Inactive)
REMARK    1  A    between atoms: C2_2  and  C3_3 
REMARK    2  A    between atoms: C3_3  and  C4_5 
REMARK    3  A    between atoms: C8_10  and  O2_11 
REMARK    4  A    between atoms: O2_11  and  C9_12 
REMARK    5  A    between atoms: C9_12  and  C10_13 
REMARK    6  A    between atoms: C10_13  and  N1_14 
ROOT
HETATM    1  C4  UNL     1      23.012  -0.392  53.686  1.00  0.00     0.063 A 
HETATM    2  P1  UNL     1      21.444  -0.978  54.192  1.00  0.00     0.016 P 
HETATM    3  C5  UNL     1      20.128  -0.513  53.135  1.00  0.00     0.055 A 
HETATM    4  C6  UNL     1      20.412   0.255  52.022  1.00  0.00    -0.008 A 
HETATM    5  C7  UNL     1      21.743   0.578  51.862  1.00  0.00     0.049 A 
HETATM    6  C8  UNL     1      22.905   0.343  52.522  1.00  0.00     0.085 A 
HETATM    7  C13 UNL     1      19.503   0.781  50.970  1.00  0.00     0.191 C 
HETATM    8  N2  UNL     1      18.179   1.049  51.378  1.00  0.00    -0.279 NA
HETATM    9  C14 UNL     1      17.134   0.923  50.593  1.00  0.00     0.222 C 
HETATM   10  N3  UNL     1      15.853   1.246  51.204  1.00  0.00    -0.268 N 
HETATM   11  C15 UNL     1      15.995   2.672  51.542  1.00  0.00     0.181 C 
HETATM   12  N4  UNL     1      14.644   0.702  51.543  1.00  0.00    -0.182 NA
HETATM   13  C16 UNL     1      14.301  -0.451  51.900  1.00  0.00     0.170 C 
HETATM   14  C17 UNL     1      14.696  -1.813  52.188  1.00  0.00     0.077 A 
HETATM   15  C18 UNL     1      14.042  -3.003  52.006  1.00  0.00     0.035 A 
HETATM   16  C19 UNL     1      14.955  -3.924  52.467  1.00  0.00     0.030 A 
HETATM   17  C20 UNL     1      16.115  -3.376  52.915  1.00  0.00     0.044 A 
HETATM   18  N5  UNL     1      15.863  -2.085  52.704  1.00  0.00    -0.235 N 
HETATM   19  N6  UNL     1      16.862  -1.184  53.012  1.00  0.00    -0.153 NA
HETATM   20  C21 UNL     1      17.819  -1.931  53.439  1.00  0.00     0.131 A 
HETATM   21  C22 UNL     1      17.480  -3.375  53.506  1.00  0.00     0.139 A 
HETATM   22  N7  UNL     1      18.938  -1.079  53.702  1.00  0.00    -0.341 N 
HETATM   23  H26 UNL     1      18.689  -0.853  54.716  1.00  0.00     0.167 HD
ENDROOT
BRANCH   6  24
HETATM   24  O2  UNL     1      24.162   0.836  52.083  1.00  0.00    -0.348 OA
BRANCH  24  25
HETATM   25  C9  UNL     1      24.264   2.139  51.539  1.00  0.00     0.206 C 
BRANCH  25  26
HETATM   26  C10 UNL     1      24.161   3.124  52.669  1.00  0.00     0.297 C 
BRANCH  26  27
HETATM   27  N1  UNL     1      23.533   4.373  52.311  1.00  0.00     0.082 N 
HETATM   28  C11 UNL     1      22.094   4.275  52.263  1.00  0.00     0.309 C 
HETATM   29  C12 UNL     1      24.111   4.897  51.100  1.00  0.00     0.309 C 
ENDBRANCH  26  27
ENDBRANCH  25  26
ENDBRANCH  24  25
ENDBRANCH   6  24
BRANCH   1  30
HETATM   30  C3  UNL     1      24.160  -0.723  54.495  1.00  0.00     0.185 C 
HETATM   31  O1  UNL     1      23.910  -1.336  55.565  1.00  0.00    -0.287 OA
BRANCH  30  32
HETATM   32  C2  UNL     1      25.583  -0.541  54.421  1.00  0.00     0.045 C 
HETATM   33  C1  UNL     1      26.432   0.369  54.833  1.00  0.00     0.015 C 
ENDBRANCH  30  32
ENDBRANCH   1  30
TORSDOF 6
ENDMDL
MODEL 4
REMARK VINA RESULT:      -7.8      1.249      1.423
REMARK  6 active torsions:
REMARK  status: ('A' for Active; 'I' for Inactive)
REMARK    1  A    between atoms: C2_2  and  C3_3 
REMARK    2  A    between atoms: C3_3  and  C4_5 
REMARK    3  A    between atoms: C8_10  and  O2_11 
REMARK    4  A    between atoms: O2_11  and  C9_12 
REMARK    5  A    between atoms: C9_12  and  C10_13 
REMARK    6  A    between atoms: C10_13  and  N1_14 
ROOT
HETATM    1  C4  UNL     1      26.346   0.410  52.936  1.00  0.00     0.063 A 
HETATM    2  P1  UNL     1      26.509   1.382  51.491  1.00  0.00     0.016 P 
HETATM    3  C5  UNL     1      25.129   2.406  51.155  1.00  0.00     0.055 A 
HETATM    4  C6  UNL     1      24.052   2.372  52.021  1.00  0.00    -0.008 A 
HETATM    5  C7  UNL     1      24.191   1.509  53.087  1.00  0.00     0.049 A 
HETATM    6  C8  UNL     1      25.130   0.645  53.546  1.00  0.00     0.085 A 
HETATM    7  C13 UNL     1      22.772   3.126  51.979  1.00  0.00     0.191 C 
HETATM    8  N2  UNL     1      22.308   3.481  50.694  1.00  0.00    -0.279 NA
HETATM    9  C14 UNL     1      21.624   4.573  50.441  1.00  0.00     0.222 C 
HETATM   10  N3  UNL     1      21.240   4.760  49.051  1.00  0.00    -0.268 N 
HETATM   11  C15 UNL     1      20.361   3.607  48.790  1.00  0.00     0.181 C 
HETATM   12  N4  UNL     1      21.410   5.594  47.979  1.00  0.00    -0.182 NA
HETATM   13  C16 UNL     1      22.368   6.312  47.605  1.00  0.00     0.170 C 
HETATM   14  C17 UNL     1      23.714   6.783  47.848  1.00  0.00     0.077 A 
HETATM   15  C18 UNL     1      24.310   7.992  47.600  1.00  0.00     0.035 A 
HETATM   16  C19 UNL     1      25.588   7.803  48.072  1.00  0.00     0.030 A 
HETATM   17  C20 UNL     1      25.809   6.566  48.589  1.00  0.00     0.044 A 
HETATM   18  N5  UNL     1      24.609   6.017  48.409  1.00  0.00    -0.235 N 
HETATM   19  N6  UNL     1      24.426   4.726  48.863  1.00  0.00    -0.153 NA
HETATM   20  C21 UNL     1      25.568   4.422  49.372  1.00  0.00     0.131 A 
HETATM   21  C22 UNL     1      26.602   5.477  49.222  1.00  0.00     0.139 A 
HETATM   22  N7  UNL     1      25.442   3.119  49.950  1.00  0.00    -0.341 N 
HETATM   23  H26 UNL     1      25.709   2.567  49.076  1.00  0.00     0.167 HD
ENDROOT
BRANCH   6  24
HETATM   24  O2  UNL     1      24.964  -0.130  54.724  1.00  0.00    -0.348 OA
BRANCH  24  25
HETATM   25  C9  UNL     1      24.190  -1.316  54.692  1.00  0.00     0.206 C 
BRANCH  25  26
HETATM   26  C10 UNL     1      22.864  -1.023  55.331  1.00  0.00     0.297 C 
BRANCH  26  27
HETATM   27  N1  UNL     1      21.785  -0.825  54.392  1.00  0.00     0.082 N 
HETATM   28  C11 UNL     1      21.018   0.364  54.673  1.00  0.00     0.309 C 
HETATM   29  C12 UNL     1      20.979  -2.016  54.296  1.00  0.00     0.309 C 
ENDBRANCH  26  27
ENDBRANCH  25  26
ENDBRANCH  24  25
ENDBRANCH   6  24
BRANCH   1  30
HETATM   30  C3  UNL     1      27.434  -0.467  53.296  1.00  0.00     0.185 C 
HETATM   31  O1  UNL     1      27.250  -1.687  53.048  1.00  0.00    -0.287 OA
BRANCH  30  32
HETATM   32  C2  UNL     1      28.735  -0.335  53.889  1.00  0.00     0.045 C 
HETATM   33  C1  UNL     1      29.958  -0.658  53.544  1.00  0.00     0.015 C 
ENDBRANCH  30  32
ENDBRANCH   1  30
TORSDOF 6
ENDMDL
MODEL 5
REMARK VINA RESULT:      -7.7      3.846      8.876
REMARK  6 active torsions:
REMARK  status: ('A' for Active; 'I' for Inactive)
REMARK    1  A    between atoms: C2_2  and  C3_3 
REMARK    2  A    between atoms: C3_3  and  C4_5 
REMARK    3  A    between atoms: C8_10  and  O2_11 
REMARK    4  A    between atoms: O2_11  and  C9_12 
REMARK    5  A    between atoms: C9_12  and  C10_13 
REMARK    6  A    between atoms: C10_13  and  N1_14 
ROOT
HETATM    1  C4  UNL     1      22.172   4.435  47.552  1.00  0.00     0.063 A 
HETATM    2  P1  UNL     1      21.925   2.899  48.352  1.00  0.00     0.016 P 
HETATM    3  C5  UNL     1      22.902   2.673  49.787  1.00  0.00     0.055 A 
HETATM    4  C6  UNL     1      23.765   3.683  50.168  1.00  0.00    -0.008 A 
HETATM    5  C7  UNL     1      23.759   4.792  49.349  1.00  0.00     0.049 A 
HETATM    6  C8  UNL     1      23.114   5.188  48.224  1.00  0.00     0.085 A 
HETATM    7  C13 UNL     1      24.694   3.756  51.326  1.00  0.00     0.191 C 
HETATM    8  N2  UNL     1      25.212   2.524  51.779  1.00  0.00    -0.279 NA
HETATM    9  C14 UNL     1      25.509   2.274  53.033  1.00  0.00     0.222 C 
HETATM   10  N3  UNL     1      26.029   0.942  53.297  1.00  0.00    -0.268 N 
HETATM   11  C15 UNL     1      27.282   0.914  52.524  1.00  0.00     0.181 C 
HETATM   12  N4  UNL     1      25.762  -0.214  53.979  1.00  0.00    -0.182 NA
HETATM   13  C16 UNL     1      24.690  -0.784  54.297  1.00  0.00     0.170 C 
HETATM   14  C17 UNL     1      23.243  -0.779  54.267  1.00  0.00     0.077 A 
HETATM   15  C18 UNL     1      22.317  -1.218  55.175  1.00  0.00     0.035 A 
HETATM   16  C19 UNL     1      21.123  -0.918  54.561  1.00  0.00     0.030 A 
HETATM   17  C20 UNL     1      21.260  -0.328  53.345  1.00  0.00     0.044 A 
HETATM   18  N5  UNL     1      22.589  -0.285  53.252  1.00  0.00    -0.235 N 
HETATM   19  N6  UNL     1      23.128   0.305  52.127  1.00  0.00    -0.153 NA
HETATM   20  C21 UNL     1      22.095   0.671  51.454  1.00  0.00     0.131 A 
HETATM   21  C22 UNL     1      20.800   0.280  52.067  1.00  0.00     0.139 A 
HETATM   22  N7  UNL     1      22.566   1.376  50.302  1.00  0.00    -0.341 N 
HETATM   23  H26 UNL     1      22.654   0.526  49.661  1.00  0.00     0.167 HD
ENDROOT
BRANCH   6  24
HETATM   24  O2  UNL     1      23.341   6.443  47.599  1.00  0.00    -0.348 OA
BRANCH  24  25
HETATM   25  C9  UNL     1      24.570   7.119  47.786  1.00  0.00     0.206 C 
BRANCH  25  26
HETATM   26  C10 UNL     1      24.293   8.385  48.544  1.00  0.00     0.297 C 
BRANCH  26  27
HETATM   27  N1  UNL     1      24.806   8.392  49.893  1.00  0.00     0.082 N 
HETATM   28  C11 UNL     1      26.052   7.675  50.015  1.00  0.00     0.309 C 
HETATM   29  C12 UNL     1      23.796   7.945  50.817  1.00  0.00     0.309 C 
ENDBRANCH  26  27
ENDBRANCH  25  26
ENDBRANCH  24  25
ENDBRANCH   6  24
BRANCH   1  30
HETATM   30  C3  UNL     1      21.412   4.713  46.357  1.00  0.00     0.185 C 
HETATM   31  O1  UNL     1      20.317   5.307  46.537  1.00  0.00    -0.287 OA
BRANCH  30  32
HETATM   32  C2  UNL     1      21.558   4.491  44.946  1.00  0.00     0.045 C 
HETATM   33  C1  UNL     1      20.827   3.946  44.003  1.00  0.00     0.015 C 
ENDBRANCH  30  32
ENDBRANCH   1  30
TORSDOF 6
ENDMDL
MODEL 6
REMARK VINA RESULT:      -7.5      2.731      5.101
REMARK  6 active torsions:
REMARK  status: ('A' for Active; 'I' for Inactive)
REMARK    1  A    between atoms: C2_2  and  C3_3 
REMARK    2  A    between atoms: C3_3  and  C4_5 
REMARK    3  A    between atoms: C8_10  and  O2_11 
REMARK    4  A    between atoms: O2_11  and  C9_12 
REMARK    5  A    between atoms: C9_12  and  C10_13 
REMARK    6  A    between atoms: C10_13  and  N1_14 
ROOT
HETATM    1  C4  UNL     1      24.161   2.376  51.103  1.00  0.00     0.063 A 
HETATM    2  P1  UNL     1      23.540   3.804  50.305  1.00  0.00     0.016 P 
HETATM    3  C5  UNL     1      24.758   4.747  49.473  1.00  0.00     0.055 A 
HETATM    4  C6  UNL     1      26.070   4.314  49.507  1.00  0.00    -0.008 A 
HETATM    5  C7  UNL     1      26.280   3.149  50.213  1.00  0.00     0.049 A 
HETATM    6  C8  UNL     1      25.525   2.268  50.917  1.00  0.00     0.085 A 
HETATM    7  C13 UNL     1      27.287   4.910  48.894  1.00  0.00     0.191 C 
HETATM    8  N2  UNL     1      27.277   6.313  48.748  1.00  0.00    -0.279 NA
HETATM    9  C14 UNL     1      27.879   6.950  47.769  1.00  0.00     0.222 C 
HETATM   10  N3  UNL     1      27.750   8.398  47.794  1.00  0.00    -0.268 N 
HETATM   11  C15 UNL     1      28.419   8.771  49.052  1.00  0.00     0.181 C 
HETATM   12  N4  UNL     1      27.250   9.457  47.086  1.00  0.00    -0.182 NA
HETATM   13  C16 UNL     1      26.258   9.579  46.327  1.00  0.00     0.170 C 
HETATM   14  C17 UNL     1      25.112   8.958  45.699  1.00  0.00     0.077 A 
HETATM   15  C18 UNL     1      24.527   9.163  44.477  1.00  0.00     0.035 A 
HETATM   16  C19 UNL     1      23.494   8.254  44.478  1.00  0.00     0.030 A 
HETATM   17  C20 UNL     1      23.412   7.512  45.613  1.00  0.00     0.044 A 
HETATM   18  N5  UNL     1      24.440   8.013  46.297  1.00  0.00    -0.235 N 
HETATM   19  N6  UNL     1      24.709   7.462  47.534  1.00  0.00    -0.153 NA
HETATM   20  C21 UNL     1      23.812   6.549  47.658  1.00  0.00     0.131 A 
HETATM   21  C22 UNL     1      22.845   6.488  46.532  1.00  0.00     0.139 A 
HETATM   22  N7  UNL     1      24.071   5.862  48.886  1.00  0.00    -0.341 N 
HETATM   23  H26 UNL     1      23.482   6.495  49.512  1.00  0.00     0.167 HD
ENDROOT
BRANCH   6  24
HETATM   24  O2  UNL     1      26.063   1.119  51.554  1.00  0.00    -0.348 OA
BRANCH  24  25
HETATM   25  C9  UNL     1      27.263   1.215  52.298  1.00  0.00     0.206 C 
BRANCH  25  26
HETATM   26  C10 UNL     1      26.918   1.701  53.676  1.00  0.00     0.297 C 
BRANCH  26  27
HETATM   27  N1  UNL     1      27.269   0.783  54.734  1.00  0.00     0.082 N 
HETATM   28  C11 UNL     1      28.560   0.173  54.531  1.00  0.00     0.309 C 
HETATM   29  C12 UNL     1      26.211  -0.172  54.941  1.00  0.00     0.309 C 
ENDBRANCH  26  27
ENDBRANCH  25  26
ENDBRANCH  24  25
ENDBRANCH   6  24
BRANCH   1  30
HETATM   30  C3  UNL     1      23.232   1.534  51.817  1.00  0.00     0.185 C 
HETATM   31  O1  UNL     1      22.190   1.218  51.186  1.00  0.00    -0.287 OA
BRANCH  30  32
HETATM   32  C2  UNL     1      23.156   0.923  53.115  1.00  0.00     0.045 C 
HETATM   33  C1  UNL     1      22.830  -0.262  53.574  1.00  0.00     0.015 C 
ENDBRANCH  30  32
ENDBRANCH   1  30
TORSDOF 6
ENDMDL
MODEL 7
REMARK VINA RESULT:      -7.5      3.605      8.245
REMARK  6 active torsions:
REMARK  status: ('A' for Active; 'I' for Inactive)
REMARK    1  A    between atoms: C2_2  and  C3_3 
REMARK    2  A    between atoms: C3_3  and  C4_5 
REMARK    3  A    between atoms: C8_10  and  O2_11 
REMARK    4  A    between atoms: O2_11  and  C9_12 
REMARK    5  A    between atoms: C9_12  and  C10_13 
REMARK    6  A    between atoms: C10_13  and  N1_14 
ROOT
HETATM    1  C4  UNL     1      24.550   6.586  48.339  1.00  0.00     0.063 A 
HETATM    2  P1  UNL     1      25.219   5.727  49.709  1.00  0.00     0.016 P 
HETATM    3  C5  UNL     1      24.355   4.263  50.129  1.00  0.00     0.055 A 
HETATM    4  C6  UNL     1      23.251   3.906  49.379  1.00  0.00    -0.008 A 
HETATM    5  C7  UNL     1      22.943   4.770  48.350  1.00  0.00     0.049 A 
HETATM    6  C8  UNL     1      23.443   5.925  47.844  1.00  0.00     0.085 A 
HETATM    7  C13 UNL     1      22.348   2.732  49.511  1.00  0.00     0.191 C 
HETATM    8  N2  UNL     1      22.195   2.217  50.815  1.00  0.00    -0.279 NA
HETATM    9  C14 UNL     1      21.991   0.947  51.080  1.00  0.00     0.222 C 
HETATM   10  N3  UNL     1      21.860   0.616  52.490  1.00  0.00    -0.268 N 
HETATM   11  C15 UNL     1      20.656   1.360  52.897  1.00  0.00     0.181 C 
HETATM   12  N4  UNL     1      22.443  -0.107  53.495  1.00  0.00    -0.182 NA
HETATM   13  C16 UNL     1      23.633  -0.425  53.733  1.00  0.00     0.170 C 
HETATM   14  C17 UNL     1      25.022  -0.363  53.332  1.00  0.00     0.077 A 
HETATM   15  C18 UNL     1      26.043  -1.268  53.456  1.00  0.00     0.035 A 
HETATM   16  C19 UNL     1      27.102  -0.616  52.868  1.00  0.00     0.030 A 
HETATM   17  C20 UNL     1      26.795   0.620  52.395  1.00  0.00     0.044 A 
HETATM   18  N5  UNL     1      25.505   0.686  52.724  1.00  0.00    -0.235 N 
HETATM   19  N6  UNL     1      24.813   1.823  52.358  1.00  0.00    -0.153 NA
HETATM   20  C21 UNL     1      25.699   2.532  51.752  1.00  0.00     0.131 A 
HETATM   21  C22 UNL     1      27.058   1.932  51.743  1.00  0.00     0.139 A 
HETATM   22  N7  UNL     1      25.041   3.703  51.258  1.00  0.00    -0.341 N 
HETATM   23  H26 UNL     1      25.184   4.305  52.128  1.00  0.00     0.167 HD
ENDROOT
BRANCH   6  24
HETATM   24  O2  UNL     1      22.873   6.597  46.731  1.00  0.00    -0.348 OA
BRANCH  24  25
HETATM   25  C9  UNL     1      21.483   6.860  46.694  1.00  0.00     0.206 C 
BRANCH  25  26
HETATM   26  C10 UNL     1      21.246   8.203  47.323  1.00  0.00     0.297 C 
BRANCH  26  27
HETATM   27  N1  UNL     1      20.582   8.148  48.603  1.00  0.00     0.082 N 
HETATM   28  C11 UNL     1      21.477   8.411  49.703  1.00  0.00     0.309 C 
HETATM   29  C12 UNL     1      19.855   6.912  48.739  1.00  0.00     0.309 C 
ENDBRANCH  26  27
ENDBRANCH  25  26
ENDBRANCH  24  25
ENDBRANCH   6  24
BRANCH   1  30
HETATM   30  C3  UNL     1      25.193   7.807  47.918  1.00  0.00     0.185 C 
HETATM   31  O1  UNL     1      24.775   8.858  48.469  1.00  0.00    -0.287 OA
BRANCH  30  32
HETATM   32  C2  UNL     1      26.230   8.182  46.998  1.00  0.00     0.045 C 
HETATM   33  C1  UNL     1      27.537   8.274  47.047  1.00  0.00     0.015 C 
ENDBRANCH  30  32
ENDBRANCH   1  30
TORSDOF 6
ENDMDL
MODEL 8
REMARK VINA RESULT:      -7.3      5.342      8.730
REMARK  6 active torsions:
REMARK  status: ('A' for Active; 'I' for Inactive)
REMARK    1  A    between atoms: C2_2  and  C3_3 
REMARK    2  A    between atoms: C3_3  and  C4_5 
REMARK    3  A    between atoms: C8_10  and  O2_11 
REMARK    4  A    between atoms: O2_11  and  C9_12 
REMARK    5  A    between atoms: C9_12  and  C10_13 
REMARK    6  A    between atoms: C10_13  and  N1_14 
ROOT
HETATM    1  C4  UNL     1      17.431   2.851  51.460  1.00  0.00     0.063 A 
HETATM    2  P1  UNL     1      19.060   3.415  51.758  1.00  0.00     0.016 P 
HETATM    3  C5  UNL     1      20.211   2.139  52.093  1.00  0.00     0.055 A 
HETATM    4  C6  UNL     1      19.767   0.830  52.098  1.00  0.00    -0.008 A 
HETATM    5  C7  UNL     1      18.424   0.671  51.830  1.00  0.00     0.049 A 
HETATM    6  C8  UNL     1      17.368   1.475  51.549  1.00  0.00     0.085 A 
HETATM    7  C13 UNL     1      20.516  -0.430  52.345  1.00  0.00     0.191 C 
HETATM    8  N2  UNL     1      21.628  -0.326  53.208  1.00  0.00    -0.279 NA
HETATM    9  C14 UNL     1      22.710  -1.061  53.097  1.00  0.00     0.222 C 
HETATM   10  N3  UNL     1      23.745  -0.800  54.085  1.00  0.00    -0.268 N 
HETATM   11  C15 UNL     1      23.090  -1.153  55.355  1.00  0.00     0.181 C 
HETATM   12  N4  UNL     1      25.037  -0.368  54.216  1.00  0.00    -0.182 NA
HETATM   13  C16 UNL     1      25.731   0.449  53.563  1.00  0.00     0.170 C 
HETATM   14  C17 UNL     1      25.813   1.375  52.455  1.00  0.00     0.077 A 
HETATM   15  C18 UNL     1      26.852   1.705  51.625  1.00  0.00     0.035 A 
HETATM   16  C19 UNL     1      26.284   2.629  50.778  1.00  0.00     0.030 A 
HETATM   17  C20 UNL     1      24.974   2.882  51.036  1.00  0.00     0.044 A 
HETATM   18  N5  UNL     1      24.777   2.071  52.075  1.00  0.00    -0.235 N 
HETATM   19  N6  UNL     1      23.505   2.021  52.609  1.00  0.00    -0.153 NA
HETATM   20  C21 UNL     1      22.838   2.838  51.874  1.00  0.00     0.131 A 
HETATM   21  C22 UNL     1      23.651   3.536  50.846  1.00  0.00     0.139 A 
HETATM   22  N7  UNL     1      21.475   2.784  52.307  1.00  0.00    -0.341 N 
HETATM   23  H26 UNL     1      21.548   3.546  53.051  1.00  0.00     0.167 HD
ENDROOT
BRANCH   6  24
HETATM   24  O2  UNL     1      16.057   0.983  51.313  1.00  0.00    -0.348 OA
BRANCH  24  25
HETATM   25  C9  UNL     1      15.498   0.009  52.174  1.00  0.00     0.206 C 
BRANCH  25  26
HETATM   26  C10 UNL     1      14.437   0.675  53.003  1.00  0.00     0.297 C 
BRANCH  26  27
HETATM   27  N1  UNL     1      13.676   1.678  52.297  1.00  0.00     0.082 N 
HETATM   28  C11 UNL     1      13.248   2.754  53.156  1.00  0.00     0.309 C 
HETATM   29  C12 UNL     1      12.597   1.066  51.565  1.00  0.00     0.309 C 
ENDBRANCH  26  27
ENDBRANCH  25  26
ENDBRANCH  24  25
ENDBRANCH   6  24
BRANCH   1  30
HETATM   30  C3  UNL     1      16.410   3.831  51.176  1.00  0.00     0.185 C 
HETATM   31  O1  UNL     1      16.069   4.555  52.147  1.00  0.00    -0.287 OA
BRANCH  30  32
HETATM   32  C2  UNL     1      15.631   4.233  50.038  1.00  0.00     0.045 C 
HETATM   33  C1  UNL     1      14.374   4.127  49.679  1.00  0.00     0.015 C 
ENDBRANCH  30  32
ENDBRANCH   1  30
TORSDOF 6
ENDMDL
MODEL 9
REMARK VINA RESULT:      -7.3      4.138      8.430
REMARK  6 active torsions:
REMARK  status: ('A' for Active; 'I' for Inactive)
REMARK    1  A    between atoms: C2_2  and  C3_3 
REMARK    2  A    between atoms: C3_3  and  C4_5 
REMARK    3  A    between atoms: C8_10  and  O2_11 
REMARK    4  A    between atoms: O2_11  and  C9_12 
REMARK    5  A    between atoms: C9_12  and  C10_13 
REMARK    6  A    between atoms: C10_13  and  N1_14 
ROOT
HETATM    1  C4  UNL     1      23.870   6.504  47.956  1.00  0.00     0.063 A 
HETATM    2  P1  UNL     1      24.626   5.733  49.333  1.00  0.00     0.016 P 
HETATM    3  C5  UNL     1      23.891   4.213  49.797  1.00  0.00     0.055 A 
HETATM    4  C6  UNL     1      22.810   3.751  49.072  1.00  0.00    -0.008 A 
HETATM    5  C7  UNL     1      22.418   4.564  48.030  1.00  0.00     0.049 A 
HETATM    6  C8  UNL     1      22.815   5.744  47.492  1.00  0.00     0.085 A 
HETATM    7  C13 UNL     1      22.008   2.510  49.242  1.00  0.00     0.191 C 
HETATM    8  N2  UNL     1      21.915   2.014  50.559  1.00  0.00    -0.279 NA
HETATM    9  C14 UNL     1      21.819   0.737  50.854  1.00  0.00     0.222 C 
HETATM   10  N3  UNL     1      21.735   0.429  52.273  1.00  0.00    -0.268 N 
HETATM   11  C15 UNL     1      20.480   1.081  52.682  1.00  0.00     0.181 C 
HETATM   12  N4  UNL     1      22.389  -0.222  53.283  1.00  0.00    -0.182 NA
HETATM   13  C16 UNL     1      23.604  -0.437  53.509  1.00  0.00     0.170 C 
HETATM   14  C17 UNL     1      24.978  -0.270  53.086  1.00  0.00     0.077 A 
HETATM   15  C18 UNL     1      26.070  -1.087  53.214  1.00  0.00     0.035 A 
HETATM   16  C19 UNL     1      27.064  -0.364  52.596  1.00  0.00     0.030 A 
HETATM   17  C20 UNL     1      26.651   0.833  52.102  1.00  0.00     0.044 A 
HETATM   18  N5  UNL     1      25.365   0.800  52.449  1.00  0.00    -0.235 N 
HETATM   19  N6  UNL     1      24.577   1.868  52.069  1.00  0.00    -0.153 NA
HETATM   20  C21 UNL     1      25.394   2.634  51.435  1.00  0.00     0.131 A 
HETATM   21  C22 UNL     1      26.797   2.147  51.419  1.00  0.00     0.139 A 
HETATM   22  N7  UNL     1      24.636   3.736  50.927  1.00  0.00    -0.341 N 
HETATM   23  H26 UNL     1      24.741   4.367  51.782  1.00  0.00     0.167 HD
ENDROOT
BRANCH   6  24
HETATM   24  O2  UNL     1      22.177   6.342  46.373  1.00  0.00    -0.348 OA
BRANCH  24  25
HETATM   25  C9  UNL     1      20.789   6.158  46.163  1.00  0.00     0.206 C 
BRANCH  25  26
HETATM   26  C10 UNL     1      20.596   5.627  44.772  1.00  0.00     0.297 C 
BRANCH  26  27
HETATM   27  N1  UNL     1      20.457   4.193  44.700  1.00  0.00     0.082 N 
HETATM   28  C11 UNL     1      20.097   3.738  43.379  1.00  0.00     0.309 C 
HETATM   29  C12 UNL     1      19.566   3.722  45.729  1.00  0.00     0.309 C 
ENDBRANCH  26  27
ENDBRANCH  25  26
ENDBRANCH  24  25
ENDBRANCH   6  24
BRANCH   1  30
HETATM   30  C3  UNL     1      24.406   7.763  47.499  1.00  0.00     0.185 C 
HETATM   31  O1  UNL     1      23.775   8.787  47.871  1.00  0.00    -0.287 OA
BRANCH  30  32
HETATM   32  C2  UNL     1      25.513   8.202  46.697  1.00  0.00     0.045 C 
HETATM   33  C1  UNL     1      26.820   8.157  46.800  1.00  0.00     0.015 C 
ENDBRANCH  30  32
ENDBRANCH   1  30
TORSDOF 6
ENDMDL
