MODEL 1
REMARK VINA RESULT:      -7.7      0.000      0.000
REMARK  6 active torsions:
REMARK  status: ('A' for Active; 'I' for Inactive)
REMARK    1  A    between atoms: C2_2  and  C3_4 
REMARK    2  A    between atoms: C4_6  and  C5_7 
REMARK       I    between atoms: C5_7  and  N1_9 
REMARK    3  A    between atoms: N1_9  and  N2_10 
REMARK    4  A    between atoms: C8_13  and  O2_14 
REMARK    5  A    between atoms: O2_14  and  C9_15 
REMARK    6  A    between atoms: C9_15  and  C10_16 
ROOT
HETATM    1  N2  UNL     1      24.003   2.051  51.055  1.00  0.00    -0.223 NA
HETATM    2  C6  UNL     1      22.938   1.234  51.799  1.00  0.00     0.120 C 
HETATM    3  C7  UNL     1      21.662   1.264  51.073  1.00  0.00     0.080 C 
HETATM    4  C8  UNL     1      20.390   0.886  51.701  1.00  0.00     0.045 C 
HETATM    5  C12 UNL     1      19.907   2.178  51.889  1.00  0.00     0.034 C 
HETATM    6  C13 UNL     1      20.041   3.680  51.780  1.00  0.00     0.327 C 
HETATM    7  N3  UNL     1      21.156   3.925  51.280  1.00  0.00    -0.413 NA
HETATM    8  C14 UNL     1      21.926   5.057  50.905  1.00  0.00     0.092 C 
HETATM    9  C15 UNL     1      23.295   4.668  50.970  1.00  0.00     0.051 C 
HETATM   10  C16 UNL     1      24.357   5.549  50.674  1.00  0.00     0.098 C 
HETATM   11  N4  UNL     1      25.212   6.257  50.448  1.00  0.00    -0.192 NA
HETATM   12  C17 UNL     1      23.488   3.292  51.234  1.00  0.00     0.165 C 
ENDROOT
BRANCH   1  13
HETATM   13  N1  UNL     1      25.224   1.733  51.602  1.00  0.00    -0.285 N 
HETATM   14  C5  UNL     1      26.628   1.922  51.729  1.00  0.00     0.257 C 
HETATM   15  O1  UNL     1      26.956   2.869  50.938  1.00  0.00    -0.267 OA
HETATM   16  H4  UNL     1      24.747   0.983  52.191  1.00  0.00     0.184 HD
BRANCH  14  17
HETATM   17  C4  UNL     1      27.461   1.137  52.617  1.00  0.00     0.098 C 
HETATM   18  C3  UNL     1      27.777  -0.058  53.083  1.00  0.00     0.051 C 
HETATM   19 CL1  UNL     1      26.791  -1.304  52.342  1.00  0.00    -0.086 Cl
BRANCH  18  20
HETATM   20  C2  UNL     1      28.800  -0.349  54.077  1.00  0.00     0.119 C 
HETATM   21  C1  UNL     1      29.828  -0.997  53.628  1.00  0.00     0.140 C 
HETATM   22  F1  UNL     1      28.716   0.015  55.366  1.00  0.00    -0.243 F 
ENDBRANCH  18  20
ENDBRANCH  14  17
ENDBRANCH   1  13
BRANCH   4  23
HETATM   23  O2  UNL     1      19.539  -0.091  52.147  1.00  0.00    -0.356 OA
BRANCH  23  24
HETATM   24  C9  UNL     1      19.518  -0.625  53.433  1.00  0.00     0.174 C 
BRANCH  24  25
HETATM   25  C10 UNL     1      20.839  -1.231  53.844  1.00  0.00     0.022 C 
HETATM   26  C11 UNL     1      21.486  -0.388  54.910  1.00  0.00     0.007 C 
ENDBRANCH  24  25
ENDBRANCH  23  24
ENDBRANCH   4  23
TORSDOF 6
ENDMDL
MODEL 2
REMARK VINA RESULT:      -7.7      2.386      4.749
REMARK  6 active torsions:
REMARK  status: ('A' for Active; 'I' for Inactive)
REMARK    1  A    between atoms: C2_2  and  C3_4 
REMARK    2  A    between atoms: C4_6  and  C5_7 
REMARK       I    between atoms: C5_7  and  N1_9 
REMARK    3  A    between atoms: N1_9  and  N2_10 
REMARK    4  A    between atoms: C8_13  and  O2_14 
REMARK    5  A    between atoms: O2_14  and  C9_15 
REMARK    6  A    between atoms: C9_15  and  C10_16 
ROOT
HETATM    1  N2  UNL     1      23.898   1.547  53.136  1.00  0.00    -0.223 NA
HETATM    2  C6  UNL     1      23.825   2.181  51.741  1.00  0.00     0.120 C 
HETATM    3  C7  UNL     1      22.589   2.960  51.591  1.00  0.00     0.080 C 
HETATM    4  C8  UNL     1      22.076   3.375  50.280  1.00  0.00     0.045 C 
HETATM    5  C12 UNL     1      21.067   2.421  50.185  1.00  0.00     0.034 C 
HETATM    6  C13 UNL     1      20.294   1.240  50.728  1.00  0.00     0.327 C 
HETATM    7  N3  UNL     1      20.810   0.918  51.816  1.00  0.00    -0.413 NA
HETATM    8  C14 UNL     1      20.623  -0.052  52.834  1.00  0.00     0.092 C 
HETATM    9  C15 UNL     1      21.887  -0.244  53.464  1.00  0.00     0.051 C 
HETATM   10  C16 UNL     1      22.084  -1.154  54.524  1.00  0.00     0.098 C 
HETATM   11  N4  UNL     1      22.250  -1.893  55.366  1.00  0.00    -0.192 NA
HETATM   12  C17 UNL     1      22.890   0.648  53.018  1.00  0.00     0.165 C 
ENDROOT
BRANCH   1  13
HETATM   13  N1  UNL     1      25.187   1.106  53.322  1.00  0.00    -0.285 N 
HETATM   14  C5  UNL     1      26.531   1.303  53.747  1.00  0.00     0.257 C 
HETATM   15  O1  UNL     1      26.617   2.498  54.189  1.00  0.00    -0.267 OA
HETATM   16  H4  UNL     1      24.904   0.159  52.922  1.00  0.00     0.184 HD
BRANCH  14  17
HETATM   17  C4  UNL     1      27.553   0.281  53.658  1.00  0.00     0.098 C 
HETATM   18  C3  UNL     1      27.900  -0.913  53.212  1.00  0.00     0.051 C 
HETATM   19 CL1  UNL     1      26.588  -1.658  52.318  1.00  0.00    -0.086 Cl
BRANCH  18  20
HETATM   20  C2  UNL     1      29.186  -1.564  53.411  1.00  0.00     0.119 C 
HETATM   21  C1  UNL     1      30.183  -0.756  53.594  1.00  0.00     0.140 C 
HETATM   22  F1  UNL     1      29.360  -2.895  53.414  1.00  0.00    -0.243 F 
ENDBRANCH  18  20
ENDBRANCH  14  17
ENDBRANCH   1  13
BRANCH   4  23
HETATM   23  O2  UNL     1      22.143   4.215  49.198  1.00  0.00    -0.356 OA
BRANCH  23  24
HETATM   24  C9  UNL     1      23.294   4.514  48.473  1.00  0.00     0.174 C 
BRANCH  24  25
HETATM   25  C10 UNL     1      24.306   5.303  49.269  1.00  0.00     0.022 C 
HETATM   26  C11 UNL     1      25.594   4.532  49.378  1.00  0.00     0.007 C 
ENDBRANCH  24  25
ENDBRANCH  23  24
ENDBRANCH   4  23
TORSDOF 6
ENDMDL
MODEL 3
REMARK VINA RESULT:      -7.4      2.766      4.867
REMARK  6 active torsions:
REMARK  status: ('A' for Active; 'I' for Inactive)
REMARK    1  A    between atoms: C2_2  and  C3_4 
REMARK    2  A    between atoms: C4_6  and  C5_7 
REMARK       I    between atoms: C5_7  and  N1_9 
REMARK    3  A    between atoms: N1_9  and  N2_10 
REMARK    4  A    between atoms: C8_13  and  O2_14 
REMARK    5  A    between atoms: O2_14  and  C9_15 
REMARK    6  A    between atoms: C9_15  and  C10_16 
ROOT
HETATM    1  N2  UNL     1      23.860   1.498  52.996  1.00  0.00    -0.223 NA
HETATM    2  C6  UNL     1      23.804   2.058  51.569  1.00  0.00     0.120 C 
HETATM    3  C7  UNL     1      22.561   2.810  51.358  1.00  0.00     0.080 C 
HETATM    4  C8  UNL     1      22.066   3.151  50.018  1.00  0.00     0.045 C 
HETATM    5  C12 UNL     1      21.072   2.178  49.955  1.00  0.00     0.034 C 
HETATM    6  C13 UNL     1      20.306   1.015  50.544  1.00  0.00     0.327 C 
HETATM    7  N3  UNL     1      20.807   0.757  51.656  1.00  0.00    -0.413 NA
HETATM    8  C14 UNL     1      20.614  -0.163  52.719  1.00  0.00     0.092 C 
HETATM    9  C15 UNL     1      21.868  -0.304  53.380  1.00  0.00     0.051 C 
HETATM   10  C16 UNL     1      22.059  -1.156  54.488  1.00  0.00     0.098 C 
HETATM   11  N4  UNL     1      22.219  -1.848  55.370  1.00  0.00    -0.192 NA
HETATM   12  C17 UNL     1      22.867   0.578  52.907  1.00  0.00     0.165 C 
ENDROOT
BRANCH   1  13
HETATM   13  N1  UNL     1      25.152   1.086  53.227  1.00  0.00    -0.285 N 
HETATM   14  C5  UNL     1      26.465   1.300  53.731  1.00  0.00     0.257 C 
HETATM   15  O1  UNL     1      26.490   2.474  54.235  1.00  0.00    -0.267 OA
HETATM   16  H4  UNL     1      24.920   0.152  52.767  1.00  0.00     0.184 HD
BRANCH  14  17
HETATM   17  C4  UNL     1      27.523   0.314  53.645  1.00  0.00     0.098 C 
HETATM   18  C3  UNL     1      27.904  -0.877  53.223  1.00  0.00     0.051 C 
HETATM   19 CL1  UNL     1      26.601  -1.694  52.380  1.00  0.00    -0.086 Cl
BRANCH  18  20
HETATM   20  C2  UNL     1      29.219  -1.475  53.410  1.00  0.00     0.119 C 
HETATM   21  C1  UNL     1      30.182  -0.627  53.585  1.00  0.00     0.140 C 
HETATM   22  F1  UNL     1      29.447  -2.797  53.408  1.00  0.00    -0.243 F 
ENDBRANCH  18  20
ENDBRANCH  14  17
ENDBRANCH   1  13
BRANCH   4  23
HETATM   23  O2  UNL     1      22.141   3.935  48.897  1.00  0.00    -0.356 OA
BRANCH  23  24
HETATM   24  C9  UNL     1      21.299   3.853  47.790  1.00  0.00     0.174 C 
BRANCH  24  25
HETATM   25  C10 UNL     1      21.964   3.232  46.585  1.00  0.00     0.022 C 
HETATM   26  C11 UNL     1      21.861   4.158  45.402  1.00  0.00     0.007 C 
ENDBRANCH  24  25
ENDBRANCH  23  24
ENDBRANCH   4  23
TORSDOF 6
ENDMDL
MODEL 4
REMARK VINA RESULT:      -7.4      3.573      5.700
REMARK  6 active torsions:
REMARK  status: ('A' for Active; 'I' for Inactive)
REMARK    1  A    between atoms: C2_2  and  C3_4 
REMARK    2  A    between atoms: C4_6  and  C5_7 
REMARK       I    between atoms: C5_7  and  N1_9 
REMARK    3  A    between atoms: N1_9  and  N2_10 
REMARK    4  A    between atoms: C8_13  and  O2_14 
REMARK    5  A    between atoms: O2_14  and  C9_15 
REMARK    6  A    between atoms: C9_15  and  C10_16 
ROOT
HETATM    1  N2  UNL     1      24.874   3.116  52.146  1.00  0.00    -0.223 NA
HETATM    2  C6  UNL     1      23.729   2.260  51.586  1.00  0.00     0.120 C 
HETATM    3  C7  UNL     1      22.929   1.690  52.677  1.00  0.00     0.080 C 
HETATM    4  C8  UNL     1      22.009   0.564  52.472  1.00  0.00     0.045 C 
HETATM    5  C12 UNL     1      22.821  -0.420  53.029  1.00  0.00     0.034 C 
HETATM    6  C13 UNL     1      24.104  -0.872  53.691  1.00  0.00     0.327 C 
HETATM    7  N3  UNL     1      24.848   0.123  53.793  1.00  0.00    -0.413 NA
HETATM    8  C14 UNL     1      26.142   0.434  54.285  1.00  0.00     0.092 C 
HETATM    9  C15 UNL     1      26.599   1.573  53.561  1.00  0.00     0.051 C 
HETATM   10  C16 UNL     1      27.864   2.161  53.776  1.00  0.00     0.098 C 
HETATM   11  N4  UNL     1      28.883   2.628  53.938  1.00  0.00    -0.192 NA
HETATM   12  C17 UNL     1      25.626   2.134  52.701  1.00  0.00     0.165 C 
ENDROOT
BRANCH   1  13
HETATM   13  N1  UNL     1      25.381   3.858  51.105  1.00  0.00    -0.285 N 
HETATM   14  C5  UNL     1      26.145   3.985  49.912  1.00  0.00     0.257 C 
HETATM   15  O1  UNL     1      26.617   2.831  49.640  1.00  0.00    -0.267 OA
HETATM   16  H4  UNL     1      24.892   4.719  51.502  1.00  0.00     0.184 HD
BRANCH  14  17
HETATM   17  C4  UNL     1      26.307   5.236  49.199  1.00  0.00     0.098 C 
HETATM   18  C3  UNL     1      27.103   6.029  48.505  1.00  0.00     0.051 C 
HETATM   19 CL1  UNL     1      28.695   5.317  48.321  1.00  0.00    -0.086 Cl
BRANCH  18  20
HETATM   20  C2  UNL     1      26.750   7.327  47.948  1.00  0.00     0.119 C 
HETATM   21  C1  UNL     1      25.499   7.467  47.644  1.00  0.00     0.140 C 
HETATM   22  F1  UNL     1      27.629   8.322  47.755  1.00  0.00    -0.243 F 
ENDBRANCH  18  20
ENDBRANCH  14  17
ENDBRANCH   1  13
BRANCH   4  23
HETATM   23  O2  UNL     1      20.806   0.092  52.014  1.00  0.00    -0.356 OA
BRANCH  23  24
HETATM   24  C9  UNL     1      19.562   0.352  52.583  1.00  0.00     0.174 C 
BRANCH  24  25
HETATM   25  C10 UNL     1      18.934  -0.868  53.214  1.00  0.00     0.022 C 
HETATM   26  C11 UNL     1      17.532  -1.055  52.697  1.00  0.00     0.007 C 
ENDBRANCH  24  25
ENDBRANCH  23  24
ENDBRANCH   4  23
TORSDOF 6
ENDMDL
MODEL 5
REMARK VINA RESULT:      -7.3      3.556      7.073
REMARK  6 active torsions:
REMARK  status: ('A' for Active; 'I' for Inactive)
REMARK    1  A    between atoms: C2_2  and  C3_4 
REMARK    2  A    between atoms: C4_6  and  C5_7 
REMARK       I    between atoms: C5_7  and  N1_9 
REMARK    3  A    between atoms: N1_9  and  N2_10 
REMARK    4  A    between atoms: C8_13  and  O2_14 
REMARK    5  A    between atoms: O2_14  and  C9_15 
REMARK    6  A    between atoms: C9_15  and  C10_16 
ROOT
HETATM    1  N2  UNL     1      23.431   1.129  51.863  1.00  0.00    -0.223 NA
HETATM    2  C6  UNL     1      24.616   1.142  52.837  1.00  0.00     0.120 C 
HETATM    3  C7  UNL     1      25.034  -0.227  53.161  1.00  0.00     0.080 C 
HETATM    4  C8  UNL     1      25.886  -0.537  54.316  1.00  0.00     0.045 C 
HETATM    5  C12 UNL     1      24.877  -1.028  55.140  1.00  0.00     0.034 C 
HETATM    6  C13 UNL     1      23.430  -1.371  55.417  1.00  0.00     0.327 C 
HETATM    7  N3  UNL     1      22.766  -1.043  54.415  1.00  0.00    -0.413 NA
HETATM    8  C14 UNL     1      21.414  -1.063  53.984  1.00  0.00     0.092 C 
HETATM    9  C15 UNL     1      21.265  -0.016  53.029  1.00  0.00     0.051 C 
HETATM   10  C16 UNL     1      20.040   0.271  52.391  1.00  0.00     0.098 C 
HETATM   11  N4  UNL     1      19.055   0.512  51.886  1.00  0.00    -0.192 NA
HETATM   12  C17 UNL     1      22.479   0.623  52.686  1.00  0.00     0.165 C 
ENDROOT
BRANCH   1  13
HETATM   13  N1  UNL     1      23.292   2.403  51.364  1.00  0.00    -0.285 N 
HETATM   14  C5  UNL     1      23.137   3.317  50.284  1.00  0.00     0.257 C 
HETATM   15  O1  UNL     1      23.109   2.630  49.208  1.00  0.00    -0.267 OA
HETATM   16  H4  UNL     1      23.332   2.781  52.360  1.00  0.00     0.184 HD
BRANCH  14  17
HETATM   17  C4  UNL     1      23.039   4.751  50.462  1.00  0.00     0.098 C 
HETATM   18  C3  UNL     1      23.418   5.952  50.064  1.00  0.00     0.051 C 
HETATM   19 CL1  UNL     1      24.543   5.846  48.723  1.00  0.00    -0.086 Cl
BRANCH  18  20
HETATM   20  C2  UNL     1      22.986   7.221  50.632  1.00  0.00     0.119 C 
HETATM   21  C1  UNL     1      21.718   7.462  50.525  1.00  0.00     0.140 C 
HETATM   22  F1  UNL     1      23.812   8.093  51.230  1.00  0.00    -0.243 F 
ENDBRANCH  18  20
ENDBRANCH  14  17
ENDBRANCH   1  13
BRANCH   4  23
HETATM   23  O2  UNL     1      27.128  -0.556  54.895  1.00  0.00    -0.356 OA
BRANCH  23  24
HETATM   24  C9  UNL     1      28.105   0.426  54.753  1.00  0.00     0.174 C 
BRANCH  24  25
HETATM   25  C10 UNL     1      28.983   0.218  53.542  1.00  0.00     0.022 C 
HETATM   26  C11 UNL     1      29.663  -1.123  53.621  1.00  0.00     0.007 C 
ENDBRANCH  24  25
ENDBRANCH  23  24
ENDBRANCH   4  23
TORSDOF 6
ENDMDL
MODEL 6
REMARK VINA RESULT:      -7.1      4.579      5.792
REMARK  6 active torsions:
REMARK  status: ('A' for Active; 'I' for Inactive)
REMARK    1  A    between atoms: C2_2  and  C3_4 
REMARK    2  A    between atoms: C4_6  and  C5_7 
REMARK       I    between atoms: C5_7  and  N1_9 
REMARK    3  A    between atoms: N1_9  and  N2_10 
REMARK    4  A    between atoms: C8_13  and  O2_14 
REMARK    5  A    between atoms: O2_14  and  C9_15 
REMARK    6  A    between atoms: C9_15  and  C10_16 
ROOT
HETATM    1  N2  UNL     1      26.275   5.117  49.065  1.00  0.00    -0.223 NA
HETATM    2  C6  UNL     1      26.140   3.852  49.924  1.00  0.00     0.120 C 
HETATM    3  C7  UNL     1      24.728   3.483  50.081  1.00  0.00     0.080 C 
HETATM    4  C8  UNL     1      24.269   2.552  51.119  1.00  0.00     0.045 C 
HETATM    5  C12 UNL     1      23.748   3.510  51.984  1.00  0.00     0.034 C 
HETATM    6  C13 UNL     1      23.448   4.944  52.360  1.00  0.00     0.327 C 
HETATM    7  N3  UNL     1      23.901   5.674  51.457  1.00  0.00    -0.413 NA
HETATM    8  C14 UNL     1      23.984   7.058  51.153  1.00  0.00     0.092 C 
HETATM    9  C15 UNL     1      25.123   7.232  50.315  1.00  0.00     0.051 C 
HETATM   10  C16 UNL     1      25.527   8.490  49.822  1.00  0.00     0.098 C 
HETATM   11  N4  UNL     1      25.860   9.501  49.434  1.00  0.00    -0.192 NA
HETATM   12  C17 UNL     1      25.736   6.019  49.922  1.00  0.00     0.165 C 
ENDROOT
BRANCH   1  13
HETATM   13  N1  UNL     1      27.596   5.229  48.700  1.00  0.00    -0.285 N 
HETATM   14  C5  UNL     1      28.698   5.973  48.193  1.00  0.00     0.257 C 
HETATM   15  O1  UNL     1      28.274   7.149  47.933  1.00  0.00    -0.267 OA
HETATM   16  H4  UNL     1      27.745   4.213  48.986  1.00  0.00     0.184 HD
BRANCH  14  17
HETATM   17  C4  UNL     1      30.027   5.419  48.032  1.00  0.00     0.098 C 
HETATM   18  C3  UNL     1      31.313   5.503  48.321  1.00  0.00     0.051 C 
HETATM   19 CL1  UNL     1      31.635   6.875  49.364  1.00  0.00    -0.086 Cl
BRANCH  18  20
HETATM   20  C2  UNL     1      32.358   4.601  47.859  1.00  0.00     0.119 C 
HETATM   21  C1  UNL     1      31.990   3.766  46.939  1.00  0.00     0.140 C 
HETATM   22  F1  UNL     1      33.616   4.611  48.327  1.00  0.00    -0.243 F 
ENDBRANCH  18  20
ENDBRANCH  14  17
ENDBRANCH   1  13
BRANCH   4  23
HETATM   23  O2  UNL     1      24.138   1.267  51.577  1.00  0.00    -0.356 OA
BRANCH  23  24
HETATM   24  C9  UNL     1      24.961   0.652  52.518  1.00  0.00     0.174 C 
BRANCH  24  25
HETATM   25  C10 UNL     1      26.369   0.435  52.019  1.00  0.00     0.022 C 
HETATM   26  C11 UNL     1      26.871  -0.916  52.456  1.00  0.00     0.007 C 
ENDBRANCH  24  25
ENDBRANCH  23  24
ENDBRANCH   4  23
TORSDOF 6
ENDMDL
MODEL 7
REMARK VINA RESULT:      -7.1      4.173      6.791
REMARK  6 active torsions:
REMARK  status: ('A' for Active; 'I' for Inactive)
REMARK    1  A    between atoms: C2_2  and  C3_4 
REMARK    2  A    between atoms: C4_6  and  C5_7 
REMARK       I    between atoms: C5_7  and  N1_9 
REMARK    3  A    between atoms: N1_9  and  N2_10 
REMARK    4  A    between atoms: C8_13  and  O2_14 
REMARK    5  A    between atoms: O2_14  and  C9_15 
REMARK    6  A    between atoms: C9_15  and  C10_16 
ROOT
HETATM    1  N2  UNL     1      26.066   3.144  49.763  1.00  0.00    -0.223 NA
HETATM    2  C6  UNL     1      26.563   3.082  51.214  1.00  0.00     0.120 C 
HETATM    3  C7  UNL     1      26.417   1.723  51.752  1.00  0.00     0.080 C 
HETATM    4  C8  UNL     1      26.468   1.438  53.191  1.00  0.00     0.045 C 
HETATM    5  C12 UNL     1      25.097   1.277  53.377  1.00  0.00     0.034 C 
HETATM    6  C13 UNL     1      23.675   1.260  52.863  1.00  0.00     0.327 C 
HETATM    7  N3  UNL     1      23.708   1.551  51.652  1.00  0.00    -0.413 NA
HETATM    8  C14 UNL     1      22.798   1.720  50.576  1.00  0.00     0.092 C 
HETATM    9  C15 UNL     1      23.407   2.618  49.653  1.00  0.00     0.051 C 
HETATM   10  C16 UNL     1      22.781   3.031  48.458  1.00  0.00     0.098 C 
HETATM   11  N4  UNL     1      22.276   3.374  47.504  1.00  0.00    -0.192 NA
HETATM   12  C17 UNL     1      24.741   2.957  49.979  1.00  0.00     0.165 C 
ENDROOT
BRANCH   1  13
HETATM   13  N1  UNL     1      26.509   4.330  49.226  1.00  0.00    -0.285 N 
HETATM   14  C5  UNL     1      26.505   5.751  49.150  1.00  0.00     0.257 C 
HETATM   15  O1  UNL     1      25.666   6.174  50.015  1.00  0.00    -0.267 OA
HETATM   16  H4  UNL     1      27.156   3.779  48.582  1.00  0.00     0.184 HD
BRANCH  14  17
HETATM   17  C4  UNL     1      27.332   6.502  48.229  1.00  0.00     0.098 C 
HETATM   18  C3  UNL     1      28.519   6.663  47.673  1.00  0.00     0.051 C 
HETATM   19 CL1  UNL     1      29.659   5.468  48.265  1.00  0.00    -0.086 Cl
BRANCH  18  20
HETATM   20  C2  UNL     1      28.880   7.680  46.696  1.00  0.00     0.119 C 
HETATM   21  C1  UNL     1      28.010   8.629  46.551  1.00  0.00     0.140 C 
HETATM   22  F1  UNL     1      30.019   7.666  45.987  1.00  0.00    -0.243 F 
ENDBRANCH  18  20
ENDBRANCH  14  17
ENDBRANCH   1  13
BRANCH   4  23
HETATM   23  O2  UNL     1      27.202   1.273  54.336  1.00  0.00    -0.356 OA
BRANCH  23  24
HETATM   24  C9  UNL     1      28.072   0.217  54.598  1.00  0.00     0.174 C 
BRANCH  24  25
HETATM   25  C10 UNL     1      29.335   0.272  53.772  1.00  0.00     0.022 C 
HETATM   26  C11 UNL     1      29.836  -1.121  53.499  1.00  0.00     0.007 C 
ENDBRANCH  24  25
ENDBRANCH  23  24
ENDBRANCH   4  23
TORSDOF 6
ENDMDL
MODEL 8
REMARK VINA RESULT:      -7.1      2.334      5.120
REMARK  6 active torsions:
REMARK  status: ('A' for Active; 'I' for Inactive)
REMARK    1  A    between atoms: C2_2  and  C3_4 
REMARK    2  A    between atoms: C4_6  and  C5_7 
REMARK       I    between atoms: C5_7  and  N1_9 
REMARK    3  A    between atoms: N1_9  and  N2_10 
REMARK    4  A    between atoms: C8_13  and  O2_14 
REMARK    5  A    between atoms: O2_14  and  C9_15 
REMARK    6  A    between atoms: C9_15  and  C10_16 
ROOT
HETATM    1  N2  UNL     1      24.098   2.212  53.233  1.00  0.00    -0.223 NA
HETATM    2  C6  UNL     1      24.502   3.153  52.090  1.00  0.00     0.120 C 
HETATM    3  C7  UNL     1      23.636   4.338  52.064  1.00  0.00     0.080 C 
HETATM    4  C8  UNL     1      23.546   5.222  50.895  1.00  0.00     0.045 C 
HETATM    5  C12 UNL     1      22.322   4.754  50.426  1.00  0.00     0.034 C 
HETATM    6  C13 UNL     1      21.121   3.839  50.516  1.00  0.00     0.327 C 
HETATM    7  N3  UNL     1      21.287   3.094  51.502  1.00  0.00    -0.413 NA
HETATM    8  C14 UNL     1      20.606   2.038  52.161  1.00  0.00     0.092 C 
HETATM    9  C15 UNL     1      21.594   1.252  52.821  1.00  0.00     0.051 C 
HETATM   10  C16 UNL     1      21.281   0.101  53.573  1.00  0.00     0.098 C 
HETATM   11  N4  UNL     1      21.034  -0.831  54.169  1.00  0.00    -0.192 NA
HETATM   12  C17 UNL     1      22.897   1.799  52.758  1.00  0.00     0.165 C 
ENDROOT
BRANCH   1  13
HETATM   13  N1  UNL     1      25.115   1.302  53.398  1.00  0.00    -0.285 N 
HETATM   14  C5  UNL     1      25.617   0.052  53.857  1.00  0.00     0.257 C 
HETATM   15  O1  UNL     1      24.644  -0.569  54.403  1.00  0.00    -0.267 OA
HETATM   16  H4  UNL     1      25.777   1.975  52.902  1.00  0.00     0.184 HD
BRANCH  14  17
HETATM   17  C4  UNL     1      26.996  -0.360  53.696  1.00  0.00     0.098 C 
HETATM   18  C3  UNL     1      27.849  -1.220  53.167  1.00  0.00     0.051 C 
HETATM   19 CL1  UNL     1      27.011  -2.437  52.222  1.00  0.00    -0.086 Cl
BRANCH  18  20
HETATM   20  C2  UNL     1      29.296  -1.199  53.321  1.00  0.00     0.119 C 
HETATM   21  C1  UNL     1      29.836  -2.354  53.548  1.00  0.00     0.140 C 
HETATM   22  F1  UNL     1      30.042  -0.086  53.235  1.00  0.00    -0.243 F 
ENDBRANCH  18  20
ENDBRANCH  14  17
ENDBRANCH   1  13
BRANCH   4  23
HETATM   23  O2  UNL     1      24.087   6.219  50.125  1.00  0.00    -0.356 OA
BRANCH  23  24
HETATM   24  C9  UNL     1      25.443   6.394  49.858  1.00  0.00     0.174 C 
BRANCH  24  25
HETATM   25  C10 UNL     1      26.100   5.153  49.302  1.00  0.00     0.022 C 
HETATM   26  C11 UNL     1      27.369   5.519  48.579  1.00  0.00     0.007 C 
ENDBRANCH  24  25
ENDBRANCH  23  24
ENDBRANCH   4  23
TORSDOF 6
ENDMDL
MODEL 9
REMARK VINA RESULT:      -7.0      3.751      6.666
REMARK  6 active torsions:
REMARK  status: ('A' for Active; 'I' for Inactive)
REMARK    1  A    between atoms: C2_2  and  C3_4 
REMARK    2  A    between atoms: C4_6  and  C5_7 
REMARK       I    between atoms: C5_7  and  N1_9 
REMARK    3  A    between atoms: N1_9  and  N2_10 
REMARK    4  A    between atoms: C8_13  and  O2_14 
REMARK    5  A    between atoms: O2_14  and  C9_15 
REMARK    6  A    between atoms: C9_15  and  C10_16 
ROOT
HETATM    1  N2  UNL     1      25.073   2.120  50.805  1.00  0.00    -0.223 NA
HETATM    2  C6  UNL     1      26.092   1.717  51.880  1.00  0.00     0.120 C 
HETATM    3  C7  UNL     1      26.093   0.262  52.072  1.00  0.00     0.080 C 
HETATM    4  C8  UNL     1      26.686  -0.375  53.254  1.00  0.00     0.045 C 
HETATM    5  C12 UNL     1      25.490  -0.644  53.915  1.00  0.00     0.034 C 
HETATM    6  C13 UNL     1      23.982  -0.600  54.013  1.00  0.00     0.327 C 
HETATM    7  N3  UNL     1      23.554  -0.011  53.001  1.00  0.00    -0.413 NA
HETATM    8  C14 UNL     1      22.308   0.380  52.448  1.00  0.00     0.092 C 
HETATM    9  C15 UNL     1      22.558   1.511  51.618  1.00  0.00     0.051 C 
HETATM   10  C16 UNL     1      21.538   2.181  50.909  1.00  0.00     0.098 C 
HETATM   11  N4  UNL     1      20.721   2.729  50.348  1.00  0.00    -0.192 NA
HETATM   12  C17 UNL     1      23.929   1.821  51.469  1.00  0.00     0.165 C 
ENDROOT
BRANCH   1  13
HETATM   13  N1  UNL     1      25.337   3.424  50.455  1.00  0.00    -0.285 N 
HETATM   14  C5  UNL     1      26.136   4.414  49.818  1.00  0.00     0.257 C 
HETATM   15  O1  UNL     1      27.133   3.814  49.292  1.00  0.00    -0.267 OA
HETATM   16  H4  UNL     1      24.443   3.722  50.954  1.00  0.00     0.184 HD
BRANCH  14  17
HETATM   17  C4  UNL     1      25.808   5.824  49.818  1.00  0.00     0.098 C 
HETATM   18  C3  UNL     1      25.073   6.798  50.324  1.00  0.00     0.051 C 
HETATM   19 CL1  UNL     1      23.983   6.190  51.556  1.00  0.00    -0.086 Cl
BRANCH  18  20
HETATM   20  C2  UNL     1      25.127   8.202  49.943  1.00  0.00     0.119 C 
HETATM   21  C1  UNL     1      26.305   8.738  50.004  1.00  0.00     0.140 C 
HETATM   22  F1  UNL     1      24.058   8.913  49.552  1.00  0.00    -0.243 F 
ENDBRANCH  18  20
ENDBRANCH  14  17
ENDBRANCH   1  13
BRANCH   4  23
HETATM   23  O2  UNL     1      27.799  -0.788  53.939  1.00  0.00    -0.356 OA
BRANCH  23  24
HETATM   24  C9  UNL     1      29.038  -0.151  53.934  1.00  0.00     0.174 C 
BRANCH  24  25
HETATM   25  C10 UNL     1      29.050   1.125  54.741  1.00  0.00     0.022 C 
HETATM   26  C11 UNL     1      29.041   2.318  53.823  1.00  0.00     0.007 C 
ENDBRANCH  24  25
ENDBRANCH  23  24
ENDBRANCH   4  23
TORSDOF 6
ENDMDL
