MODEL 1
REMARK VINA RESULT:      -7.9      0.000      0.000
REMARK  7 active torsions:
REMARK  status: ('A' for Active; 'I' for Inactive)
REMARK    1  A    between atoms: O1_2  and  C2_3 
REMARK    2  A    between atoms: C4_5  and  O2_6 
REMARK    3  A    between atoms: O2_6  and  C5_7 
REMARK    4  A    between atoms: C11_14  and  C12_15 
REMARK    5  A    between atoms: C14_17  and  C15_18 
REMARK    6  A    between atoms: C16_19  and  N2_20 
REMARK    7  A    between atoms: C16_19  and  C17_21 
ROOT
HETATM    1  C2  UNL     1      26.708   0.567  53.755  1.00  0.00     0.073 A 
HETATM    2  C3  UNL     1      25.312   0.452  53.669  1.00  0.00     0.074 A 
HETATM    3  C4  UNL     1      24.534   1.117  52.750  1.00  0.00     0.086 A 
HETATM    4  C10 UNL     1      25.233   1.928  51.894  1.00  0.00     0.056 A 
HETATM    5  C11 UNL     1      24.510   2.571  50.941  1.00  0.00     0.079 A 
HETATM    6  N3  UNL     1      25.172   3.350  50.026  1.00  0.00    -0.241 NA
HETATM    7  C18 UNL     1      26.503   3.471  50.085  1.00  0.00     0.234 A 
HETATM    8  N4  UNL     1      27.185   2.829  51.040  1.00  0.00    -0.241 NA
HETATM    9  C19 UNL     1      26.599   2.055  51.956  1.00  0.00     0.076 A 
HETATM   10  C20 UNL     1      27.380   1.406  52.858  1.00  0.00     0.069 A 
ENDROOT
BRANCH   5  11
HETATM   11  C12 UNL     1      23.033   2.749  50.852  1.00  0.00    -0.032 C 
HETATM   12  C13 UNL     1      21.874   3.457  51.462  1.00  0.00     0.050 C 
HETATM   13  C14 UNL     1      22.517   2.139  49.749  1.00  0.00     0.011 C 
BRANCH  13  14
HETATM   14  C15 UNL     1      21.154   2.065  49.290  1.00  0.00     0.027 C 
HETATM   15  C16 UNL     1      20.682   2.571  48.170  1.00  0.00     0.031 C 
BRANCH  15  16
HETATM   16  N2  UNL     1      19.332   2.478  47.753  1.00  0.00    -0.400 N 
HETATM   17  H20 UNL     1      18.410   2.743  48.101  1.00  0.00     0.156 HD
HETATM   18  H21 UNL     1      18.868   2.074  46.889  1.00  0.00     0.156 HD
ENDBRANCH  15  16
BRANCH  15  19
HETATM   19  C17 UNL     1      21.296   3.331  47.047  1.00  0.00     0.278 C 
HETATM   20  F1  UNL     1      22.363   2.668  46.477  1.00  0.00    -0.249 F 
ENDBRANCH  15  19
ENDBRANCH  13  14
ENDBRANCH   5  11
BRANCH   3  21
HETATM   21  O2  UNL     1      23.194   0.896  52.779  1.00  0.00    -0.345 OA
BRANCH  21  22
HETATM   22  C5  UNL     1      22.516  -0.311  52.736  1.00  0.00     0.132 C 
HETATM   23  C6  UNL     1      21.067  -0.130  52.251  1.00  0.00     0.062 C 
HETATM   24  C7  UNL     1      20.286   0.607  53.302  1.00  0.00     0.272 C 
HETATM   25  N1  UNL     1      20.336  -0.127  54.524  1.00  0.00     0.083 N 
HETATM   26  C8  UNL     1      21.105  -1.324  54.519  1.00  0.00     0.272 C 
HETATM   27  H10 UNL     1      20.490   0.500  55.364  1.00  0.00     0.315 HD
HETATM   28  C9  UNL     1      22.513  -1.171  53.958  1.00  0.00     0.062 C 
ENDBRANCH  21  22
ENDBRANCH   3  21
BRANCH   1  29
HETATM   29  O1  UNL     1      27.515  -0.100  54.682  1.00  0.00    -0.356 OA
HETATM   30  C1  UNL     1      28.924  -0.083  54.598  1.00  0.00     0.210 C 
ENDBRANCH   1  29
TORSDOF 7
ENDMDL
MODEL 2
REMARK VINA RESULT:      -7.8      3.208      7.246
REMARK  7 active torsions:
REMARK  status: ('A' for Active; 'I' for Inactive)
REMARK    1  A    between atoms: O1_2  and  C2_3 
REMARK    2  A    between atoms: C4_5  and  O2_6 
REMARK    3  A    between atoms: O2_6  and  C5_7 
REMARK    4  A    between atoms: C11_14  and  C12_15 
REMARK    5  A    between atoms: C14_17  and  C15_18 
REMARK    6  A    between atoms: C16_19  and  N2_20 
REMARK    7  A    between atoms: C16_19  and  C17_21 
ROOT
HETATM    1  C2  UNL     1      19.845   0.026  52.250  1.00  0.00     0.073 A 
HETATM    2  C3  UNL     1      20.871   0.834  51.735  1.00  0.00     0.074 A 
HETATM    3  C4  UNL     1      22.151   0.875  52.238  1.00  0.00     0.086 A 
HETATM    4  C10 UNL     1      22.367   0.050  53.311  1.00  0.00     0.056 A 
HETATM    5  C11 UNL     1      23.629   0.026  53.813  1.00  0.00     0.079 A 
HETATM    6  N3  UNL     1      23.908  -0.827  54.851  1.00  0.00    -0.241 NA
HETATM    7  C18 UNL     1      22.948  -1.610  55.353  1.00  0.00     0.234 A 
HETATM    8  N4  UNL     1      21.713  -1.558  54.840  1.00  0.00    -0.241 NA
HETATM    9  C19 UNL     1      21.381  -0.752  53.830  1.00  0.00     0.076 A 
HETATM   10  C20 UNL     1      20.113  -0.803  53.345  1.00  0.00     0.069 A 
ENDROOT
BRANCH   5  11
HETATM   11  C12 UNL     1      24.754   0.968  53.554  1.00  0.00    -0.032 C 
HETATM   12  C13 UNL     1      25.183   2.387  53.690  1.00  0.00     0.050 C 
HETATM   13  C14 UNL     1      25.873   0.314  53.132  1.00  0.00     0.011 C 
BRANCH  13  14
HETATM   14  C15 UNL     1      27.166   0.836  52.776  1.00  0.00     0.027 C 
HETATM   15  C16 UNL     1      28.291   0.644  53.431  1.00  0.00     0.031 C 
BRANCH  15  16
HETATM   16  N2  UNL     1      29.546   1.176  53.048  1.00  0.00    -0.400 N 
HETATM   17  H20 UNL     1      30.466   1.324  53.463  1.00  0.00     0.156 HD
HETATM   18  H21 UNL     1      29.906   1.603  52.146  1.00  0.00     0.156 HD
ENDBRANCH  15  16
BRANCH  15  19
HETATM   19  C17 UNL     1      28.645  -0.113  54.663  1.00  0.00     0.278 C 
HETATM   20  F1  UNL     1      29.771  -0.895  54.502  1.00  0.00    -0.249 F 
ENDBRANCH  15  19
ENDBRANCH  13  14
ENDBRANCH   5  11
BRANCH   3  21
HETATM   21  O2  UNL     1      23.043   1.699  51.627  1.00  0.00    -0.345 OA
BRANCH  21  22
HETATM   22  C5  UNL     1      22.795   2.822  50.857  1.00  0.00     0.132 C 
HETATM   23  C6  UNL     1      23.750   2.907  49.654  1.00  0.00     0.062 C 
HETATM   24  C7  UNL     1      25.140   3.193  50.150  1.00  0.00     0.272 C 
HETATM   25  N1  UNL     1      25.130   4.411  50.892  1.00  0.00     0.083 N 
HETATM   26  C8  UNL     1      23.872   5.058  51.043  1.00  0.00     0.272 C 
HETATM   27  H10 UNL     1      25.709   4.347  51.777  1.00  0.00     0.315 HD
HETATM   28  C9  UNL     1      22.749   4.154  51.533  1.00  0.00     0.062 C 
ENDBRANCH  21  22
ENDBRANCH   3  21
BRANCH   1  29
HETATM   29  O1  UNL     1      18.539  -0.029  51.752  1.00  0.00    -0.356 OA
HETATM   30  C1  UNL     1      17.521  -0.764  52.398  1.00  0.00     0.210 C 
ENDBRANCH   1  29
TORSDOF 7
ENDMDL
MODEL 3
REMARK VINA RESULT:      -7.6      2.376      4.704
REMARK  7 active torsions:
REMARK  status: ('A' for Active; 'I' for Inactive)
REMARK    1  A    between atoms: O1_2  and  C2_3 
REMARK    2  A    between atoms: C4_5  and  O2_6 
REMARK    3  A    between atoms: O2_6  and  C5_7 
REMARK    4  A    between atoms: C11_14  and  C12_15 
REMARK    5  A    between atoms: C14_17  and  C15_18 
REMARK    6  A    between atoms: C16_19  and  N2_20 
REMARK    7  A    between atoms: C16_19  and  C17_21 
ROOT
HETATM    1  C2  UNL     1      25.603  -0.257  54.460  1.00  0.00     0.073 A 
HETATM    2  C3  UNL     1      25.271   0.563  53.370  1.00  0.00     0.074 A 
HETATM    3  C4  UNL     1      24.012   0.651  52.821  1.00  0.00     0.086 A 
HETATM    4  C10 UNL     1      23.072  -0.141  53.426  1.00  0.00     0.056 A 
HETATM    5  C11 UNL     1      21.805  -0.054  52.944  1.00  0.00     0.079 A 
HETATM    6  N3  UNL     1      20.816  -0.785  53.554  1.00  0.00    -0.241 NA
HETATM    7  C18 UNL     1      21.108  -1.569  54.597  1.00  0.00     0.234 A 
HETATM    8  N4  UNL     1      22.368  -1.638  55.044  1.00  0.00    -0.241 NA
HETATM    9  C19 UNL     1      23.371  -0.949  54.495  1.00  0.00     0.076 A 
HETATM   10  C20 UNL     1      24.608  -1.047  55.048  1.00  0.00     0.069 A 
ENDROOT
BRANCH   5  11
HETATM   11  C12 UNL     1      21.330   0.566  51.675  1.00  0.00    -0.032 C 
HETATM   12  C13 UNL     1      21.516   0.562  50.199  1.00  0.00     0.050 C 
HETATM   13  C14 UNL     1      20.246   1.366  51.879  1.00  0.00     0.011 C 
BRANCH  13  14
HETATM   14  C15 UNL     1      19.485   2.144  50.936  1.00  0.00     0.027 C 
HETATM   15  C16 UNL     1      18.262   1.888  50.523  1.00  0.00     0.031 C 
BRANCH  15  16
HETATM   16  N2  UNL     1      17.546   2.679  49.593  1.00  0.00    -0.400 N 
HETATM   17  H20 UNL     1      17.215   2.605  48.631  1.00  0.00     0.156 HD
HETATM   18  H21 UNL     1      17.120   3.650  49.644  1.00  0.00     0.156 HD
ENDBRANCH  15  16
BRANCH  15  19
HETATM   19  C17 UNL     1      17.277   0.817  50.834  1.00  0.00     0.278 C 
HETATM   20  F1  UNL     1      17.780  -0.449  50.615  1.00  0.00    -0.249 F 
ENDBRANCH  15  19
ENDBRANCH  13  14
ENDBRANCH   5  11
BRANCH   3  21
HETATM   21  O2  UNL     1      23.839   1.499  51.774  1.00  0.00    -0.345 OA
BRANCH  21  22
HETATM   22  C5  UNL     1      24.457   2.715  51.535  1.00  0.00     0.132 C 
HETATM   23  C6  UNL     1      23.899   3.823  52.444  1.00  0.00     0.062 C 
HETATM   24  C7  UNL     1      22.485   4.128  52.035  1.00  0.00     0.272 C 
HETATM   25  N1  UNL     1      22.469   4.524  50.664  1.00  0.00     0.083 N 
HETATM   26  C8  UNL     1      23.717   4.514  49.982  1.00  0.00     0.272 C 
HETATM   27  H10 UNL     1      21.663   4.090  50.130  1.00  0.00     0.315 HD
HETATM   28  C9  UNL     1      24.511   3.223  50.131  1.00  0.00     0.062 C 
ENDBRANCH  21  22
ENDBRANCH   3  21
BRANCH   1  29
HETATM   29  O1  UNL     1      26.875  -0.360  55.031  1.00  0.00    -0.356 OA
HETATM   30  C1  UNL     1      28.039   0.054  54.347  1.00  0.00     0.210 C 
ENDBRANCH   1  29
TORSDOF 7
ENDMDL
MODEL 4
REMARK VINA RESULT:      -7.5      2.933      5.447
REMARK  7 active torsions:
REMARK  status: ('A' for Active; 'I' for Inactive)
REMARK    1  A    between atoms: O1_2  and  C2_3 
REMARK    2  A    between atoms: C4_5  and  O2_6 
REMARK    3  A    between atoms: O2_6  and  C5_7 
REMARK    4  A    between atoms: C11_14  and  C12_15 
REMARK    5  A    between atoms: C14_17  and  C15_18 
REMARK    6  A    between atoms: C16_19  and  N2_20 
REMARK    7  A    between atoms: C16_19  and  C17_21 
ROOT
HETATM    1  C2  UNL     1      26.779   4.128  49.383  1.00  0.00     0.073 A 
HETATM    2  C3  UNL     1      26.809   3.073  50.308  1.00  0.00     0.074 A 
HETATM    3  C4  UNL     1      25.692   2.526  50.896  1.00  0.00     0.086 A 
HETATM    4  C10 UNL     1      24.508   3.098  50.509  1.00  0.00     0.056 A 
HETATM    5  C11 UNL     1      23.375   2.560  51.032  1.00  0.00     0.079 A 
HETATM    6  N3  UNL     1      22.162   3.062  50.631  1.00  0.00    -0.241 NA
HETATM    7  C18 UNL     1      22.110   4.064  49.747  1.00  0.00     0.234 A 
HETATM    8  N4  UNL     1      23.244   4.575  49.255  1.00  0.00    -0.241 NA
HETATM    9  C19 UNL     1      24.452   4.128  49.604  1.00  0.00     0.076 A 
HETATM   10  C20 UNL     1      25.546   4.679  49.015  1.00  0.00     0.069 A 
ENDROOT
BRANCH   5  11
HETATM   11  C12 UNL     1      23.232   1.620  52.179  1.00  0.00    -0.032 C 
HETATM   12  C13 UNL     1      23.526   1.447  53.628  1.00  0.00     0.050 C 
HETATM   13  C14 UNL     1      22.455   0.548  51.859  1.00  0.00     0.011 C 
BRANCH  13  14
HETATM   14  C15 UNL     1      22.066  -0.581  52.663  1.00  0.00     0.027 C 
HETATM   15  C16 UNL     1      21.112  -0.601  53.569  1.00  0.00     0.031 C 
BRANCH  15  16
HETATM   16  N2  UNL     1      20.760  -1.734  54.341  1.00  0.00    -0.400 N 
HETATM   17  H20 UNL     1      21.054  -2.181  55.210  1.00  0.00     0.156 HD
HETATM   18  H21 UNL     1      20.031  -2.495  54.219  1.00  0.00     0.156 HD
ENDBRANCH  15  16
BRANCH  15  19
HETATM   19  C17 UNL     1      20.149   0.418  54.068  1.00  0.00     0.278 C 
HETATM   20  F1  UNL     1      20.455   0.862  55.339  1.00  0.00    -0.249 F 
ENDBRANCH  15  19
ENDBRANCH  13  14
ENDBRANCH   5  11
BRANCH   3  21
HETATM   21  O2  UNL     1      25.876   1.498  51.765  1.00  0.00    -0.345 OA
BRANCH  21  22
HETATM   22  C5  UNL     1      27.064   0.969  52.240  1.00  0.00     0.132 C 
HETATM   23  C6  UNL     1      27.032  -0.568  52.264  1.00  0.00     0.062 C 
HETATM   24  C7  UNL     1      26.066  -1.022  53.323  1.00  0.00     0.272 C 
HETATM   25  N1  UNL     1      26.470  -0.492  54.584  1.00  0.00     0.083 N 
HETATM   26  C8  UNL     1      27.619   0.348  54.585  1.00  0.00     0.272 C 
HETATM   27  H10 UNL     1      25.650  -0.129  55.148  1.00  0.00     0.315 HD
HETATM   28  C9  UNL     1      27.591   1.463  53.549  1.00  0.00     0.062 C 
ENDBRANCH  21  22
ENDBRANCH   3  21
BRANCH   1  29
HETATM   29  O1  UNL     1      27.903   4.697  48.776  1.00  0.00    -0.356 OA
HETATM   30  C1  UNL     1      27.914   6.034  48.323  1.00  0.00     0.210 C 
ENDBRANCH   1  29
TORSDOF 7
ENDMDL
MODEL 5
REMARK VINA RESULT:      -7.3      3.002      5.567
REMARK  7 active torsions:
REMARK  status: ('A' for Active; 'I' for Inactive)
REMARK    1  A    between atoms: O1_2  and  C2_3 
REMARK    2  A    between atoms: C4_5  and  O2_6 
REMARK    3  A    between atoms: O2_6  and  C5_7 
REMARK    4  A    between atoms: C11_14  and  C12_15 
REMARK    5  A    between atoms: C14_17  and  C15_18 
REMARK    6  A    between atoms: C16_19  and  N2_20 
REMARK    7  A    between atoms: C16_19  and  C17_21 
ROOT
HETATM    1  C2  UNL     1      25.864   4.998  49.159  1.00  0.00     0.073 A 
HETATM    2  C3  UNL     1      24.479   4.777  49.218  1.00  0.00     0.074 A 
HETATM    3  C4  UNL     1      23.889   3.737  49.899  1.00  0.00     0.086 A 
HETATM    4  C10 UNL     1      24.769   2.903  50.537  1.00  0.00     0.056 A 
HETATM    5  C11 UNL     1      24.227   1.886  51.258  1.00  0.00     0.079 A 
HETATM    6  N3  UNL     1      25.066   1.058  51.960  1.00  0.00    -0.241 NA
HETATM    7  C18 UNL     1      26.388   1.253  51.923  1.00  0.00     0.234 A 
HETATM    8  N4  UNL     1      26.891   2.259  51.198  1.00  0.00    -0.241 NA
HETATM    9  C19 UNL     1      26.127   3.099  50.497  1.00  0.00     0.076 A 
HETATM   10  C20 UNL     1      26.725   4.120  49.828  1.00  0.00     0.069 A 
ENDROOT
BRANCH   5  11
HETATM   11  C12 UNL     1      22.829   1.372  51.240  1.00  0.00    -0.032 C 
HETATM   12  C13 UNL     1      21.756   0.855  50.347  1.00  0.00     0.050 C 
HETATM   13  C14 UNL     1      22.344   1.184  52.499  1.00  0.00     0.011 C 
BRANCH  13  14
HETATM   14  C15 UNL     1      21.055   0.707  52.928  1.00  0.00     0.027 C 
HETATM   15  C16 UNL     1      20.825  -0.362  53.661  1.00  0.00     0.031 C 
BRANCH  15  16
HETATM   16  N2  UNL     1      19.540  -0.799  54.063  1.00  0.00    -0.400 N 
HETATM   17  H20 UNL     1      18.731  -0.424  54.558  1.00  0.00     0.156 HD
HETATM   18  H21 UNL     1      19.019  -1.717  53.948  1.00  0.00     0.156 HD
ENDBRANCH  15  16
BRANCH  15  19
HETATM   19  C17 UNL     1      21.705  -1.390  54.281  1.00  0.00     0.278 C 
HETATM   20  F1  UNL     1      22.471  -0.884  55.312  1.00  0.00    -0.249 F 
ENDBRANCH  15  19
ENDBRANCH  13  14
ENDBRANCH   5  11
BRANCH   3  21
HETATM   21  O2  UNL     1      22.532   3.659  49.877  1.00  0.00    -0.345 OA
BRANCH  21  22
HETATM   22  C5  UNL     1      21.610   4.677  49.708  1.00  0.00     0.132 C 
HETATM   23  C6  UNL     1      20.998   5.116  51.049  1.00  0.00     0.062 C 
HETATM   24  C7  UNL     1      20.122   4.013  51.574  1.00  0.00     0.272 C 
HETATM   25  N1  UNL     1      19.110   3.721  50.612  1.00  0.00     0.083 N 
HETATM   26  C8  UNL     1      19.150   4.461  49.397  1.00  0.00     0.272 C 
HETATM   27  H10 UNL     1      18.954   2.679  50.496  1.00  0.00     0.315 HD
HETATM   28  C9  UNL     1      20.511   4.485  48.714  1.00  0.00     0.062 C 
ENDBRANCH  21  22
ENDBRANCH   3  21
BRANCH   1  29
HETATM   29  O1  UNL     1      26.482   6.047  48.472  1.00  0.00    -0.356 OA
HETATM   30  C1  UNL     1      27.878   6.086  48.261  1.00  0.00     0.210 C 
ENDBRANCH   1  29
TORSDOF 7
ENDMDL
MODEL 6
REMARK VINA RESULT:      -6.8      2.023      4.254
REMARK  7 active torsions:
REMARK  status: ('A' for Active; 'I' for Inactive)
REMARK    1  A    between atoms: O1_2  and  C2_3 
REMARK    2  A    between atoms: C4_5  and  O2_6 
REMARK    3  A    between atoms: O2_6  and  C5_7 
REMARK    4  A    between atoms: C11_14  and  C12_15 
REMARK    5  A    between atoms: C14_17  and  C15_18 
REMARK    6  A    between atoms: C16_19  and  N2_20 
REMARK    7  A    between atoms: C16_19  and  C17_21 
ROOT
HETATM    1  C2  UNL     1      26.558   1.591  52.717  1.00  0.00     0.073 A 
HETATM    2  C3  UNL     1      25.633   2.485  52.157  1.00  0.00     0.074 A 
HETATM    3  C4  UNL     1      24.267   2.333  52.229  1.00  0.00     0.086 A 
HETATM    4  C10 UNL     1      23.854   1.214  52.905  1.00  0.00     0.056 A 
HETATM    5  C11 UNL     1      22.513   1.046  53.039  1.00  0.00     0.079 A 
HETATM    6  N3  UNL     1      22.052  -0.029  53.757  1.00  0.00    -0.241 NA
HETATM    7  C18 UNL     1      22.916  -0.890  54.304  1.00  0.00     0.234 A 
HETATM    8  N4  UNL     1      24.231  -0.700  54.149  1.00  0.00    -0.241 NA
HETATM    9  C19 UNL     1      24.740   0.327  53.465  1.00  0.00     0.076 A 
HETATM   10  C20 UNL     1      26.090   0.463  53.402  1.00  0.00     0.069 A 
ENDROOT
BRANCH   5  11
HETATM   11  C12 UNL     1      21.409   1.748  52.324  1.00  0.00    -0.032 C 
HETATM   12  C13 UNL     1      20.463   2.893  52.415  1.00  0.00     0.050 C 
HETATM   13  C14 UNL     1      21.235   1.261  51.064  1.00  0.00     0.011 C 
BRANCH  13  14
HETATM   14  C15 UNL     1      20.291   1.650  50.048  1.00  0.00     0.027 C 
HETATM   15  C16 UNL     1      20.564   1.893  48.784  1.00  0.00     0.031 C 
BRANCH  15  16
HETATM   16  N2  UNL     1      19.605   2.274  47.814  1.00  0.00    -0.400 N 
HETATM   17  H20 UNL     1      18.634   2.064  47.584  1.00  0.00     0.156 HD
HETATM   18  H21 UNL     1      19.636   2.941  46.989  1.00  0.00     0.156 HD
ENDBRANCH  15  16
BRANCH  15  19
HETATM   19  C17 UNL     1      21.815   1.859  47.978  1.00  0.00     0.278 C 
HETATM   20  F1  UNL     1      22.934   2.176  48.721  1.00  0.00    -0.249 F 
ENDBRANCH  15  19
ENDBRANCH  13  14
ENDBRANCH   5  11
BRANCH   3  21
HETATM   21  O2  UNL     1      23.494   3.288  51.649  1.00  0.00    -0.345 OA
BRANCH  21  22
HETATM   22  C5  UNL     1      23.861   4.550  51.213  1.00  0.00     0.132 C 
HETATM   23  C6  UNL     1      22.732   5.573  51.421  1.00  0.00     0.062 C 
HETATM   24  C7  UNL     1      21.602   5.255  50.481  1.00  0.00     0.272 C 
HETATM   25  N1  UNL     1      22.087   5.284  49.140  1.00  0.00     0.083 N 
HETATM   26  C8  UNL     1      23.474   5.552  48.967  1.00  0.00     0.272 C 
HETATM   27  H10 UNL     1      21.711   4.481  48.560  1.00  0.00     0.315 HD
HETATM   28  C9  UNL     1      24.397   4.696  49.825  1.00  0.00     0.062 C 
ENDBRANCH  21  22
ENDBRANCH   3  21
BRANCH   1  29
HETATM   29  O1  UNL     1      27.948   1.728  52.654  1.00  0.00    -0.356 OA
HETATM   30  C1  UNL     1      28.812   1.019  53.516  1.00  0.00     0.210 C 
ENDBRANCH   1  29
TORSDOF 7
ENDMDL
MODEL 7
REMARK VINA RESULT:      -6.5      8.559     11.952
REMARK  7 active torsions:
REMARK  status: ('A' for Active; 'I' for Inactive)
REMARK    1  A    between atoms: O1_2  and  C2_3 
REMARK    2  A    between atoms: C4_5  and  O2_6 
REMARK    3  A    between atoms: O2_6  and  C5_7 
REMARK    4  A    between atoms: C11_14  and  C12_15 
REMARK    5  A    between atoms: C14_17  and  C15_18 
REMARK    6  A    between atoms: C16_19  and  N2_20 
REMARK    7  A    between atoms: C16_19  and  C17_21 
ROOT
HETATM    1  C2  UNL     1      34.000   9.803  45.121  1.00  0.00     0.073 A 
HETATM    2  C3  UNL     1      33.747   8.459  45.436  1.00  0.00     0.074 A 
HETATM    3  C4  UNL     1      32.782   8.039  46.323  1.00  0.00     0.086 A 
HETATM    4  C10 UNL     1      32.060   9.051  46.898  1.00  0.00     0.056 A 
HETATM    5  C11 UNL     1      31.067   8.681  47.749  1.00  0.00     0.079 A 
HETATM    6  N3  UNL     1      30.280   9.657  48.306  1.00  0.00    -0.241 NA
HETATM    7  C18 UNL     1      30.499  10.943  48.016  1.00  0.00     0.234 A 
HETATM    8  N4  UNL     1      31.489  11.276  47.180  1.00  0.00    -0.241 NA
HETATM    9  C19 UNL     1      32.286  10.373  46.604  1.00  0.00     0.076 A 
HETATM   10  C20 UNL     1      33.235  10.803  45.732  1.00  0.00     0.069 A 
ENDROOT
BRANCH   5  11
HETATM   11  C12 UNL     1      30.818   7.348  48.368  1.00  0.00    -0.032 C 
HETATM   12  C13 UNL     1      31.321   6.392  49.391  1.00  0.00     0.050 C 
HETATM   13  C14 UNL     1      29.639   6.810  47.950  1.00  0.00     0.011 C 
BRANCH  13  14
HETATM   14  C15 UNL     1      29.024   5.556  48.298  1.00  0.00     0.027 C 
HETATM   15  C16 UNL     1      27.757   5.366  48.600  1.00  0.00     0.031 C 
BRANCH  15  16
HETATM   16  N2  UNL     1      27.190   4.114  48.938  1.00  0.00    -0.400 N 
HETATM   17  H20 UNL     1      26.312   3.755  49.314  1.00  0.00     0.156 HD
HETATM   18  H21 UNL     1      27.552   3.118  48.888  1.00  0.00     0.156 HD
ENDBRANCH  15  16
BRANCH  15  19
HETATM   19  C17 UNL     1      26.577   6.269  48.688  1.00  0.00     0.278 C 
HETATM   20  F1  UNL     1      26.382   7.004  47.537  1.00  0.00    -0.249 F 
ENDBRANCH  15  19
ENDBRANCH  13  14
ENDBRANCH   5  11
BRANCH   3  21
HETATM   21  O2  UNL     1      32.644   6.701  46.518  1.00  0.00    -0.345 OA
BRANCH  21  22
HETATM   22  C5  UNL     1      33.553   5.691  46.254  1.00  0.00     0.132 C 
HETATM   23  C6  UNL     1      32.852   4.410  45.770  1.00  0.00     0.062 C 
HETATM   24  C7  UNL     1      32.076   3.814  46.911  1.00  0.00     0.272 C 
HETATM   25  N1  UNL     1      32.967   3.542  47.992  1.00  0.00     0.083 N 
HETATM   26  C8  UNL     1      34.330   3.904  47.804  1.00  0.00     0.272 C 
HETATM   27  H10 UNL     1      32.556   3.816  48.930  1.00  0.00     0.315 HD
HETATM   28  C9  UNL     1      34.545   5.330  47.312  1.00  0.00     0.062 C 
ENDBRANCH  21  22
ENDBRANCH   3  21
BRANCH   1  29
HETATM   29  O1  UNL     1      34.975  10.248  44.223  1.00  0.00    -0.356 OA
HETATM   30  C1  UNL     1      36.186   9.549  44.025  1.00  0.00     0.210 C 
ENDBRANCH   1  29
TORSDOF 7
ENDMDL
MODEL 8
REMARK VINA RESULT:      -6.5      6.849     10.485
REMARK  7 active torsions:
REMARK  status: ('A' for Active; 'I' for Inactive)
REMARK    1  A    between atoms: O1_2  and  C2_3 
REMARK    2  A    between atoms: C4_5  and  O2_6 
REMARK    3  A    between atoms: O2_6  and  C5_7 
REMARK    4  A    between atoms: C11_14  and  C12_15 
REMARK    5  A    between atoms: C14_17  and  C15_18 
REMARK    6  A    between atoms: C16_19  and  N2_20 
REMARK    7  A    between atoms: C16_19  and  C17_21 
ROOT
HETATM    1  C2  UNL     1      26.928   4.402  49.210  1.00  0.00     0.073 A 
HETATM    2  C3  UNL     1      28.076   4.951  48.617  1.00  0.00     0.074 A 
HETATM    3  C4  UNL     1      28.123   6.189  48.019  1.00  0.00     0.086 A 
HETATM    4  C10 UNL     1      26.937   6.875  48.039  1.00  0.00     0.056 A 
HETATM    5  C11 UNL     1      26.947   8.121  47.498  1.00  0.00     0.079 A 
HETATM    6  N3  UNL     1      25.798   8.869  47.545  1.00  0.00    -0.241 NA
HETATM    7  C18 UNL     1      24.694   8.368  48.110  1.00  0.00     0.234 A 
HETATM    8  N4  UNL     1      24.714   7.135  48.628  1.00  0.00    -0.241 NA
HETATM    9  C19 UNL     1      25.802   6.361  48.615  1.00  0.00     0.076 A 
HETATM   10  C20 UNL     1      25.740   5.140  49.209  1.00  0.00     0.069 A 
ENDROOT
BRANCH   5  11
HETATM   11  C12 UNL     1      27.984   8.755  46.635  1.00  0.00    -0.032 C 
HETATM   12  C13 UNL     1      28.570   8.746  45.267  1.00  0.00     0.050 C 
HETATM   13  C14 UNL     1      28.571   9.819  47.250  1.00  0.00     0.011 C 
BRANCH  13  14
HETATM   14  C15 UNL     1      29.606  10.700  46.777  1.00  0.00     0.027 C 
HETATM   15  C16 UNL     1      30.501  11.319  47.517  1.00  0.00     0.031 C 
BRANCH  15  16
HETATM   16  N2  UNL     1      31.505  12.180  47.013  1.00  0.00    -0.400 N 
HETATM   17  H20 UNL     1      31.791  13.154  47.115  1.00  0.00     0.156 HD
HETATM   18  H21 UNL     1      32.306  12.037  46.332  1.00  0.00     0.156 HD
ENDBRANCH  15  16
BRANCH  15  19
HETATM   19  C17 UNL     1      30.779  11.351  48.979  1.00  0.00     0.278 C 
HETATM   20  F1  UNL     1      30.443  12.557  49.559  1.00  0.00    -0.249 F 
ENDBRANCH  15  19
ENDBRANCH  13  14
ENDBRANCH   5  11
BRANCH   3  21
HETATM   21  O2  UNL     1      29.311   6.594  47.498  1.00  0.00    -0.345 OA
BRANCH  21  22
HETATM   22  C5  UNL     1      30.588   6.372  47.983  1.00  0.00     0.132 C 
HETATM   23  C6  UNL     1      31.499   7.591  47.761  1.00  0.00     0.062 C 
HETATM   24  C7  UNL     1      31.767   7.742  46.290  1.00  0.00     0.272 C 
HETATM   25  N1  UNL     1      32.371   6.547  45.799  1.00  0.00     0.083 N 
HETATM   26  C8  UNL     1      32.554   5.492  46.735  1.00  0.00     0.272 C 
HETATM   27  H10 UNL     1      31.973   6.250  44.863  1.00  0.00     0.315 HD
HETATM   28  C9  UNL     1      31.313   5.140  47.545  1.00  0.00     0.062 C 
ENDBRANCH  21  22
ENDBRANCH   3  21
BRANCH   1  29
HETATM   29  O1  UNL     1      26.862   3.146  49.821  1.00  0.00    -0.356 OA
HETATM   30  C1  UNL     1      26.036   2.900  50.939  1.00  0.00     0.210 C 
ENDBRANCH   1  29
TORSDOF 7
ENDMDL
MODEL 9
REMARK VINA RESULT:      -6.5      2.954      7.094
REMARK  7 active torsions:
REMARK  status: ('A' for Active; 'I' for Inactive)
REMARK    1  A    between atoms: O1_2  and  C2_3 
REMARK    2  A    between atoms: C4_5  and  O2_6 
REMARK    3  A    between atoms: O2_6  and  C5_7 
REMARK    4  A    between atoms: C11_14  and  C12_15 
REMARK    5  A    between atoms: C14_17  and  C15_18 
REMARK    6  A    between atoms: C16_19  and  N2_20 
REMARK    7  A    between atoms: C16_19  and  C17_21 
ROOT
HETATM    1  C2  UNL     1      17.933  -0.325  51.720  1.00  0.00     0.073 A 
HETATM    2  C3  UNL     1      18.615   0.663  50.993  1.00  0.00     0.074 A 
HETATM    3  C4  UNL     1      19.869   1.132  51.311  1.00  0.00     0.086 A 
HETATM    4  C10 UNL     1      20.428   0.554  52.421  1.00  0.00     0.056 A 
HETATM    5  C11 UNL     1      21.684   0.956  52.747  1.00  0.00     0.079 A 
HETATM    6  N3  UNL     1      22.307   0.365  53.818  1.00  0.00    -0.241 NA
HETATM    7  C18 UNL     1      21.678  -0.582  54.521  1.00  0.00     0.234 A 
HETATM    8  N4  UNL     1      20.439  -0.951  54.178  1.00  0.00    -0.241 NA
HETATM    9  C19 UNL     1      19.782  -0.416  53.147  1.00  0.00     0.076 A 
HETATM   10  C20 UNL     1      18.544  -0.889  52.846  1.00  0.00     0.069 A 
ENDROOT
BRANCH   5  11
HETATM   11  C12 UNL     1      22.447   2.134  52.245  1.00  0.00    -0.032 C 
HETATM   12  C13 UNL     1      22.508   3.620  52.273  1.00  0.00     0.050 C 
HETATM   13  C14 UNL     1      23.586   1.759  51.600  1.00  0.00     0.011 C 
BRANCH  13  14
HETATM   14  C15 UNL     1      24.597   2.567  50.970  1.00  0.00     0.027 C 
HETATM   15  C16 UNL     1      25.853   2.677  51.348  1.00  0.00     0.031 C 
BRANCH  15  16
HETATM   16  N2  UNL     1      26.819   3.486  50.701  1.00  0.00    -0.400 N 
HETATM   17  H20 UNL     1      26.884   4.071  49.868  1.00  0.00     0.156 HD
HETATM   18  H21 UNL     1      27.828   3.727  50.925  1.00  0.00     0.156 HD
ENDBRANCH  15  16
BRANCH  15  19
HETATM   19  C17 UNL     1      26.651   2.072  52.449  1.00  0.00     0.278 C 
HETATM   20  F1  UNL     1      27.905   2.636  52.570  1.00  0.00    -0.249 F 
ENDBRANCH  15  19
ENDBRANCH  13  14
ENDBRANCH   5  11
BRANCH   3  21
HETATM   21  O2  UNL     1      20.410   2.084  50.506  1.00  0.00    -0.345 OA
BRANCH  21  22
HETATM   22  C5  UNL     1      19.790   2.839  49.525  1.00  0.00     0.132 C 
HETATM   23  C6  UNL     1      20.648   2.927  48.251  1.00  0.00     0.062 C 
HETATM   24  C7  UNL     1      21.866   3.760  48.536  1.00  0.00     0.272 C 
HETATM   25  N1  UNL     1      21.457   5.054  48.977  1.00  0.00     0.083 N 
HETATM   26  C8  UNL     1      20.057   5.276  49.092  1.00  0.00     0.272 C 
HETATM   27  H10 UNL     1      22.034   5.401  49.795  1.00  0.00     0.315 HD
HETATM   28  C9  UNL     1      19.308   4.209  49.879  1.00  0.00     0.062 C 
ENDBRANCH  21  22
ENDBRANCH   3  21
BRANCH   1  29
HETATM   29  O1  UNL     1      16.659  -0.813  51.413  1.00  0.00    -0.356 OA
HETATM   30  C1  UNL     1      15.602   0.040  51.029  1.00  0.00     0.210 C 
ENDBRANCH   1  29
TORSDOF 7
ENDMDL
