MODEL 1
REMARK VINA RESULT:      -8.3      0.000      0.000
REMARK  4 active torsions:
REMARK  status: ('A' for Active; 'I' for Inactive)
REMARK    1  A    between atoms: C2_2  and  C3_3 
REMARK       I    between atoms: C3_3  and  N1_5 
REMARK    2  A    between atoms: C7_9  and  C8_10 
REMARK    3  A    between atoms: C8_10  and  N2_11 
REMARK    4  A    between atoms: N2_11  and  C9_12 
ROOT
HETATM    1  C9  UNL     1      23.718   3.061  51.257  1.00  0.00     0.010 C 
HETATM    2  C10 UNL     1      23.565   2.824  49.843  1.00  0.00     0.040 C 
HETATM    3  C11 UNL     1      22.279   2.152  49.294  1.00  0.00     0.017 C 
HETATM    4  C12 UNL     1      21.931   3.282  48.527  1.00  0.00     0.155 C 
HETATM    5  N3  UNL     1      23.075   4.088  48.334  1.00  0.00    -0.346 N 
HETATM    6  C13 UNL     1      23.625   5.406  48.552  1.00  0.00     0.094 C 
HETATM    7  C14 UNL     1      23.748   6.085  49.747  1.00  0.00     0.068 C 
HETATM    8  C15 UNL     1      23.188   5.274  50.828  1.00  0.00     0.159 C 
HETATM    9  O2  UNL     1      23.765   5.754  51.845  1.00  0.00    -0.292 OA
HETATM   10  C16 UNL     1      22.252   4.271  51.068  1.00  0.00     0.096 A 
HETATM   11  C17 UNL     1      21.293   3.321  51.224  1.00  0.00    -0.051 A 
HETATM   12  C18 UNL     1      22.434   3.344  52.240  1.00  0.00     0.096 A 
HETATM   13  C19 UNL     1      20.055   2.797  50.590  1.00  0.00     0.130 C 
HETATM   14 CL1  UNL     1      18.769   2.759  51.779  1.00  0.00    -0.104 Cl
HETATM   15  C20 UNL     1      20.345   1.323  50.168  1.00  0.00     0.009 C 
HETATM   16  C21 UNL     1      21.485   0.873  49.518  1.00  0.00     0.014 C 
HETATM   17  C22 UNL     1      19.551   3.423  49.342  1.00  0.00     0.346 C 
HETATM   18  F1  UNL     1      19.079   4.682  49.425  1.00  0.00    -0.216 F 
HETATM   19  O3  UNL     1      20.508   3.300  48.183  1.00  0.00    -0.296 OA
HETATM   20  H15 UNL     1      23.577   3.304  47.916  1.00  0.00     0.167 HD
ENDROOT
BRANCH   1  21
HETATM   21  N2  UNL     1      25.094   2.982  51.355  1.00  0.00    -0.391 N 
HETATM   22  H13 UNL     1      25.653   3.485  50.655  1.00  0.00     0.159 HD
BRANCH  21  23
HETATM   23  C8  UNL     1      25.449   2.152  52.504  1.00  0.00     0.145 C 
BRANCH  23  24
HETATM   24  C7  UNL     1      25.309   0.661  52.175  1.00  0.00     0.105 C 
HETATM   25  N1  UNL     1      24.731  -0.038  53.307  1.00  0.00    -0.342 N 
HETATM   26  C3  UNL     1      23.408  -0.409  53.678  1.00  0.00     0.242 C 
HETATM   27  C4  UNL     1      25.847  -0.373  54.167  1.00  0.00     0.127 C 
HETATM   28  O1  UNL     1      23.321  -1.024  54.771  1.00  0.00    -0.268 OA
HETATM   29  C5  UNL     1      26.835  -0.945  53.153  1.00  0.00     0.022 C 
HETATM   30  C6  UNL     1      26.676   0.031  52.006  1.00  0.00     0.028 C 
BRANCH  26  31
HETATM   31  C2  UNL     1      22.144  -0.207  53.025  1.00  0.00     0.064 C 
HETATM   32  C1  UNL     1      21.317   0.251  53.946  1.00  0.00     0.017 C 
ENDBRANCH  26  31
ENDBRANCH  23  24
ENDBRANCH  21  23
ENDBRANCH   1  21
TORSDOF 4
ENDMDL
MODEL 2
REMARK VINA RESULT:      -7.9      2.479      3.913
REMARK  4 active torsions:
REMARK  status: ('A' for Active; 'I' for Inactive)
REMARK    1  A    between atoms: C2_2  and  C3_3 
REMARK       I    between atoms: C3_3  and  N1_5 
REMARK    2  A    between atoms: C7_9  and  C8_10 
REMARK    3  A    between atoms: C8_10  and  N2_11 
REMARK    4  A    between atoms: N2_11  and  C9_12 
ROOT
HETATM    1  C9  UNL     1      23.582   3.483  51.491  1.00  0.00     0.010 C 
HETATM    2  C10 UNL     1      22.699   4.620  51.548  1.00  0.00     0.040 C 
HETATM    3  C11 UNL     1      23.207   6.032  51.150  1.00  0.00     0.017 C 
HETATM    4  C12 UNL     1      22.291   6.138  50.084  1.00  0.00     0.155 C 
HETATM    5  N3  UNL     1      21.233   5.223  50.283  1.00  0.00    -0.346 N 
HETATM    6  C13 UNL     1      20.540   4.094  49.705  1.00  0.00     0.094 C 
HETATM    7  C14 UNL     1      21.076   2.887  49.303  1.00  0.00     0.068 C 
HETATM    8  C15 UNL     1      22.523   2.902  49.516  1.00  0.00     0.159 C 
HETATM    9  O2  UNL     1      22.794   1.669  49.570  1.00  0.00    -0.292 OA
HETATM   10  C16 UNL     1      23.604   3.775  49.603  1.00  0.00     0.096 A 
HETATM   11  C17 UNL     1      24.611   4.688  49.637  1.00  0.00    -0.051 A 
HETATM   12  C18 UNL     1      24.815   3.387  50.411  1.00  0.00     0.096 A 
HETATM   13  C19 UNL     1      24.966   6.052  49.163  1.00  0.00     0.130 C 
HETATM   14 CL1  UNL     1      26.498   5.988  48.316  1.00  0.00    -0.104 Cl
HETATM   15  C20 UNL     1      25.169   6.938  50.431  1.00  0.00     0.009 C 
HETATM   16  C21 UNL     1      24.332   6.980  51.536  1.00  0.00     0.014 C 
HETATM   17  C22 UNL     1      23.989   6.822  48.353  1.00  0.00     0.346 C 
HETATM   18  F1  UNL     1      23.714   6.370  47.115  1.00  0.00    -0.216 F 
HETATM   19  O3  UNL     1      22.710   7.129  49.092  1.00  0.00    -0.296 OA
HETATM   20  H15 UNL     1      21.028   5.633  51.195  1.00  0.00     0.167 HD
ENDROOT
BRANCH   1  21
HETATM   21  N2  UNL     1      23.029   2.711  52.494  1.00  0.00    -0.391 N 
HETATM   22  H13 UNL     1      22.009   2.740  52.612  1.00  0.00     0.159 HD
BRANCH  21  23
HETATM   23  C8  UNL     1      24.091   1.989  53.191  1.00  0.00     0.145 C 
BRANCH  23  24
HETATM   24  C7  UNL     1      24.131   0.516  52.768  1.00  0.00     0.105 C 
HETATM   25  N1  UNL     1      23.890  -0.331  53.921  1.00  0.00    -0.342 N 
HETATM   26  C3  UNL     1      22.734  -0.941  54.483  1.00  0.00     0.242 C 
HETATM   27  C4  UNL     1      25.185  -0.516  54.544  1.00  0.00     0.127 C 
HETATM   28  O1  UNL     1      22.949  -1.620  55.519  1.00  0.00    -0.268 OA
HETATM   29  C5  UNL     1      26.046  -0.856  53.330  1.00  0.00     0.022 C 
HETATM   30  C6  UNL     1      25.526   0.139  52.313  1.00  0.00     0.028 C 
BRANCH  26  31
HETATM   31  C2  UNL     1      21.356  -0.923  54.077  1.00  0.00     0.064 C 
HETATM   32  C1  UNL     1      20.845   0.203  54.539  1.00  0.00     0.017 C 
ENDBRANCH  26  31
ENDBRANCH  23  24
ENDBRANCH  21  23
ENDBRANCH   1  21
TORSDOF 4
ENDMDL
MODEL 3
REMARK VINA RESULT:      -7.8      2.072      3.353
REMARK  4 active torsions:
REMARK  status: ('A' for Active; 'I' for Inactive)
REMARK    1  A    between atoms: C2_2  and  C3_3 
REMARK       I    between atoms: C3_3  and  N1_5 
REMARK    2  A    between atoms: C7_9  and  C8_10 
REMARK    3  A    between atoms: C8_10  and  N2_11 
REMARK    4  A    between atoms: N2_11  and  C9_12 
ROOT
HETATM    1  C9  UNL     1      23.047   2.963  51.582  1.00  0.00     0.010 C 
HETATM    2  C10 UNL     1      21.993   3.812  52.079  1.00  0.00     0.040 C 
HETATM    3  C11 UNL     1      21.624   5.124  51.336  1.00  0.00     0.017 C 
HETATM    4  C12 UNL     1      20.314   4.683  51.062  1.00  0.00     0.155 C 
HETATM    5  N3  UNL     1      19.977   3.635  51.947  1.00  0.00    -0.346 N 
HETATM    6  C13 UNL     1      19.565   2.251  52.018  1.00  0.00     0.094 C 
HETATM    7  C14 UNL     1      20.196   1.151  51.473  1.00  0.00     0.068 C 
HETATM    8  C15 UNL     1      21.387   1.585  50.742  1.00  0.00     0.159 C 
HETATM    9  O2  UNL     1      22.081   0.529  50.719  1.00  0.00    -0.292 OA
HETATM   10  C16 UNL     1      21.914   2.684  50.069  1.00  0.00     0.096 A 
HETATM   11  C17 UNL     1      22.341   3.786  49.397  1.00  0.00    -0.051 A 
HETATM   12  C18 UNL     1      23.407   2.862  49.984  1.00  0.00     0.096 A 
HETATM   13  C19 UNL     1      21.833   4.994  48.694  1.00  0.00     0.130 C 
HETATM   14 CL1  UNL     1      22.533   5.064  47.090  1.00  0.00    -0.104 Cl
HETATM   15  C20 UNL     1      22.351   6.235  49.485  1.00  0.00     0.009 C 
HETATM   16  C21 UNL     1      22.320   6.391  50.863  1.00  0.00     0.014 C 
HETATM   17  C22 UNL     1      20.370   5.225  48.602  1.00  0.00     0.346 C 
HETATM   18  F1  UNL     1      19.652   4.376  47.842  1.00  0.00    -0.216 F 
HETATM   19  O3  UNL     1      19.708   5.409  49.944  1.00  0.00    -0.296 OA
HETATM   20  H15 UNL     1      20.173   4.230  52.752  1.00  0.00     0.167 HD
ENDROOT
BRANCH   1  21
HETATM   21  N2  UNL     1      23.476   2.408  52.772  1.00  0.00    -0.391 N 
HETATM   22  H13 UNL     1      22.791   2.322  53.533  1.00  0.00     0.159 HD
BRANCH  21  23
HETATM   23  C8  UNL     1      24.889   2.053  52.658  1.00  0.00     0.145 C 
BRANCH  23  24
HETATM   24  C7  UNL     1      25.066   0.545  52.443  1.00  0.00     0.105 C 
HETATM   25  N1  UNL     1      24.824  -0.158  53.688  1.00  0.00    -0.342 N 
HETATM   26  C3  UNL     1      23.688  -0.784  54.273  1.00  0.00     0.242 C 
HETATM   27  C4  UNL     1      26.091  -0.150  54.391  1.00  0.00     0.127 C 
HETATM   28  O1  UNL     1      23.894  -1.298  55.402  1.00  0.00    -0.268 OA
HETATM   29  C5  UNL     1      27.045  -0.574  53.277  1.00  0.00     0.022 C 
HETATM   30  C6  UNL     1      26.510   0.230  52.111  1.00  0.00     0.028 C 
BRANCH  26  31
HETATM   31  C2  UNL     1      22.338  -0.935  53.805  1.00  0.00     0.064 C 
HETATM   32  C1  UNL     1      21.561  -0.381  54.716  1.00  0.00     0.017 C 
ENDBRANCH  26  31
ENDBRANCH  23  24
ENDBRANCH  21  23
ENDBRANCH   1  21
TORSDOF 4
ENDMDL
MODEL 4
REMARK VINA RESULT:      -7.7      2.957      5.280
REMARK  4 active torsions:
REMARK  status: ('A' for Active; 'I' for Inactive)
REMARK    1  A    between atoms: C2_2  and  C3_3 
REMARK       I    between atoms: C3_3  and  N1_5 
REMARK    2  A    between atoms: C7_9  and  C8_10 
REMARK    3  A    between atoms: C8_10  and  N2_11 
REMARK    4  A    between atoms: N2_11  and  C9_12 
ROOT
HETATM    1  C9  UNL     1      21.182   2.472  50.344  1.00  0.00     0.010 C 
HETATM    2  C10 UNL     1      21.663   3.830  50.396  1.00  0.00     0.040 C 
HETATM    3  C11 UNL     1      22.877   4.200  51.289  1.00  0.00     0.017 C 
HETATM    4  C12 UNL     1      23.654   4.609  50.186  1.00  0.00     0.155 C 
HETATM    5  N3  UNL     1      22.805   4.882  49.091  1.00  0.00    -0.346 N 
HETATM    6  C13 UNL     1      22.508   4.521  47.723  1.00  0.00     0.094 C 
HETATM    7  C14 UNL     1      22.210   3.270  47.224  1.00  0.00     0.068 C 
HETATM    8  C15 UNL     1      22.267   2.287  48.307  1.00  0.00     0.159 C 
HETATM    9  O2  UNL     1      21.549   1.351  47.851  1.00  0.00    -0.292 OA
HETATM   10  C16 UNL     1      22.866   2.058  49.542  1.00  0.00     0.096 A 
HETATM   11  C17 UNL     1      23.521   1.892  50.722  1.00  0.00    -0.051 A 
HETATM   12  C18 UNL     1      22.177   1.184  50.556  1.00  0.00     0.096 A 
HETATM   13  C19 UNL     1      24.745   2.322  51.448  1.00  0.00     0.130 C 
HETATM   14 CL1  UNL     1      25.617   0.906  51.997  1.00  0.00    -0.104 Cl
HETATM   15  C20 UNL     1      24.275   3.103  52.714  1.00  0.00     0.009 C 
HETATM   16  C21 UNL     1      23.288   4.077  52.749  1.00  0.00     0.014 C 
HETATM   17  C22 UNL     1      25.693   3.259  50.793  1.00  0.00     0.346 C 
HETATM   18  F1  UNL     1      26.380   2.805  49.727  1.00  0.00    -0.216 F 
HETATM   19  O3  UNL     1      25.087   4.606  50.487  1.00  0.00    -0.296 OA
HETATM   20  H15 UNL     1      22.281   5.561  49.645  1.00  0.00     0.167 HD
ENDROOT
BRANCH   1  21
HETATM   21  N2  UNL     1      19.848   2.711  50.076  1.00  0.00    -0.391 N 
HETATM   22  H13 UNL     1      19.581   3.660  49.791  1.00  0.00     0.159 HD
BRANCH  21  23
HETATM   23  C8  UNL     1      19.088   1.478  50.274  1.00  0.00     0.145 C 
BRANCH  23  24
HETATM   24  C7  UNL     1      18.430   1.449  51.659  1.00  0.00     0.105 C 
HETATM   25  N1  UNL     1      18.831   0.247  52.366  1.00  0.00    -0.342 N 
HETATM   26  C3  UNL     1      19.863  -0.063  53.295  1.00  0.00     0.242 C 
HETATM   27  C4  UNL     1      17.900  -0.780  51.945  1.00  0.00     0.127 C 
HETATM   28  O1  UNL     1      19.876  -1.257  53.687  1.00  0.00    -0.268 OA
HETATM   29  C5  UNL     1      16.570  -0.042  52.086  1.00  0.00     0.022 C 
HETATM   30  C6  UNL     1      16.928   1.317  51.522  1.00  0.00     0.028 C 
BRANCH  26  31
HETATM   31  C2  UNL     1      20.901   0.747  53.870  1.00  0.00     0.064 C 
HETATM   32  C1  UNL     1      21.971  -0.020  53.954  1.00  0.00     0.017 C 
ENDBRANCH  26  31
ENDBRANCH  23  24
ENDBRANCH  21  23
ENDBRANCH   1  21
TORSDOF 4
ENDMDL
MODEL 5
REMARK VINA RESULT:      -7.7      2.428      4.275
REMARK  4 active torsions:
REMARK  status: ('A' for Active; 'I' for Inactive)
REMARK    1  A    between atoms: C2_2  and  C3_3 
REMARK       I    between atoms: C3_3  and  N1_5 
REMARK    2  A    between atoms: C7_9  and  C8_10 
REMARK    3  A    between atoms: C8_10  and  N2_11 
REMARK    4  A    between atoms: N2_11  and  C9_12 
ROOT
HETATM    1  C9  UNL     1      21.761   2.231  50.400  1.00  0.00     0.010 C 
HETATM    2  C10 UNL     1      21.066   3.481  50.583  1.00  0.00     0.040 C 
HETATM    3  C11 UNL     1      21.855   4.781  50.892  1.00  0.00     0.017 C 
HETATM    4  C12 UNL     1      21.421   5.409  49.707  1.00  0.00     0.155 C 
HETATM    5  N3  UNL     1      20.261   4.759  49.230  1.00  0.00    -0.346 N 
HETATM    6  C13 UNL     1      19.700   4.048  48.104  1.00  0.00     0.094 C 
HETATM    7  C14 UNL     1      20.194   2.918  47.485  1.00  0.00     0.068 C 
HETATM    8  C15 UNL     1      21.449   2.521  48.125  1.00  0.00     0.159 C 
HETATM    9  O2  UNL     1      21.527   1.298  47.816  1.00  0.00    -0.292 OA
HETATM   10  C16 UNL     1      22.518   3.044  48.846  1.00  0.00     0.096 A 
HETATM   11  C17 UNL     1      23.544   3.638  49.512  1.00  0.00    -0.051 A 
HETATM   12  C18 UNL     1      23.284   2.159  49.794  1.00  0.00     0.096 A 
HETATM   13  C19 UNL     1      24.214   4.953  49.690  1.00  0.00     0.130 C 
HETATM   14 CL1  UNL     1      25.931   4.771  49.392  1.00  0.00    -0.104 Cl
HETATM   15  C20 UNL     1      24.039   5.357  51.187  1.00  0.00     0.009 C 
HETATM   16  C21 UNL     1      22.863   5.277  51.918  1.00  0.00     0.014 C 
HETATM   17  C22 UNL     1      23.711   6.136  48.948  1.00  0.00     0.346 C 
HETATM   18  F1  UNL     1      23.862   6.143  47.610  1.00  0.00    -0.216 F 
HETATM   19  O3  UNL     1      22.297   6.514  49.314  1.00  0.00    -0.296 OA
HETATM   20  H15 UNL     1      19.784   4.924  50.117  1.00  0.00     0.167 HD
ENDROOT
BRANCH   1  21
HETATM   21  N2  UNL     1      20.784   1.358  50.839  1.00  0.00    -0.391 N 
HETATM   22  H13 UNL     1      19.809   1.569  50.592  1.00  0.00     0.159 HD
BRANCH  21  23
HETATM   23  C8  UNL     1      21.408   0.275  51.595  1.00  0.00     0.145 C 
BRANCH  23  24
HETATM   24  C7  UNL     1      21.902   0.765  52.961  1.00  0.00     0.105 C 
HETATM   25  N1  UNL     1      23.109   0.050  53.330  1.00  0.00    -0.342 N 
HETATM   26  C3  UNL     1      24.501   0.306  53.185  1.00  0.00     0.242 C 
HETATM   27  C4  UNL     1      22.658  -1.166  53.974  1.00  0.00     0.127 C 
HETATM   28  O1  UNL     1      25.252  -0.589  53.652  1.00  0.00    -0.268 OA
HETATM   29  C5  UNL     1      21.599  -0.615  54.927  1.00  0.00     0.022 C 
HETATM   30  C6  UNL     1      20.906   0.398  54.041  1.00  0.00     0.028 C 
BRANCH  26  31
HETATM   31  C2  UNL     1      25.210   1.409  52.598  1.00  0.00     0.064 C 
HETATM   32  C1  UNL     1      24.985   2.453  53.374  1.00  0.00     0.017 C 
ENDBRANCH  26  31
ENDBRANCH  23  24
ENDBRANCH  21  23
ENDBRANCH   1  21
TORSDOF 4
ENDMDL
MODEL 6
REMARK VINA RESULT:      -7.7      8.634     10.949
REMARK  4 active torsions:
REMARK  status: ('A' for Active; 'I' for Inactive)
REMARK    1  A    between atoms: C2_2  and  C3_3 
REMARK       I    between atoms: C3_3  and  N1_5 
REMARK    2  A    between atoms: C7_9  and  C8_10 
REMARK    3  A    between atoms: C8_10  and  N2_11 
REMARK    4  A    between atoms: N2_11  and  C9_12 
ROOT
HETATM    1  C9  UNL     1      30.180   7.621  48.354  1.00  0.00     0.010 C 
HETATM    2  C10 UNL     1      30.189   8.815  49.161  1.00  0.00     0.040 C 
HETATM    3  C11 UNL     1      30.561  10.185  48.534  1.00  0.00     0.017 C 
HETATM    4  C12 UNL     1      29.293  10.736  48.812  1.00  0.00     0.155 C 
HETATM    5  N3  UNL     1      28.664   9.977  49.824  1.00  0.00    -0.346 N 
HETATM    6  C13 UNL     1      27.496   9.185  50.135  1.00  0.00     0.094 C 
HETATM    7  C14 UNL     1      27.020   8.078  49.461  1.00  0.00     0.068 C 
HETATM    8  C15 UNL     1      27.873   7.808  48.304  1.00  0.00     0.159 C 
HETATM    9  O2  UNL     1      27.639   6.585  48.084  1.00  0.00    -0.292 OA
HETATM   10  C16 UNL     1      28.734   8.440  47.412  1.00  0.00     0.096 A 
HETATM   11  C17 UNL     1      29.530   9.138  46.558  1.00  0.00    -0.051 A 
HETATM   12  C18 UNL     1      29.834   7.653  46.749  1.00  0.00     0.096 A 
HETATM   13  C19 UNL     1      29.752  10.509  46.028  1.00  0.00     0.130 C 
HETATM   14 CL1  UNL     1      29.748  10.458  44.277  1.00  0.00    -0.104 Cl
HETATM   15  C20 UNL     1      31.180  10.948  46.479  1.00  0.00     0.009 C 
HETATM   16  C21 UNL     1      31.713  10.796  47.751  1.00  0.00     0.014 C 
HETATM   17  C22 UNL     1      28.884  11.621  46.489  1.00  0.00     0.346 C 
HETATM   18  F1  UNL     1      27.590  11.595  46.118  1.00  0.00    -0.216 F 
HETATM   19  O3  UNL     1      28.997  11.895  47.968  1.00  0.00    -0.296 OA
HETATM   20  H15 UNL     1      29.453  10.131  50.452  1.00  0.00     0.167 HD
ENDROOT
BRANCH   1  21
HETATM   21  N2  UNL     1      30.494   6.686  49.322  1.00  0.00    -0.391 N 
HETATM   22  H13 UNL     1      29.731   6.106  49.691  1.00  0.00     0.159 HD
BRANCH  21  23
HETATM   23  C8  UNL     1      31.926   6.748  49.606  1.00  0.00     0.145 C 
BRANCH  23  24
HETATM   24  C7  UNL     1      32.751   6.702  48.314  1.00  0.00     0.105 C 
HETATM   25  N1  UNL     1      33.453   5.436  48.226  1.00  0.00    -0.342 N 
HETATM   26  C3  UNL     1      33.172   4.183  47.614  1.00  0.00     0.242 C 
HETATM   27  C4  UNL     1      34.687   5.626  48.960  1.00  0.00     0.127 C 
HETATM   28  O1  UNL     1      34.062   3.309  47.772  1.00  0.00    -0.268 OA
HETATM   29  C5  UNL     1      35.156   6.967  48.400  1.00  0.00     0.022 C 
HETATM   30  C6  UNL     1      33.854   7.739  48.360  1.00  0.00     0.028 C 
BRANCH  26  31
HETATM   31  C2  UNL     1      32.047   3.731  46.843  1.00  0.00     0.064 C 
HETATM   32  C1  UNL     1      32.233   2.442  46.630  1.00  0.00     0.017 C 
ENDBRANCH  26  31
ENDBRANCH  23  24
ENDBRANCH  21  23
ENDBRANCH   1  21
TORSDOF 4
ENDMDL
MODEL 7
REMARK VINA RESULT:      -7.5      3.173      6.485
REMARK  4 active torsions:
REMARK  status: ('A' for Active; 'I' for Inactive)
REMARK    1  A    between atoms: C2_2  and  C3_3 
REMARK       I    between atoms: C3_3  and  N1_5 
REMARK    2  A    between atoms: C7_9  and  C8_10 
REMARK    3  A    between atoms: C8_10  and  N2_11 
REMARK    4  A    between atoms: N2_11  and  C9_12 
ROOT
HETATM    1  C9  UNL     1      24.446   4.811  50.456  1.00  0.00     0.010 C 
HETATM    2  C10 UNL     1      23.799   4.572  51.723  1.00  0.00     0.040 C 
HETATM    3  C11 UNL     1      22.314   4.124  51.774  1.00  0.00     0.017 C 
HETATM    4  C12 UNL     1      22.632   2.898  52.393  1.00  0.00     0.155 C 
HETATM    5  N3  UNL     1      23.910   2.992  52.989  1.00  0.00    -0.346 N 
HETATM    6  C13 UNL     1      25.237   2.422  53.003  1.00  0.00     0.094 C 
HETATM    7  C14 UNL     1      26.103   2.266  51.940  1.00  0.00     0.068 C 
HETATM    8  C15 UNL     1      25.463   2.747  50.716  1.00  0.00     0.159 C 
HETATM    9  O2  UNL     1      26.458   2.988  49.975  1.00  0.00    -0.292 OA
HETATM   10  C16 UNL     1      24.208   2.941  50.145  1.00  0.00     0.096 A 
HETATM   11  C17 UNL     1      22.950   3.064  49.644  1.00  0.00    -0.051 A 
HETATM   12  C18 UNL     1      24.022   4.002  49.092  1.00  0.00     0.096 A 
HETATM   13  C19 UNL     1      21.576   2.518  49.795  1.00  0.00     0.130 C 
HETATM   14 CL1  UNL     1      20.990   1.990  48.231  1.00  0.00    -0.104 Cl
HETATM   15  C20 UNL     1      20.665   3.696  50.263  1.00  0.00     0.009 C 
HETATM   16  C21 UNL     1      20.967   4.610  51.261  1.00  0.00     0.014 C 
HETATM   17  C22 UNL     1      21.317   1.457  50.800  1.00  0.00     0.346 C 
HETATM   18  F1  UNL     1      21.866   0.246  50.583  1.00  0.00    -0.216 F 
HETATM   19  O3  UNL     1      21.576   1.900  52.218  1.00  0.00    -0.296 OA
HETATM   20  H15 UNL     1      23.611   3.798  53.541  1.00  0.00     0.167 HD
ENDROOT
BRANCH   1  21
HETATM   21  N2  UNL     1      25.363   5.769  50.843  1.00  0.00    -0.391 N 
HETATM   22  H13 UNL     1      26.251   5.446  51.245  1.00  0.00     0.159 HD
BRANCH  21  23
HETATM   23  C8  UNL     1      24.817   7.097  50.571  1.00  0.00     0.145 C 
BRANCH  23  24
HETATM   24  C7  UNL     1      25.156   7.556  49.148  1.00  0.00     0.105 C 
HETATM   25  N1  UNL     1      26.565   7.891  49.065  1.00  0.00    -0.342 N 
HETATM   26  C3  UNL     1      27.736   7.181  48.683  1.00  0.00     0.242 C 
HETATM   27  C4  UNL     1      26.660   9.273  49.490  1.00  0.00     0.127 C 
HETATM   28  O1  UNL     1      28.801   7.846  48.750  1.00  0.00    -0.268 OA
HETATM   29  C5  UNL     1      25.525   9.904  48.686  1.00  0.00     0.022 C 
HETATM   30  C6  UNL     1      24.443   8.854  48.832  1.00  0.00     0.028 C 
BRANCH  26  31
HETATM   31  C2  UNL     1      27.925   5.830  48.229  1.00  0.00     0.064 C 
HETATM   32  C1  UNL     1      29.228   5.631  48.180  1.00  0.00     0.017 C 
ENDBRANCH  26  31
ENDBRANCH  23  24
ENDBRANCH  21  23
ENDBRANCH   1  21
TORSDOF 4
ENDMDL
MODEL 8
REMARK VINA RESULT:      -7.4      8.997     11.801
REMARK  4 active torsions:
REMARK  status: ('A' for Active; 'I' for Inactive)
REMARK    1  A    between atoms: C2_2  and  C3_3 
REMARK       I    between atoms: C3_3  and  N1_5 
REMARK    2  A    between atoms: C7_9  and  C8_10 
REMARK    3  A    between atoms: C8_10  and  N2_11 
REMARK    4  A    between atoms: N2_11  and  C9_12 
ROOT
HETATM    1  C9  UNL     1      31.483   7.342  49.163  1.00  0.00     0.010 C 
HETATM    2  C10 UNL     1      32.135   8.020  48.070  1.00  0.00     0.040 C 
HETATM    3  C11 UNL     1      33.408   7.417  47.418  1.00  0.00     0.017 C 
HETATM    4  C12 UNL     1      32.783   7.275  46.163  1.00  0.00     0.155 C 
HETATM    5  N3  UNL     1      31.655   8.123  46.102  1.00  0.00    -0.346 N 
HETATM    6  C13 UNL     1      30.223   8.151  45.911  1.00  0.00     0.094 C 
HETATM    7  C14 UNL     1      29.260   7.461  46.620  1.00  0.00     0.068 C 
HETATM    8  C15 UNL     1      29.907   6.621  47.629  1.00  0.00     0.159 C 
HETATM    9  O2  UNL     1      28.974   6.443  48.462  1.00  0.00    -0.292 OA
HETATM   10  C16 UNL     1      31.105   5.964  47.896  1.00  0.00     0.096 A 
HETATM   11  C17 UNL     1      32.290   5.320  48.065  1.00  0.00    -0.051 A 
HETATM   12  C18 UNL     1      31.515   5.709  49.323  1.00  0.00     0.096 A 
HETATM   13  C19 UNL     1      33.437   4.766  47.298  1.00  0.00     0.130 C 
HETATM   14 CL1  UNL     1      33.691   3.097  47.764  1.00  0.00    -0.104 Cl
HETATM   15  C20 UNL     1      34.704   5.570  47.727  1.00  0.00     0.009 C 
HETATM   16  C21 UNL     1      34.788   6.948  47.853  1.00  0.00     0.014 C 
HETATM   17  C22 UNL     1      33.444   4.869  45.817  1.00  0.00     0.346 C 
HETATM   18  F1  UNL     1      32.532   4.147  45.139  1.00  0.00    -0.216 F 
HETATM   19  O3  UNL     1      33.460   6.291  45.316  1.00  0.00    -0.296 OA
HETATM   20  H15 UNL     1      32.235   8.936  46.312  1.00  0.00     0.167 HD
ENDROOT
BRANCH   1  21
HETATM   21  N2  UNL     1      30.945   8.432  49.821  1.00  0.00    -0.391 N 
HETATM   22  H13 UNL     1      30.451   8.260  50.705  1.00  0.00     0.159 HD
BRANCH  21  23
HETATM   23  C8  UNL     1      31.225   9.644  49.055  1.00  0.00     0.145 C 
BRANCH  23  24
HETATM   24  C7  UNL     1      30.257  10.773  49.431  1.00  0.00     0.105 C 
HETATM   25  N1  UNL     1      29.015  10.617  48.698  1.00  0.00    -0.342 N 
HETATM   26  C3  UNL     1      27.765   9.997  48.978  1.00  0.00     0.242 C 
HETATM   27  C4  UNL     1      29.229  11.277  47.426  1.00  0.00     0.127 C 
HETATM   28  O1  UNL     1      26.917  10.082  48.054  1.00  0.00    -0.268 OA
HETATM   29  C5  UNL     1      29.856  12.592  47.883  1.00  0.00     0.022 C 
HETATM   30  C6  UNL     1      30.801  12.107  48.963  1.00  0.00     0.028 C 
BRANCH  26  31
HETATM   31  C2  UNL     1      27.293   9.287  50.135  1.00  0.00     0.064 C 
HETATM   32  C1  UNL     1      26.012   9.045  49.928  1.00  0.00     0.017 C 
ENDBRANCH  26  31
ENDBRANCH  23  24
ENDBRANCH  21  23
ENDBRANCH   1  21
TORSDOF 4
ENDMDL
MODEL 9
REMARK VINA RESULT:      -7.3      2.701      6.260
REMARK  4 active torsions:
REMARK  status: ('A' for Active; 'I' for Inactive)
REMARK    1  A    between atoms: C2_2  and  C3_3 
REMARK       I    between atoms: C3_3  and  N1_5 
REMARK    2  A    between atoms: C7_9  and  C8_10 
REMARK    3  A    between atoms: C8_10  and  N2_11 
REMARK    4  A    between atoms: N2_11  and  C9_12 
ROOT
HETATM    1  C9  UNL     1      24.694   4.422  50.425  1.00  0.00     0.010 C 
HETATM    2  C10 UNL     1      23.946   4.427  51.658  1.00  0.00     0.040 C 
HETATM    3  C11 UNL     1      22.455   3.999  51.674  1.00  0.00     0.017 C 
HETATM    4  C12 UNL     1      22.704   2.910  52.535  1.00  0.00     0.155 C 
HETATM    5  N3  UNL     1      23.932   3.113  53.203  1.00  0.00    -0.346 N 
HETATM    6  C13 UNL     1      25.245   2.553  53.429  1.00  0.00     0.094 C 
HETATM    7  C14 UNL     1      26.188   2.198  52.485  1.00  0.00     0.068 C 
HETATM    8  C15 UNL     1      25.653   2.442  51.146  1.00  0.00     0.159 C 
HETATM    9  O2  UNL     1      26.706   2.538  50.454  1.00  0.00    -0.292 OA
HETATM   10  C16 UNL     1      24.450   2.528  50.451  1.00  0.00     0.096 A 
HETATM   11  C17 UNL     1      23.237   2.557  49.838  1.00  0.00    -0.051 A 
HETATM   12  C18 UNL     1      24.364   3.372  49.207  1.00  0.00     0.096 A 
HETATM   13  C19 UNL     1      21.846   2.051  49.979  1.00  0.00     0.130 C 
HETATM   14 CL1  UNL     1      21.374   1.239  48.499  1.00  0.00    -0.104 Cl
HETATM   15  C20 UNL     1      20.921   3.297  50.144  1.00  0.00     0.009 C 
HETATM   16  C21 UNL     1      21.159   4.381  50.974  1.00  0.00     0.014 C 
HETATM   17  C22 UNL     1      21.492   1.197  51.140  1.00  0.00     0.346 C 
HETATM   18  F1  UNL     1      22.036  -0.033  51.198  1.00  0.00    -0.216 F 
HETATM   19  O3  UNL     1      21.648   1.899  52.467  1.00  0.00    -0.296 OA
HETATM   20  H15 UNL     1      23.605   4.007  53.568  1.00  0.00     0.167 HD
ENDROOT
BRANCH   1  21
HETATM   21  N2  UNL     1      25.593   5.435  50.697  1.00  0.00    -0.391 N 
HETATM   22  H13 UNL     1      25.981   5.486  51.647  1.00  0.00     0.159 HD
BRANCH  21  23
HETATM   23  C8  UNL     1      25.791   6.241  49.495  1.00  0.00     0.145 C 
BRANCH  23  24
HETATM   24  C7  UNL     1      24.687   7.295  49.345  1.00  0.00     0.105 C 
HETATM   25  N1  UNL     1      24.236   7.338  47.967  1.00  0.00    -0.342 N 
HETATM   26  C3  UNL     1      23.181   6.714  47.245  1.00  0.00     0.242 C 
HETATM   27  C4  UNL     1      25.139   8.247  47.291  1.00  0.00     0.127 C 
HETATM   28  O1  UNL     1      23.122   7.021  46.027  1.00  0.00    -0.268 OA
HETATM   29  C5  UNL     1      25.169   9.413  48.276  1.00  0.00     0.022 C 
HETATM   30  C6  UNL     1      25.246   8.679  49.598  1.00  0.00     0.028 C 
BRANCH  26  31
HETATM   31  C2  UNL     1      22.161   5.789  47.659  1.00  0.00     0.064 C 
HETATM   32  C1  UNL     1      22.116   4.846  46.737  1.00  0.00     0.017 C 
ENDBRANCH  26  31
ENDBRANCH  23  24
ENDBRANCH  21  23
ENDBRANCH   1  21
TORSDOF 4
ENDMDL
