MODEL 1
REMARK VINA RESULT:      -9.6      0.000      0.000
REMARK  6 active torsions:
REMARK  status: ('A' for Active; 'I' for Inactive)
REMARK    1  A    between atoms: O1_1  and  C1_2 
REMARK    2  A    between atoms: C6_7  and  C7_8 
REMARK    3  A    between atoms: C7_8  and  N1_9 
REMARK    4  A    between atoms: N1_9  and  C8_10 
REMARK    5  A    between atoms: C13_17  and  N4_18 
REMARK    6  A    between atoms: N4_18  and  C14_19 
ROOT
HETATM    1  C8  UNL     1      23.765  -0.038  53.392  1.00  0.00     0.130 A 
HETATM    2  N2  UNL     1      23.070  -1.063  53.757  1.00  0.00    -0.269 NA
HETATM    3  C9  UNL     1      21.625  -1.007  53.701  1.00  0.00     0.179 A 
HETATM    4  C10 UNL     1      21.119   0.296  53.200  1.00  0.00     0.005 A 
HETATM    5  C11 UNL     1      21.796   1.364  52.817  1.00  0.00    -0.026 A 
HETATM    6  C12 UNL     1      21.191   2.628  52.328  1.00  0.00     0.190 A 
HETATM    7  N3  UNL     1      22.207   3.570  52.001  1.00  0.00    -0.268 NA
HETATM    8  C13 UNL     1      23.466   3.454  52.074  1.00  0.00     0.123 A 
HETATM    9  C20 UNL     1      24.058   2.209  52.556  1.00  0.00     0.066 A 
HETATM   10  C21 UNL     1      23.242   1.227  52.905  1.00  0.00     0.021 A 
ENDROOT
BRANCH   1  11
HETATM   11  N1  UNL     1      25.157  -0.251  53.506  1.00  0.00    -0.370 N 
HETATM   12  H8  UNL     1      25.645   0.319  54.275  1.00  0.00     0.161 HD
BRANCH  11  13
HETATM   13  C7  UNL     1      26.024  -1.134  52.753  1.00  0.00     0.162 C 
BRANCH  13  14
HETATM   14  C6  UNL     1      27.466  -0.964  53.033  1.00  0.00    -0.007 A 
HETATM   15  C1  UNL     1      28.511  -1.845  53.116  1.00  0.00     0.073 A 
HETATM   16  C2  UNL     1      29.803  -1.479  53.416  1.00  0.00     0.037 A 
HETATM   17  C3  UNL     1      30.130  -0.161  53.656  1.00  0.00     0.003 A 
HETATM   18  C4  UNL     1      29.131   0.786  53.589  1.00  0.00     0.001 A 
HETATM   19  C5  UNL     1      27.856   0.362  53.286  1.00  0.00     0.011 A 
BRANCH  15  20
HETATM   20  O1  UNL     1      28.203  -3.168  52.876  1.00  0.00    -0.360 OA
HETATM   21  H1  UNL     1      27.576  -3.380  52.092  1.00  0.00     0.217 HD
ENDBRANCH  15  20
ENDBRANCH  13  14
ENDBRANCH  11  13
ENDBRANCH   1  11
BRANCH   8  22
HETATM   22  N4  UNL     1      24.236   4.556  51.679  1.00  0.00    -0.341 N 
HETATM   23  H14 UNL     1      24.022   5.422  52.236  1.00  0.00     0.167 HD
BRANCH  22  24
HETATM   24  C14 UNL     1      25.222   4.661  50.672  1.00  0.00     0.035 A 
HETATM   25  C15 UNL     1      26.100   3.711  50.223  1.00  0.00     0.029 A 
HETATM   26  C16 UNL     1      27.030   3.880  49.245  1.00  0.00     0.004 A 
HETATM   27  C17 UNL     1      27.135   5.102  48.620  1.00  0.00     0.024 A 
HETATM   28  C18 UNL     1      26.283   6.108  49.021  1.00  0.00     0.036 A 
HETATM   29 CL1  UNL     1      26.413   7.645  48.236  1.00  0.00    -0.084 Cl
HETATM   30  C19 UNL     1      25.365   5.875  50.014  1.00  0.00     0.053 A 
ENDBRANCH  22  24
ENDBRANCH   8  22
TORSDOF 6
ENDMDL
MODEL 2
REMARK VINA RESULT:      -9.5      1.168      1.570
REMARK  6 active torsions:
REMARK  status: ('A' for Active; 'I' for Inactive)
REMARK    1  A    between atoms: O1_1  and  C1_2 
REMARK    2  A    between atoms: C6_7  and  C7_8 
REMARK    3  A    between atoms: C7_8  and  N1_9 
REMARK    4  A    between atoms: N1_9  and  C8_10 
REMARK    5  A    between atoms: C13_17  and  N4_18 
REMARK    6  A    between atoms: N4_18  and  C14_19 
ROOT
HETATM    1  C8  UNL     1      23.870  -0.084  53.435  1.00  0.00     0.130 A 
HETATM    2  N2  UNL     1      23.575  -0.899  54.391  1.00  0.00    -0.269 NA
HETATM    3  C9  UNL     1      22.221  -0.946  54.901  1.00  0.00     0.179 A 
HETATM    4  C10 UNL     1      21.313   0.002  54.210  1.00  0.00     0.005 A 
HETATM    5  C11 UNL     1      21.576   0.848  53.230  1.00  0.00    -0.026 A 
HETATM    6  C12 UNL     1      20.589   1.763  52.603  1.00  0.00     0.190 A 
HETATM    7  N3  UNL     1      21.209   2.535  51.580  1.00  0.00    -0.268 NA
HETATM    8  C13 UNL     1      22.410   2.525  51.181  1.00  0.00     0.123 A 
HETATM    9  C20 UNL     1      23.379   1.625  51.800  1.00  0.00     0.066 A 
HETATM   10  C21 UNL     1      22.958   0.836  52.776  1.00  0.00     0.021 A 
ENDROOT
BRANCH   1  11
HETATM   11  N1  UNL     1      25.228  -0.157  53.051  1.00  0.00    -0.370 N 
HETATM   12  H8  UNL     1      25.719   0.790  52.925  1.00  0.00     0.161 HD
BRANCH  11  13
HETATM   13  C7  UNL     1      26.063  -1.318  52.817  1.00  0.00     0.162 C 
BRANCH  13  14
HETATM   14  C6  UNL     1      27.504  -1.098  53.067  1.00  0.00    -0.007 A 
HETATM   15  C1  UNL     1      28.580  -1.942  53.129  1.00  0.00     0.073 A 
HETATM   16  C2  UNL     1      29.864  -1.532  53.402  1.00  0.00     0.037 A 
HETATM   17  C3  UNL     1      30.151  -0.203  53.636  1.00  0.00     0.003 A 
HETATM   18  C4  UNL     1      29.118   0.709  53.589  1.00  0.00     0.001 A 
HETATM   19  C5  UNL     1      27.853   0.241  53.312  1.00  0.00     0.011 A 
BRANCH  15  20
HETATM   20  O1  UNL     1      28.313  -3.275  52.895  1.00  0.00    -0.360 OA
HETATM   21  H1  UNL     1      27.354  -3.606  53.052  1.00  0.00     0.217 HD
ENDBRANCH  15  20
ENDBRANCH  13  14
ENDBRANCH  11  13
ENDBRANCH   1  11
BRANCH   8  22
HETATM   22  N4  UNL     1      22.747   3.402  50.141  1.00  0.00    -0.341 N 
HETATM   23  H14 UNL     1      22.201   3.219  49.261  1.00  0.00     0.167 HD
BRANCH  22  24
HETATM   24  C14 UNL     1      23.686   4.458  50.112  1.00  0.00     0.035 A 
HETATM   25  C15 UNL     1      23.568   5.731  50.606  1.00  0.00     0.029 A 
HETATM   26  C16 UNL     1      24.516   6.704  50.543  1.00  0.00     0.004 A 
HETATM   27  C17 UNL     1      25.720   6.432  49.936  1.00  0.00     0.024 A 
HETATM   28  C18 UNL     1      25.911   5.171  49.414  1.00  0.00     0.036 A 
HETATM   29 CL1  UNL     1      27.426   4.827  48.651  1.00  0.00    -0.084 Cl
HETATM   30  C19 UNL     1      24.916   4.231  49.510  1.00  0.00     0.053 A 
ENDBRANCH  22  24
ENDBRANCH   8  22
TORSDOF 6
ENDMDL
MODEL 3
REMARK VINA RESULT:      -9.2      3.227      6.310
REMARK  6 active torsions:
REMARK  status: ('A' for Active; 'I' for Inactive)
REMARK    1  A    between atoms: O1_1  and  C1_2 
REMARK    2  A    between atoms: C6_7  and  C7_8 
REMARK    3  A    between atoms: C7_8  and  N1_9 
REMARK    4  A    between atoms: N1_9  and  C8_10 
REMARK    5  A    between atoms: C13_17  and  N4_18 
REMARK    6  A    between atoms: N4_18  and  C14_19 
ROOT
HETATM    1  C8  UNL     1      22.656   3.074  51.002  1.00  0.00     0.130 A 
HETATM    2  N2  UNL     1      21.813   3.388  50.077  1.00  0.00    -0.269 NA
HETATM    3  C9  UNL     1      22.294   3.829  48.785  1.00  0.00     0.179 A 
HETATM    4  C10 UNL     1      23.776   3.857  48.703  1.00  0.00     0.005 A 
HETATM    5  C11 UNL     1      24.670   3.544  49.624  1.00  0.00    -0.026 A 
HETATM    6  C12 UNL     1      26.142   3.608  49.442  1.00  0.00     0.190 A 
HETATM    7  N3  UNL     1      26.807   3.201  50.633  1.00  0.00    -0.268 NA
HETATM    8  C13 UNL     1      26.319   2.823  51.738  1.00  0.00     0.123 A 
HETATM    9  C20 UNL     1      24.870   2.763  51.915  1.00  0.00     0.066 A 
HETATM   10  C21 UNL     1      24.105   3.112  50.893  1.00  0.00     0.021 A 
ENDROOT
BRANCH   1  11
HETATM   11  N1  UNL     1      22.030   2.665  52.200  1.00  0.00    -0.370 N 
HETATM   12  H8  UNL     1      22.329   3.205  53.079  1.00  0.00     0.161 HD
BRANCH  11  13
HETATM   13  C7  UNL     1      21.033   1.637  52.420  1.00  0.00     0.162 C 
BRANCH  13  14
HETATM   14  C6  UNL     1      21.489   0.508  53.259  1.00  0.00    -0.007 A 
HETATM   15  C1  UNL     1      20.825  -0.464  53.958  1.00  0.00     0.073 A 
HETATM   16  C2  UNL     1      21.448  -1.432  54.711  1.00  0.00     0.037 A 
HETATM   17  C3  UNL     1      22.823  -1.480  54.808  1.00  0.00     0.003 A 
HETATM   18  C4  UNL     1      23.563  -0.534  54.131  1.00  0.00     0.001 A 
HETATM   19  C5  UNL     1      22.885   0.411  53.393  1.00  0.00     0.011 A 
BRANCH  15  20
HETATM   20  O1  UNL     1      19.449  -0.433  53.870  1.00  0.00    -0.360 OA
HETATM   21  H1  UNL     1      18.909  -0.698  54.702  1.00  0.00     0.217 HD
ENDBRANCH  15  20
ENDBRANCH  13  14
ENDBRANCH  11  13
ENDBRANCH   1  11
BRANCH   8  22
HETATM   22  N4  UNL     1      27.221   2.476  52.752  1.00  0.00    -0.341 N 
HETATM   23  H14 UNL     1      27.412   3.269  53.417  1.00  0.00     0.167 HD
BRANCH  22  24
HETATM   24  C14 UNL     1      27.887   1.254  52.997  1.00  0.00     0.035 A 
HETATM   25  C15 UNL     1      29.122   1.041  53.551  1.00  0.00     0.029 A 
HETATM   26  C16 UNL     1      29.708  -0.169  53.758  1.00  0.00     0.004 A 
HETATM   27  C17 UNL     1      29.035  -1.313  53.392  1.00  0.00     0.024 A 
HETATM   28  C18 UNL     1      27.786  -1.176  52.826  1.00  0.00     0.036 A 
HETATM   29 CL1  UNL     1      26.940  -2.614  52.366  1.00  0.00    -0.084 Cl
HETATM   30  C19 UNL     1      27.249   0.073  52.644  1.00  0.00     0.053 A 
ENDBRANCH  22  24
ENDBRANCH   8  22
TORSDOF 6
ENDMDL
MODEL 4
REMARK VINA RESULT:      -9.1      2.960      6.486
REMARK  6 active torsions:
REMARK  status: ('A' for Active; 'I' for Inactive)
REMARK    1  A    between atoms: O1_1  and  C1_2 
REMARK    2  A    between atoms: C6_7  and  C7_8 
REMARK    3  A    between atoms: C7_8  and  N1_9 
REMARK    4  A    between atoms: N1_9  and  C8_10 
REMARK    5  A    between atoms: C13_17  and  N4_18 
REMARK    6  A    between atoms: N4_18  and  C14_19 
ROOT
HETATM    1  C8  UNL     1      23.601   2.695  50.735  1.00  0.00     0.130 A 
HETATM    2  N2  UNL     1      22.667   3.144  49.965  1.00  0.00    -0.269 NA
HETATM    3  C9  UNL     1      21.380   2.483  49.938  1.00  0.00     0.179 A 
HETATM    4  C10 UNL     1      21.313   1.317  50.854  1.00  0.00     0.005 A 
HETATM    5  C11 UNL     1      22.243   0.829  51.655  1.00  0.00    -0.026 A 
HETATM    6  C12 UNL     1      22.075  -0.352  52.539  1.00  0.00     0.190 A 
HETATM    7  N3  UNL     1      23.274  -0.602  53.265  1.00  0.00    -0.268 NA
HETATM    8  C13 UNL     1      24.375   0.023  53.241  1.00  0.00     0.123 A 
HETATM    9  C20 UNL     1      24.537   1.184  52.370  1.00  0.00     0.066 A 
HETATM   10  C21 UNL     1      23.507   1.549  51.623  1.00  0.00     0.021 A 
ENDROOT
BRANCH   1  11
HETATM   11  N1  UNL     1      24.793   3.448  50.647  1.00  0.00    -0.370 N 
HETATM   12  H8  UNL     1      24.935   4.172  51.428  1.00  0.00     0.161 HD
BRANCH  11  13
HETATM   13  C7  UNL     1      25.863   3.380  49.672  1.00  0.00     0.162 C 
BRANCH  13  14
HETATM   14  C6  UNL     1      26.260   4.686  49.103  1.00  0.00    -0.007 A 
HETATM   15  C1  UNL     1      25.559   5.818  48.785  1.00  0.00     0.073 A 
HETATM   16  C2  UNL     1      26.125   6.943  48.233  1.00  0.00     0.037 A 
HETATM   17  C3  UNL     1      27.476   6.998  47.962  1.00  0.00     0.003 A 
HETATM   18  C4  UNL     1      28.250   5.897  48.257  1.00  0.00     0.001 A 
HETATM   19  C5  UNL     1      27.629   4.798  48.807  1.00  0.00     0.011 A 
BRANCH  15  20
HETATM   20  O1  UNL     1      24.206   5.781  49.051  1.00  0.00    -0.360 OA
HETATM   21  H1  UNL     1      23.637   5.086  48.554  1.00  0.00     0.217 HD
ENDBRANCH  15  20
ENDBRANCH  13  14
ENDBRANCH  11  13
ENDBRANCH   1  11
BRANCH   8  22
HETATM   22  N4  UNL     1      25.398  -0.449  54.073  1.00  0.00    -0.341 N 
HETATM   23  H14 UNL     1      25.037  -0.859  54.971  1.00  0.00     0.167 HD
BRANCH  22  24
HETATM   24  C14 UNL     1      26.799  -0.449  53.880  1.00  0.00     0.035 A 
HETATM   25  C15 UNL     1      27.586  -1.391  53.272  1.00  0.00     0.029 A 
HETATM   26  C16 UNL     1      28.936  -1.329  53.120  1.00  0.00     0.004 A 
HETATM   27  C17 UNL     1      29.618  -0.237  53.607  1.00  0.00     0.024 A 
HETATM   28  C18 UNL     1      28.891   0.753  54.232  1.00  0.00     0.036 A 
HETATM   29 CL1  UNL     1      29.747   2.127  54.844  1.00  0.00    -0.084 Cl
HETATM   30  C19 UNL     1      27.529   0.632  54.354  1.00  0.00     0.053 A 
ENDBRANCH  22  24
ENDBRANCH   8  22
TORSDOF 6
ENDMDL
MODEL 5
REMARK VINA RESULT:      -9.1      3.340      6.184
REMARK  6 active torsions:
REMARK  status: ('A' for Active; 'I' for Inactive)
REMARK    1  A    between atoms: O1_1  and  C1_2 
REMARK    2  A    between atoms: C6_7  and  C7_8 
REMARK    3  A    between atoms: C7_8  and  N1_9 
REMARK    4  A    between atoms: N1_9  and  C8_10 
REMARK    5  A    between atoms: C13_17  and  N4_18 
REMARK    6  A    between atoms: N4_18  and  C14_19 
ROOT
HETATM    1  C8  UNL     1      25.020   4.287  50.260  1.00  0.00     0.130 A 
HETATM    2  N2  UNL     1      25.543   5.413  49.906  1.00  0.00    -0.269 NA
HETATM    3  C9  UNL     1      24.920   6.198  48.862  1.00  0.00     0.179 A 
HETATM    4  C10 UNL     1      23.694   5.562  48.318  1.00  0.00     0.005 A 
HETATM    5  C11 UNL     1      23.128   4.416  48.653  1.00  0.00    -0.026 A 
HETATM    6  C12 UNL     1      21.893   3.863  48.043  1.00  0.00     0.190 A 
HETATM    7  N3  UNL     1      21.562   2.613  48.640  1.00  0.00    -0.268 NA
HETATM    8  C13 UNL     1      22.157   1.977  49.558  1.00  0.00     0.123 A 
HETATM    9  C20 UNL     1      23.373   2.524  50.156  1.00  0.00     0.066 A 
HETATM   10  C21 UNL     1      23.817   3.687  49.708  1.00  0.00     0.021 A 
ENDROOT
BRANCH   1  11
HETATM   11  N1  UNL     1      25.745   3.643  51.287  1.00  0.00    -0.370 N 
HETATM   12  H8  UNL     1      25.455   3.910  52.287  1.00  0.00     0.161 HD
BRANCH  11  13
HETATM   13  C7  UNL     1      26.809   2.665  51.197  1.00  0.00     0.162 C 
BRANCH  13  14
HETATM   14  C6  UNL     1      26.800   1.647  52.270  1.00  0.00    -0.007 A 
HETATM   15  C1  UNL     1      27.144   1.684  53.595  1.00  0.00     0.073 A 
HETATM   16  C2  UNL     1      27.082   0.598  54.436  1.00  0.00     0.037 A 
HETATM   17  C3  UNL     1      26.654  -0.631  53.979  1.00  0.00     0.003 A 
HETATM   18  C4  UNL     1      26.288  -0.747  52.655  1.00  0.00     0.001 A 
HETATM   19  C5  UNL     1      26.372   0.374  51.859  1.00  0.00     0.011 A 
BRANCH  15  20
HETATM   20  O1  UNL     1      27.572   2.906  54.071  1.00  0.00    -0.360 OA
HETATM   21  H1  UNL     1      26.859   3.595  54.335  1.00  0.00     0.217 HD
ENDBRANCH  15  20
ENDBRANCH  13  14
ENDBRANCH  11  13
ENDBRANCH   1  11
BRANCH   8  22
HETATM   22  N4  UNL     1      21.601   0.755  49.957  1.00  0.00    -0.341 N 
HETATM   23  H14 UNL     1      21.506   0.072  49.162  1.00  0.00     0.167 HD
BRANCH  22  24
HETATM   24  C14 UNL     1      21.163   0.328  51.231  1.00  0.00     0.035 A 
HETATM   25  C15 UNL     1      19.885   0.232  51.717  1.00  0.00     0.029 A 
HETATM   26  C16 UNL     1      19.531  -0.187  52.961  1.00  0.00     0.004 A 
HETATM   27  C17 UNL     1      20.514  -0.560  53.849  1.00  0.00     0.024 A 
HETATM   28  C18 UNL     1      21.825  -0.489  53.431  1.00  0.00     0.036 A 
HETATM   29 CL1  UNL     1      23.062  -0.957  54.547  1.00  0.00    -0.084 Cl
HETATM   30  C19 UNL     1      22.118  -0.057  52.161  1.00  0.00     0.053 A 
ENDBRANCH  22  24
ENDBRANCH   8  22
TORSDOF 6
ENDMDL
MODEL 6
REMARK VINA RESULT:      -9.1      3.190      5.908
REMARK  6 active torsions:
REMARK  status: ('A' for Active; 'I' for Inactive)
REMARK    1  A    between atoms: O1_1  and  C1_2 
REMARK    2  A    between atoms: C6_7  and  C7_8 
REMARK    3  A    between atoms: C7_8  and  N1_9 
REMARK    4  A    between atoms: N1_9  and  C8_10 
REMARK    5  A    between atoms: C13_17  and  N4_18 
REMARK    6  A    between atoms: N4_18  and  C14_19 
ROOT
HETATM    1  C8  UNL     1      21.617   1.203  51.606  1.00  0.00     0.130 A 
HETATM    2  N2  UNL     1      20.384   1.318  51.241  1.00  0.00    -0.269 NA
HETATM    3  C9  UNL     1      19.356   0.583  51.946  1.00  0.00     0.179 A 
HETATM    4  C10 UNL     1      19.896  -0.244  53.054  1.00  0.00     0.005 A 
HETATM    5  C11 UNL     1      21.146  -0.386  53.458  1.00  0.00    -0.026 A 
HETATM    6  C12 UNL     1      21.587  -1.245  54.585  1.00  0.00     0.190 A 
HETATM    7  N3  UNL     1      22.999  -1.164  54.748  1.00  0.00    -0.268 NA
HETATM    8  C13 UNL     1      23.847  -0.493  54.089  1.00  0.00     0.123 A 
HETATM    9  C20 UNL     1      23.411   0.350  52.980  1.00  0.00     0.066 A 
HETATM   10  C21 UNL     1      22.118   0.385  52.697  1.00  0.00     0.021 A 
ENDROOT
BRANCH   1  11
HETATM   11  N1  UNL     1      22.496   1.982  50.822  1.00  0.00    -0.370 N 
HETATM   12  H8  UNL     1      22.975   1.458  50.015  1.00  0.00     0.161 HD
BRANCH  11  13
HETATM   13  C7  UNL     1      22.839   3.386  50.929  1.00  0.00     0.162 C 
BRANCH  13  14
HETATM   14  C6  UNL     1      24.149   3.745  50.345  1.00  0.00    -0.007 A 
HETATM   15  C1  UNL     1      24.568   4.786  49.560  1.00  0.00     0.073 A 
HETATM   16  C2  UNL     1      25.853   4.929  49.094  1.00  0.00     0.037 A 
HETATM   17  C3  UNL     1      26.827   4.002  49.402  1.00  0.00     0.003 A 
HETATM   18  C4  UNL     1      26.483   2.925  50.191  1.00  0.00     0.001 A 
HETATM   19  C5  UNL     1      25.180   2.833  50.628  1.00  0.00     0.011 A 
BRANCH  15  20
HETATM   20  O1  UNL     1      23.607   5.724  49.244  1.00  0.00    -0.360 OA
HETATM   21  H1  UNL     1      23.500   6.531  49.869  1.00  0.00     0.217 HD
ENDBRANCH  15  20
ENDBRANCH  13  14
ENDBRANCH  11  13
ENDBRANCH   1  11
BRANCH   8  22
HETATM   22  N4  UNL     1      25.190  -0.604  54.475  1.00  0.00    -0.341 N 
HETATM   23  H14 UNL     1      25.366  -1.426  55.106  1.00  0.00     0.167 HD
BRANCH  22  24
HETATM   24  C14 UNL     1      26.299   0.207  54.145  1.00  0.00     0.035 A 
HETATM   25  C15 UNL     1      26.353   1.565  53.970  1.00  0.00     0.029 A 
HETATM   26  C16 UNL     1      27.460   2.287  53.650  1.00  0.00     0.004 A 
HETATM   27  C17 UNL     1      28.661   1.637  53.477  1.00  0.00     0.024 A 
HETATM   28  C18 UNL     1      28.683   0.268  53.636  1.00  0.00     0.036 A 
HETATM   29 CL1  UNL     1      30.192  -0.551  53.418  1.00  0.00    -0.084 Cl
HETATM   30  C19 UNL     1      27.531  -0.404  53.960  1.00  0.00     0.053 A 
ENDBRANCH  22  24
ENDBRANCH   8  22
TORSDOF 6
ENDMDL
MODEL 7
REMARK VINA RESULT:      -9.1      1.950      2.570
REMARK  6 active torsions:
REMARK  status: ('A' for Active; 'I' for Inactive)
REMARK    1  A    between atoms: O1_1  and  C1_2 
REMARK    2  A    between atoms: C6_7  and  C7_8 
REMARK    3  A    between atoms: C7_8  and  N1_9 
REMARK    4  A    between atoms: N1_9  and  C8_10 
REMARK    5  A    between atoms: C13_17  and  N4_18 
REMARK    6  A    between atoms: N4_18  and  C14_19 
ROOT
HETATM    1  C8  UNL     1      23.690   0.741  52.623  1.00  0.00     0.130 A 
HETATM    2  N2  UNL     1      22.588   0.156  52.951  1.00  0.00    -0.269 NA
HETATM    3  C9  UNL     1      21.412   0.324  52.124  1.00  0.00     0.179 A 
HETATM    4  C10 UNL     1      21.657   1.194  50.947  1.00  0.00     0.005 A 
HETATM    5  C11 UNL     1      22.767   1.808  50.578  1.00  0.00    -0.026 A 
HETATM    6  C12 UNL     1      22.909   2.664  49.373  1.00  0.00     0.190 A 
HETATM    7  N3  UNL     1      24.238   3.166  49.277  1.00  0.00    -0.268 NA
HETATM    8  C13 UNL     1      25.227   2.977  50.043  1.00  0.00     0.123 A 
HETATM    9  C20 UNL     1      25.084   2.135  51.228  1.00  0.00     0.066 A 
HETATM   10  C21 UNL     1      23.901   1.590  51.463  1.00  0.00     0.021 A 
ENDROOT
BRANCH   1  11
HETATM   11  N1  UNL     1      24.741   0.479  53.530  1.00  0.00    -0.370 N 
HETATM   12  H8  UNL     1      24.885   1.223  54.291  1.00  0.00     0.161 HD
BRANCH  11  13
HETATM   13  C7  UNL     1      25.646  -0.651  53.598  1.00  0.00     0.162 C 
BRANCH  13  14
HETATM   14  C6  UNL     1      27.079  -0.288  53.652  1.00  0.00    -0.007 A 
HETATM   15  C1  UNL     1      27.738   0.865  53.983  1.00  0.00     0.073 A 
HETATM   16  C2  UNL     1      29.106   1.006  53.947  1.00  0.00     0.037 A 
HETATM   17  C3  UNL     1      29.918  -0.041  53.565  1.00  0.00     0.003 A 
HETATM   18  C4  UNL     1      29.327  -1.238  53.220  1.00  0.00     0.001 A 
HETATM   19  C5  UNL     1      27.953  -1.320  53.273  1.00  0.00     0.011 A 
BRANCH  15  20
HETATM   20  O1  UNL     1      26.942   1.923  54.369  1.00  0.00    -0.360 OA
HETATM   21  H1  UNL     1      26.382   2.391  53.647  1.00  0.00     0.217 HD
ENDBRANCH  15  20
ENDBRANCH  13  14
ENDBRANCH  11  13
ENDBRANCH   1  11
BRANCH   8  22
HETATM   22  N4  UNL     1      26.433   3.603  49.700  1.00  0.00    -0.341 N 
HETATM   23  H14 UNL     1      27.276   3.023  49.941  1.00  0.00     0.167 HD
BRANCH  22  24
HETATM   24  C14 UNL     1      26.664   4.861  49.099  1.00  0.00     0.035 A 
HETATM   25  C15 UNL     1      25.787   5.893  48.891  1.00  0.00     0.029 A 
HETATM   26  C16 UNL     1      26.076   7.084  48.302  1.00  0.00     0.004 A 
HETATM   27  C17 UNL     1      27.357   7.320  47.858  1.00  0.00     0.024 A 
HETATM   28  C18 UNL     1      28.296   6.326  48.032  1.00  0.00     0.036 A 
HETATM   29 CL1  UNL     1      29.907   6.622  47.474  1.00  0.00    -0.084 Cl
HETATM   30  C19 UNL     1      27.941   5.145  48.635  1.00  0.00     0.053 A 
ENDBRANCH  22  24
ENDBRANCH   8  22
TORSDOF 6
ENDMDL
MODEL 8
REMARK VINA RESULT:      -9.0      2.971      6.539
REMARK  6 active torsions:
REMARK  status: ('A' for Active; 'I' for Inactive)
REMARK    1  A    between atoms: O1_1  and  C1_2 
REMARK    2  A    between atoms: C6_7  and  C7_8 
REMARK    3  A    between atoms: C7_8  and  N1_9 
REMARK    4  A    between atoms: N1_9  and  C8_10 
REMARK    5  A    between atoms: C13_17  and  N4_18 
REMARK    6  A    between atoms: N4_18  and  C14_19 
ROOT
HETATM    1  C8  UNL     1      27.053   2.103  52.529  1.00  0.00     0.130 A 
HETATM    2  N2  UNL     1      28.310   2.092  52.821  1.00  0.00    -0.269 NA
HETATM    3  C9  UNL     1      28.819   1.119  53.764  1.00  0.00     0.179 A 
HETATM    4  C10 UNL     1      27.762   0.219  54.289  1.00  0.00     0.005 A 
HETATM    5  C11 UNL     1      26.470   0.198  54.015  1.00  0.00    -0.026 A 
HETATM    6  C12 UNL     1      25.488  -0.749  54.598  1.00  0.00     0.190 A 
HETATM    7  N3  UNL     1      24.185  -0.493  54.084  1.00  0.00    -0.268 NA
HETATM    8  C13 UNL     1      23.807   0.383  53.253  1.00  0.00     0.123 A 
HETATM    9  C20 UNL     1      24.775   1.315  52.681  1.00  0.00     0.066 A 
HETATM   10  C21 UNL     1      26.038   1.209  53.060  1.00  0.00     0.021 A 
ENDROOT
BRANCH   1  11
HETATM   11  N1  UNL     1      26.715   3.109  51.597  1.00  0.00    -0.370 N 
HETATM   12  H8  UNL     1      26.520   4.077  52.020  1.00  0.00     0.161 HD
BRANCH  11  13
HETATM   13  C7  UNL     1      26.609   3.037  50.154  1.00  0.00     0.162 C 
BRANCH  13  14
HETATM   14  C6  UNL     1      25.796   4.112  49.543  1.00  0.00    -0.007 A 
HETATM   15  C1  UNL     1      26.087   5.388  49.139  1.00  0.00     0.073 A 
HETATM   16  C2  UNL     1      25.163   6.254  48.604  1.00  0.00     0.037 A 
HETATM   17  C3  UNL     1      23.848   5.875  48.436  1.00  0.00     0.003 A 
HETATM   18  C4  UNL     1      23.478   4.603  48.818  1.00  0.00     0.001 A 
HETATM   19  C5  UNL     1      24.445   3.779  49.349  1.00  0.00     0.011 A 
BRANCH  15  20
HETATM   20  O1  UNL     1      27.399   5.783  49.298  1.00  0.00    -0.360 OA
HETATM   21  H1  UNL     1      27.582   6.777  49.477  1.00  0.00     0.217 HD
ENDBRANCH  15  20
ENDBRANCH  13  14
ENDBRANCH  11  13
ENDBRANCH   1  11
BRANCH   8  22
HETATM   22  N4  UNL     1      22.445   0.407  52.922  1.00  0.00    -0.341 N 
HETATM   23  H14 UNL     1      21.903  -0.374  53.371  1.00  0.00     0.167 HD
BRANCH  22  24
HETATM   24  C14 UNL     1      21.727   1.302  52.097  1.00  0.00     0.035 A 
HETATM   25  C15 UNL     1      20.929   2.356  52.457  1.00  0.00     0.029 A 
HETATM   26  C16 UNL     1      20.261   3.182  51.607  1.00  0.00     0.004 A 
HETATM   27  C17 UNL     1      20.366   2.976  50.250  1.00  0.00     0.024 A 
HETATM   28  C18 UNL     1      21.152   1.932  49.812  1.00  0.00     0.036 A 
HETATM   29 CL1  UNL     1      21.284   1.674  48.106  1.00  0.00    -0.084 Cl
HETATM   30  C19 UNL     1      21.801   1.135  50.721  1.00  0.00     0.053 A 
ENDBRANCH  22  24
ENDBRANCH   8  22
TORSDOF 6
ENDMDL
MODEL 9
REMARK VINA RESULT:      -8.7      3.657      7.078
REMARK  6 active torsions:
REMARK  status: ('A' for Active; 'I' for Inactive)
REMARK    1  A    between atoms: O1_1  and  C1_2 
REMARK    2  A    between atoms: C6_7  and  C7_8 
REMARK    3  A    between atoms: C7_8  and  N1_9 
REMARK    4  A    between atoms: N1_9  and  C8_10 
REMARK    5  A    between atoms: C13_17  and  N4_18 
REMARK    6  A    between atoms: N4_18  and  C14_19 
ROOT
HETATM    1  C8  UNL     1      24.693   0.736  52.679  1.00  0.00     0.130 A 
HETATM    2  N2  UNL     1      25.974   0.676  52.828  1.00  0.00    -0.269 NA
HETATM    3  C9  UNL     1      26.536  -0.107  53.908  1.00  0.00     0.179 A 
HETATM    4  C10 UNL     1      25.499  -0.772  54.736  1.00  0.00     0.005 A 
HETATM    5  C11 UNL     1      24.184  -0.737  54.615  1.00  0.00    -0.026 A 
HETATM    6  C12 UNL     1      23.226  -1.441  55.503  1.00  0.00     0.190 A 
HETATM    7  N3  UNL     1      21.887  -1.188  55.089  1.00  0.00    -0.268 NA
HETATM    8  C13 UNL     1      21.463  -0.486  54.125  1.00  0.00     0.123 A 
HETATM    9  C20 UNL     1      22.408   0.207  53.253  1.00  0.00     0.066 A 
HETATM   10  C21 UNL     1      23.700   0.074  53.507  1.00  0.00     0.021 A 
ENDROOT
BRANCH   1  11
HETATM   11  N1  UNL     1      24.305   1.538  51.584  1.00  0.00    -0.370 N 
HETATM   12  H8  UNL     1      24.126   1.006  50.668  1.00  0.00     0.161 HD
BRANCH  11  13
HETATM   13  C7  UNL     1      24.095   2.970  51.512  1.00  0.00     0.162 C 
BRANCH  13  14
HETATM   14  C6  UNL     1      25.004   3.679  50.585  1.00  0.00    -0.007 A 
HETATM   15  C1  UNL     1      26.294   3.453  50.189  1.00  0.00     0.073 A 
HETATM   16  C2  UNL     1      26.983   4.261  49.315  1.00  0.00     0.037 A 
HETATM   17  C3  UNL     1      26.392   5.381  48.768  1.00  0.00     0.003 A 
HETATM   18  C4  UNL     1      25.092   5.675  49.119  1.00  0.00     0.001 A 
HETATM   19  C5  UNL     1      24.452   4.830  49.999  1.00  0.00     0.011 A 
BRANCH  15  20
HETATM   20  O1  UNL     1      26.900   2.335  50.723  1.00  0.00    -0.360 OA
HETATM   21  H1  UNL     1      26.915   1.479  50.157  1.00  0.00     0.217 HD
ENDBRANCH  15  20
ENDBRANCH  13  14
ENDBRANCH  11  13
ENDBRANCH   1  11
BRANCH   8  22
HETATM   22  N4  UNL     1      20.075  -0.414  53.947  1.00  0.00    -0.341 N 
HETATM   23  H14 UNL     1      19.542  -0.529  54.847  1.00  0.00     0.167 HD
BRANCH  22  24
HETATM   24  C14 UNL     1      19.319  -0.216  52.769  1.00  0.00     0.035 A 
HETATM   25  C15 UNL     1      19.646   0.492  51.643  1.00  0.00     0.029 A 
HETATM   26  C16 UNL     1      18.867   0.644  50.539  1.00  0.00     0.004 A 
HETATM   27  C17 UNL     1      17.626   0.049  50.504  1.00  0.00     0.024 A 
HETATM   28  C18 UNL     1      17.228  -0.680  51.604  1.00  0.00     0.036 A 
HETATM   29 CL1  UNL     1      15.668  -1.429  51.561  1.00  0.00    -0.084 Cl
HETATM   30  C19 UNL     1      18.061  -0.797  52.688  1.00  0.00     0.053 A 
ENDBRANCH  22  24
ENDBRANCH   8  22
TORSDOF 6
ENDMDL
