MODEL 1
REMARK VINA RESULT:      -8.7      0.000      0.000
REMARK  6 active torsions:
REMARK  status: ('A' for Active; 'I' for Inactive)
REMARK    1  A    between atoms: O1_1  and  C1_2 
REMARK    2  A    between atoms: C1_2  and  C2_3 
REMARK    3  A    between atoms: C2_3  and  N1_4 
REMARK    4  A    between atoms: C2_3  and  C18_23 
REMARK    5  A    between atoms: N1_4  and  C3_5 
REMARK    6  A    between atoms: C5_9  and  O2_22 
ROOT
HETATM    1  C3  UNL     1      25.894   2.512  51.908  1.00  0.00     0.126 A 
HETATM    2  N2  UNL     1      27.143   1.940  51.678  1.00  0.00    -0.227 NA
HETATM    3  C4  UNL     1      27.226   0.601  52.052  1.00  0.00     0.235 A 
HETATM    4  N3  UNL     1      26.347  -0.251  52.590  1.00  0.00    -0.242 NA
HETATM    5  C5  UNL     1      25.054   0.231  52.866  1.00  0.00     0.087 A 
HETATM    6  C6  UNL     1      24.888   1.692  52.493  1.00  0.00     0.119 A 
HETATM    7  C7  UNL     1      23.644   2.648  52.769  1.00  0.00    -0.026 A 
HETATM    8  C8  UNL     1      23.713   3.840  52.792  1.00  0.00     0.010 C 
HETATM    9  C9  UNL     1      22.843   4.936  52.975  1.00  0.00     0.008 C 
HETATM   10  C10 UNL     1      22.170   4.884  51.819  1.00  0.00    -0.047 C 
HETATM   11  C11 UNL     1      21.098   4.056  51.913  1.00  0.00     0.031 C 
HETATM   12  C12 UNL     1      21.162   2.639  52.112  1.00  0.00     0.007 C 
HETATM   13  C13 UNL     1      21.131   1.365  52.253  1.00  0.00    -0.023 C 
HETATM   14  C14 UNL     1      21.446   0.006  52.544  1.00  0.00     0.063 A 
HETATM   15  C15 UNL     1      22.542  -0.684  53.005  1.00  0.00    -0.022 A 
HETATM   16  C16 UNL     1      22.898   0.477  52.931  1.00  0.00     0.011 A 
HETATM   17  C17 UNL     1      23.226   1.469  52.860  1.00  0.00    -0.034 A 
HETATM   18  O2  UNL     1      23.962  -0.555  53.433  1.00  0.00     0.000 OA
ENDROOT
BRANCH   1  19
HETATM   19  N1  UNL     1      25.532   3.718  51.242  1.00  0.00    -0.366 N 
HETATM   20  H5  UNL     1      25.231   4.698  51.264  1.00  0.00     0.161 HD
BRANCH  19  21
HETATM   21  C2  UNL     1      25.475   3.562  49.816  1.00  0.00     0.139 C 
BRANCH  21  22
HETATM   22  C1  UNL     1      26.478   4.474  49.115  1.00  0.00     0.194 C 
BRANCH  22  23
HETATM   23  O1  UNL     1      27.741   4.414  49.706  1.00  0.00    -0.399 OA
HETATM   24  H1  UNL     1      28.304   3.695  49.310  1.00  0.00     0.209 HD
ENDBRANCH  22  23
ENDBRANCH  21  22
BRANCH  21  25
HETATM   25  C18 UNL     1      24.166   3.572  49.184  1.00  0.00    -0.034 A 
HETATM   26  C19 UNL     1      23.368   2.448  49.136  1.00  0.00     0.009 A 
HETATM   27  C20 UNL     1      22.109   2.471  48.525  1.00  0.00     0.001 A 
HETATM   28  C21 UNL     1      21.625   3.617  47.950  1.00  0.00     0.000 A 
HETATM   29  C22 UNL     1      22.399   4.744  47.985  1.00  0.00     0.001 A 
HETATM   30  C23 UNL     1      23.655   4.727  48.592  1.00  0.00     0.009 A 
ENDBRANCH  21  25
ENDBRANCH  19  21
ENDBRANCH   1  19
TORSDOF 6
ENDMDL
MODEL 2
REMARK VINA RESULT:      -8.2      2.419      5.219
REMARK  6 active torsions:
REMARK  status: ('A' for Active; 'I' for Inactive)
REMARK    1  A    between atoms: O1_1  and  C1_2 
REMARK    2  A    between atoms: C1_2  and  C2_3 
REMARK    3  A    between atoms: C2_3  and  N1_4 
REMARK    4  A    between atoms: C2_3  and  C18_23 
REMARK    5  A    between atoms: N1_4  and  C3_5 
REMARK    6  A    between atoms: C5_9  and  O2_22 
ROOT
HETATM    1  C3  UNL     1      24.229   0.076  53.836  1.00  0.00     0.126 A 
HETATM    2  N2  UNL     1      24.573  -0.823  54.842  1.00  0.00    -0.227 NA
HETATM    3  C4  UNL     1      23.479  -1.425  55.458  1.00  0.00     0.235 A 
HETATM    4  N3  UNL     1      22.158  -1.314  55.280  1.00  0.00    -0.242 NA
HETATM    5  C5  UNL     1      21.705  -0.426  54.287  1.00  0.00     0.087 A 
HETATM    6  C6  UNL     1      22.843   0.279  53.575  1.00  0.00     0.119 A 
HETATM    7  C7  UNL     1      22.764   1.452  52.501  1.00  0.00    -0.026 A 
HETATM    8  C8  UNL     1      23.664   2.199  52.263  1.00  0.00     0.010 C 
HETATM    9  C9  UNL     1      23.925   3.282  51.397  1.00  0.00     0.008 C 
HETATM   10  C10 UNL     1      24.016   2.624  50.235  1.00  0.00    -0.047 C 
HETATM   11  C11 UNL     1      22.799   2.489  49.651  1.00  0.00     0.031 C 
HETATM   12  C12 UNL     1      21.710   1.718  50.174  1.00  0.00     0.007 C 
HETATM   13  C13 UNL     1      20.701   1.025  50.553  1.00  0.00    -0.023 C 
HETATM   14  C14 UNL     1      19.751   0.281  51.312  1.00  0.00     0.063 A 
HETATM   15  C15 UNL     1      19.635  -0.152  52.611  1.00  0.00    -0.022 A 
HETATM   16  C16 UNL     1      20.707   0.421  52.555  1.00  0.00     0.011 A 
HETATM   17  C17 UNL     1      21.638   0.898  52.521  1.00  0.00    -0.034 A 
HETATM   18  O2  UNL     1      20.306  -0.189  53.939  1.00  0.00     0.000 OA
ENDROOT
BRANCH   1  19
HETATM   19  N1  UNL     1      25.201   0.469  52.871  1.00  0.00    -0.366 N 
HETATM   20  H5  UNL     1      25.479   0.642  51.900  1.00  0.00     0.161 HD
BRANCH  19  21
HETATM   21  C2  UNL     1      26.490   0.708  53.456  1.00  0.00     0.139 C 
BRANCH  21  22
HETATM   22  C1  UNL     1      27.045   2.068  53.046  1.00  0.00     0.194 C 
BRANCH  22  23
HETATM   23  O1  UNL     1      27.415   2.837  54.151  1.00  0.00    -0.399 OA
HETATM   24  H1  UNL     1      27.891   3.669  53.883  1.00  0.00     0.209 HD
ENDBRANCH  22  23
ENDBRANCH  21  22
BRANCH  21  25
HETATM   25  C18 UNL     1      27.480  -0.353  53.372  1.00  0.00    -0.034 A 
HETATM   26  C19 UNL     1      27.186  -1.586  52.826  1.00  0.00     0.009 A 
HETATM   27  C20 UNL     1      28.149  -2.600  52.750  1.00  0.00     0.001 A 
HETATM   28  C21 UNL     1      29.422  -2.399  53.217  1.00  0.00     0.000 A 
HETATM   29  C22 UNL     1      29.736  -1.185  53.762  1.00  0.00     0.001 A 
HETATM   30  C23 UNL     1      28.780  -0.171  53.842  1.00  0.00     0.009 A 
ENDBRANCH  21  25
ENDBRANCH  19  21
ENDBRANCH   1  19
TORSDOF 6
ENDMDL
MODEL 3
REMARK VINA RESULT:      -7.9      3.071      5.288
REMARK  6 active torsions:
REMARK  status: ('A' for Active; 'I' for Inactive)
REMARK    1  A    between atoms: O1_1  and  C1_2 
REMARK    2  A    between atoms: C1_2  and  C2_3 
REMARK    3  A    between atoms: C2_3  and  N1_4 
REMARK    4  A    between atoms: C2_3  and  C18_23 
REMARK    5  A    between atoms: N1_4  and  C3_5 
REMARK    6  A    between atoms: C5_9  and  O2_22 
ROOT
HETATM    1  C3  UNL     1      19.739   0.611  51.536  1.00  0.00     0.126 A 
HETATM    2  N2  UNL     1      18.739   0.120  52.372  1.00  0.00    -0.227 NA
HETATM    3  C4  UNL     1      19.220  -0.608  53.458  1.00  0.00     0.235 A 
HETATM    4  N3  UNL     1      20.452  -0.933  53.862  1.00  0.00    -0.242 NA
HETATM    5  C5  UNL     1      21.536  -0.488  53.083  1.00  0.00     0.087 A 
HETATM    6  C6  UNL     1      21.090   0.308  51.871  1.00  0.00     0.119 A 
HETATM    7  C7  UNL     1      21.977   0.863  50.670  1.00  0.00    -0.026 A 
HETATM    8  C8  UNL     1      21.541   1.144  49.595  1.00  0.00     0.010 C 
HETATM    9  C9  UNL     1      22.022   1.659  48.372  1.00  0.00     0.008 C 
HETATM   10  C10 UNL     1      22.249   2.927  48.736  1.00  0.00    -0.047 C 
HETATM   11  C11 UNL     1      23.495   3.073  49.252  1.00  0.00     0.031 C 
HETATM   12  C12 UNL     1      23.960   2.483  50.472  1.00  0.00     0.007 C 
HETATM   13  C13 UNL     1      24.444   2.023  51.566  1.00  0.00    -0.023 C 
HETATM   14  C14 UNL     1      24.697   1.262  52.745  1.00  0.00     0.063 A 
HETATM   15  C15 UNL     1      24.102   0.208  53.397  1.00  0.00    -0.022 A 
HETATM   16  C16 UNL     1      23.389   0.441  52.438  1.00  0.00     0.011 A 
HETATM   17  C17 UNL     1      22.757   0.637  51.627  1.00  0.00    -0.034 A 
HETATM   18  O2  UNL     1      22.946  -0.729  53.377  1.00  0.00     0.000 OA
ENDROOT
BRANCH   1  19
HETATM   19  N1  UNL     1      19.450   1.672  50.630  1.00  0.00    -0.366 N 
HETATM   20  H5  UNL     1      19.397   2.047  49.678  1.00  0.00     0.161 HD
BRANCH  19  21
HETATM   21  C2  UNL     1      19.109   2.893  51.306  1.00  0.00     0.139 C 
BRANCH  21  22
HETATM   22  C1  UNL     1      17.692   3.342  50.963  1.00  0.00     0.194 C 
BRANCH  22  23
HETATM   23  O1  UNL     1      17.052   3.932  52.055  1.00  0.00    -0.399 OA
HETATM   24  H1  UNL     1      17.152   3.389  52.883  1.00  0.00     0.209 HD
ENDBRANCH  22  23
ENDBRANCH  21  22
BRANCH  21  25
HETATM   25  C18 UNL     1      20.071   3.982  51.266  1.00  0.00    -0.034 A 
HETATM   26  C19 UNL     1      19.972   5.011  50.352  1.00  0.00     0.009 A 
HETATM   27  C20 UNL     1      20.904   6.055  50.324  1.00  0.00     0.001 A 
HETATM   28  C21 UNL     1      21.951   6.089  51.207  1.00  0.00     0.000 A 
HETATM   29  C22 UNL     1      22.070   5.079  52.122  1.00  0.00     0.001 A 
HETATM   30  C23 UNL     1      21.144   4.035  52.154  1.00  0.00     0.009 A 
ENDBRANCH  21  25
ENDBRANCH  19  21
ENDBRANCH   1  19
TORSDOF 6
ENDMDL
MODEL 4
REMARK VINA RESULT:      -7.3      3.356      5.983
REMARK  6 active torsions:
REMARK  status: ('A' for Active; 'I' for Inactive)
REMARK    1  A    between atoms: O1_1  and  C1_2 
REMARK    2  A    between atoms: C1_2  and  C2_3 
REMARK    3  A    between atoms: C2_3  and  N1_4 
REMARK    4  A    between atoms: C2_3  and  C18_23 
REMARK    5  A    between atoms: N1_4  and  C3_5 
REMARK    6  A    between atoms: C5_9  and  O2_22 
ROOT
HETATM    1  C3  UNL     1      22.460   6.861  50.329  1.00  0.00     0.126 A 
HETATM    2  N2  UNL     1      21.904   8.019  49.790  1.00  0.00    -0.227 NA
HETATM    3  C4  UNL     1      22.817   8.812  49.099  1.00  0.00     0.235 A 
HETATM    4  N3  UNL     1      24.124   8.688  48.847  1.00  0.00    -0.242 NA
HETATM    5  C5  UNL     1      24.783   7.552  49.353  1.00  0.00     0.087 A 
HETATM    6  C6  UNL     1      23.853   6.640  50.130  1.00  0.00     0.119 A 
HETATM    7  C7  UNL     1      24.219   5.340  50.975  1.00  0.00    -0.026 A 
HETATM    8  C8  UNL     1      23.530   4.895  51.842  1.00  0.00     0.010 C 
HETATM    9  C9  UNL     1      23.543   3.799  52.731  1.00  0.00     0.008 C 
HETATM   10  C10 UNL     1      23.293   2.807  51.868  1.00  0.00    -0.047 C 
HETATM   11  C11 UNL     1      24.441   2.335  51.318  1.00  0.00     0.031 C 
HETATM   12  C12 UNL     1      25.306   3.075  50.448  1.00  0.00     0.007 C 
HETATM   13  C13 UNL     1      26.115   3.653  49.638  1.00  0.00    -0.023 C 
HETATM   14  C14 UNL     1      26.852   4.608  48.880  1.00  0.00     0.063 A 
HETATM   15  C15 UNL     1      26.857   5.975  48.737  1.00  0.00    -0.022 A 
HETATM   16  C16 UNL     1      25.959   5.735  49.522  1.00  0.00     0.011 A 
HETATM   17  C17 UNL     1      25.173   5.545  50.188  1.00  0.00    -0.034 A 
HETATM   18  O2  UNL     1      26.197   7.239  49.163  1.00  0.00     0.000 OA
ENDROOT
BRANCH   1  19
HETATM   19  N1  UNL     1      21.615   5.780  50.714  1.00  0.00    -0.366 N 
HETATM   20  H5  UNL     1      21.269   5.121  51.418  1.00  0.00     0.161 HD
BRANCH  19  21
HETATM   21  C2  UNL     1      20.879   5.238  49.607  1.00  0.00     0.139 C 
BRANCH  21  22
HETATM   22  C1  UNL     1      19.378   5.452  49.776  1.00  0.00     0.194 C 
BRANCH  22  23
HETATM   23  O1  UNL     1      19.007   6.776  49.526  1.00  0.00    -0.399 OA
HETATM   24  H1  UNL     1      19.644   7.423  49.933  1.00  0.00     0.209 HD
ENDBRANCH  22  23
ENDBRANCH  21  22
BRANCH  21  25
HETATM   25  C18 UNL     1      21.209   3.892  49.167  1.00  0.00    -0.034 A 
HETATM   26  C19 UNL     1      20.481   2.791  49.571  1.00  0.00     0.009 A 
HETATM   27  C20 UNL     1      20.810   1.501  49.140  1.00  0.00     0.001 A 
HETATM   28  C21 UNL     1      21.870   1.286  48.299  1.00  0.00     0.000 A 
HETATM   29  C22 UNL     1      22.606   2.362  47.885  1.00  0.00     0.001 A 
HETATM   30  C23 UNL     1      22.285   3.651  48.312  1.00  0.00     0.009 A 
ENDBRANCH  21  25
ENDBRANCH  19  21
ENDBRANCH   1  19
TORSDOF 6
ENDMDL
MODEL 5
REMARK VINA RESULT:      -7.3      2.342      4.432
REMARK  6 active torsions:
REMARK  status: ('A' for Active; 'I' for Inactive)
REMARK    1  A    between atoms: O1_1  and  C1_2 
REMARK    2  A    between atoms: C1_2  and  C2_3 
REMARK    3  A    between atoms: C2_3  and  N1_4 
REMARK    4  A    between atoms: C2_3  and  C18_23 
REMARK    5  A    between atoms: N1_4  and  C3_5 
REMARK    6  A    between atoms: C5_9  and  O2_22 
ROOT
HETATM    1  C3  UNL     1      22.816   1.940  52.124  1.00  0.00     0.126 A 
HETATM    2  N2  UNL     1      21.506   2.390  51.980  1.00  0.00    -0.227 NA
HETATM    3  C4  UNL     1      20.569   1.626  52.670  1.00  0.00     0.235 A 
HETATM    4  N3  UNL     1      20.671   0.542  53.447  1.00  0.00    -0.242 NA
HETATM    5  C5  UNL     1      21.955   0.004  53.654  1.00  0.00     0.087 A 
HETATM    6  C6  UNL     1      23.033   0.780  52.922  1.00  0.00     0.119 A 
HETATM    7  C7  UNL     1      24.580   0.427  52.777  1.00  0.00    -0.026 A 
HETATM    8  C8  UNL     1      25.280   0.853  51.909  1.00  0.00     0.010 C 
HETATM    9  C9  UNL     1      26.634   0.765  51.518  1.00  0.00     0.008 C 
HETATM   10  C10 UNL     1      27.195   1.498  52.486  1.00  0.00    -0.047 C 
HETATM   11  C11 UNL     1      27.490   0.736  53.570  1.00  0.00     0.031 C 
HETATM   12  C12 UNL     1      26.530   0.089  54.413  1.00  0.00     0.007 C 
HETATM   13  C13 UNL     1      25.737  -0.494  55.235  1.00  0.00    -0.023 C 
HETATM   14  C14 UNL     1      24.613  -1.108  55.859  1.00  0.00     0.063 A 
HETATM   15  C15 UNL     1      23.301  -1.351  55.530  1.00  0.00    -0.022 A 
HETATM   16  C16 UNL     1      23.768  -0.749  54.580  1.00  0.00     0.011 A 
HETATM   17  C17 UNL     1      24.149  -0.219  53.762  1.00  0.00    -0.034 A 
HETATM   18  O2  UNL     1      22.261  -1.159  54.482  1.00  0.00     0.000 OA
ENDROOT
BRANCH   1  19
HETATM   19  N1  UNL     1      23.904   2.808  51.818  1.00  0.00    -0.366 N 
HETATM   20  H5  UNL     1      24.794   3.251  52.068  1.00  0.00     0.161 HD
BRANCH  19  21
HETATM   21  C2  UNL     1      23.719   3.501  50.574  1.00  0.00     0.139 C 
BRANCH  21  22
HETATM   22  C1  UNL     1      23.027   2.616  49.541  1.00  0.00     0.194 C 
BRANCH  22  23
HETATM   23  O1  UNL     1      21.898   3.233  48.997  1.00  0.00    -0.399 OA
HETATM   24  H1  UNL     1      21.812   4.179  49.293  1.00  0.00     0.209 HD
ENDBRANCH  22  23
ENDBRANCH  21  22
BRANCH  21  25
HETATM   25  C18 UNL     1      24.854   4.224  50.026  1.00  0.00    -0.034 A 
HETATM   26  C19 UNL     1      25.979   3.575  49.557  1.00  0.00     0.009 A 
HETATM   27  C20 UNL     1      27.065   4.284  49.031  1.00  0.00     0.001 A 
HETATM   28  C21 UNL     1      27.048   5.653  48.964  1.00  0.00     0.000 A 
HETATM   29  C22 UNL     1      25.944   6.318  49.422  1.00  0.00     0.001 A 
HETATM   30  C23 UNL     1      24.858   5.617  49.949  1.00  0.00     0.009 A 
ENDBRANCH  21  25
ENDBRANCH  19  21
ENDBRANCH   1  19
TORSDOF 6
ENDMDL
MODEL 6
REMARK VINA RESULT:      -7.3      3.362      6.090
REMARK  6 active torsions:
REMARK  status: ('A' for Active; 'I' for Inactive)
REMARK    1  A    between atoms: O1_1  and  C1_2 
REMARK    2  A    between atoms: C1_2  and  C2_3 
REMARK    3  A    between atoms: C2_3  and  N1_4 
REMARK    4  A    between atoms: C2_3  and  C18_23 
REMARK    5  A    between atoms: N1_4  and  C3_5 
REMARK    6  A    between atoms: C5_9  and  O2_22 
ROOT
HETATM    1  C3  UNL     1      21.319   1.419  50.812  1.00  0.00     0.126 A 
HETATM    2  N2  UNL     1      21.111   1.973  49.552  1.00  0.00    -0.227 NA
HETATM    3  C4  UNL     1      22.240   2.584  49.012  1.00  0.00     0.235 A 
HETATM    4  N3  UNL     1      23.489   2.748  49.461  1.00  0.00    -0.242 NA
HETATM    5  C5  UNL     1      23.802   2.228  50.730  1.00  0.00     0.087 A 
HETATM    6  C6  UNL     1      22.614   1.553  51.389  1.00  0.00     0.119 A 
HETATM    7  C7  UNL     1      22.503   0.967  52.866  1.00  0.00    -0.026 A 
HETATM    8  C8  UNL     1      21.469   0.794  53.437  1.00  0.00     0.010 C 
HETATM    9  C9  UNL     1      21.031   0.295  54.682  1.00  0.00     0.008 C 
HETATM   10  C10 UNL     1      21.279  -1.008  54.502  1.00  0.00    -0.047 C 
HETATM   11  C11 UNL     1      22.551  -1.319  54.859  1.00  0.00     0.031 C 
HETATM   12  C12 UNL     1      23.734  -0.850  54.200  1.00  0.00     0.007 C 
HETATM   13  C13 UNL     1      24.838  -0.504  53.648  1.00  0.00    -0.023 C 
HETATM   14  C14 UNL     1      25.851   0.159  52.896  1.00  0.00     0.063 A 
HETATM   15  C15 UNL     1      25.913   1.237  52.045  1.00  0.00    -0.022 A 
HETATM   16  C16 UNL     1      24.741   1.136  52.354  1.00  0.00     0.011 A 
HETATM   17  C17 UNL     1      23.725   1.054  52.599  1.00  0.00    -0.034 A 
HETATM   18  O2  UNL     1      25.112   2.296  51.373  1.00  0.00     0.000 OA
ENDROOT
BRANCH   1  19
HETATM   19  N1  UNL     1      20.410   0.446  51.320  1.00  0.00    -0.366 N 
HETATM   20  H5  UNL     1      20.222  -0.465  51.750  1.00  0.00     0.161 HD
BRANCH  19  21
HETATM   21  C2  UNL     1      19.038   0.817  51.116  1.00  0.00     0.139 C 
BRANCH  21  22
HETATM   22  C1  UNL     1      18.766   2.236  51.606  1.00  0.00     0.194 C 
BRANCH  22  23
HETATM   23  O1  UNL     1      18.303   3.064  50.581  1.00  0.00    -0.399 OA
HETATM   24  H1  UNL     1      19.034   3.614  50.188  1.00  0.00     0.209 HD
ENDBRANCH  22  23
ENDBRANCH  21  22
BRANCH  21  25
HETATM   25  C18 UNL     1      18.012  -0.127  51.526  1.00  0.00    -0.034 A 
HETATM   26  C19 UNL     1      18.157  -0.926  52.642  1.00  0.00     0.009 A 
HETATM   27  C20 UNL     1      17.161  -1.831  53.026  1.00  0.00     0.001 A 
HETATM   28  C21 UNL     1      16.002  -1.953  52.304  1.00  0.00     0.000 A 
HETATM   29  C22 UNL     1      15.836  -1.171  51.195  1.00  0.00     0.001 A 
HETATM   30  C23 UNL     1      16.826  -0.268  50.805  1.00  0.00     0.009 A 
ENDBRANCH  21  25
ENDBRANCH  19  21
ENDBRANCH   1  19
TORSDOF 6
ENDMDL
MODEL 7
REMARK VINA RESULT:      -7.2      2.105      4.044
REMARK  6 active torsions:
REMARK  status: ('A' for Active; 'I' for Inactive)
REMARK    1  A    between atoms: O1_1  and  C1_2 
REMARK    2  A    between atoms: C1_2  and  C2_3 
REMARK    3  A    between atoms: C2_3  and  N1_4 
REMARK    4  A    between atoms: C2_3  and  C18_23 
REMARK    5  A    between atoms: N1_4  and  C3_5 
REMARK    6  A    between atoms: C5_9  and  O2_22 
ROOT
HETATM    1  C3  UNL     1      23.390   1.712  51.378  1.00  0.00     0.126 A 
HETATM    2  N2  UNL     1      22.291   2.272  50.731  1.00  0.00    -0.227 NA
HETATM    3  C4  UNL     1      21.086   1.635  51.015  1.00  0.00     0.235 A 
HETATM    4  N3  UNL     1      20.767   0.590  51.786  1.00  0.00    -0.242 NA
HETATM    5  C5  UNL     1      21.809  -0.052  52.482  1.00  0.00     0.087 A 
HETATM    6  C6  UNL     1      23.161   0.582  52.214  1.00  0.00     0.119 A 
HETATM    7  C7  UNL     1      24.598   0.082  52.684  1.00  0.00    -0.026 A 
HETATM    8  C8  UNL     1      25.619   0.394  52.150  1.00  0.00     0.010 C 
HETATM    9  C9  UNL     1      27.001   0.162  52.315  1.00  0.00     0.008 C 
HETATM   10  C10 UNL     1      27.222   0.892  53.415  1.00  0.00    -0.047 C 
HETATM   11  C11 UNL     1      26.996   0.166  54.539  1.00  0.00     0.031 C 
HETATM   12  C12 UNL     1      25.723  -0.345  54.953  1.00  0.00     0.007 C 
HETATM   13  C13 UNL     1      24.620  -0.807  55.412  1.00  0.00    -0.023 C 
HETATM   14  C14 UNL     1      23.284  -1.282  55.561  1.00  0.00     0.063 A 
HETATM   15  C15 UNL     1      22.181  -1.421  54.752  1.00  0.00    -0.022 A 
HETATM   16  C16 UNL     1      23.037  -0.916  54.049  1.00  0.00     0.011 A 
HETATM   17  C17 UNL     1      23.757  -0.468  53.435  1.00  0.00    -0.034 A 
HETATM   18  O2  UNL     1      21.650  -1.192  53.381  1.00  0.00     0.000 OA
ENDROOT
BRANCH   1  19
HETATM   19  N1  UNL     1      24.597   2.459  51.505  1.00  0.00    -0.366 N 
HETATM   20  H5  UNL     1      25.382   2.803  52.067  1.00  0.00     0.161 HD
BRANCH  19  21
HETATM   21  C2  UNL     1      24.929   3.172  50.304  1.00  0.00     0.139 C 
BRANCH  21  22
HETATM   22  C1  UNL     1      26.406   3.015  49.954  1.00  0.00     0.194 C 
BRANCH  22  23
HETATM   23  O1  UNL     1      27.238   3.437  50.993  1.00  0.00    -0.399 OA
HETATM   24  H1  UNL     1      27.592   2.670  51.520  1.00  0.00     0.209 HD
ENDBRANCH  22  23
ENDBRANCH  21  22
BRANCH  21  25
HETATM   25  C18 UNL     1      24.463   4.543  50.179  1.00  0.00    -0.034 A 
HETATM   26  C19 UNL     1      24.189   5.326  51.281  1.00  0.00     0.009 A 
HETATM   27  C20 UNL     1      23.740   6.646  51.147  1.00  0.00     0.001 A 
HETATM   28  C21 UNL     1      23.559   7.206  49.910  1.00  0.00     0.000 A 
HETATM   29  C22 UNL     1      23.825   6.449  48.802  1.00  0.00     0.001 A 
HETATM   30  C23 UNL     1      24.270   5.133  48.929  1.00  0.00     0.009 A 
ENDBRANCH  21  25
ENDBRANCH  19  21
ENDBRANCH   1  19
TORSDOF 6
ENDMDL
MODEL 8
REMARK VINA RESULT:      -7.2      2.297      5.340
REMARK  6 active torsions:
REMARK  status: ('A' for Active; 'I' for Inactive)
REMARK    1  A    between atoms: O1_1  and  C1_2 
REMARK    2  A    between atoms: C1_2  and  C2_3 
REMARK    3  A    between atoms: C2_3  and  N1_4 
REMARK    4  A    between atoms: C2_3  and  C18_23 
REMARK    5  A    between atoms: N1_4  and  C3_5 
REMARK    6  A    between atoms: C5_9  and  O2_22 
ROOT
HETATM    1  C3  UNL     1      24.594   4.781  49.573  1.00  0.00     0.126 A 
HETATM    2  N2  UNL     1      25.601   5.632  50.021  1.00  0.00    -0.227 NA
HETATM    3  C4  UNL     1      25.204   6.962  50.139  1.00  0.00     0.235 A 
HETATM    4  N3  UNL     1      24.047   7.590  49.909  1.00  0.00    -0.242 NA
HETATM    5  C5  UNL     1      22.964   6.820  49.449  1.00  0.00     0.087 A 
HETATM    6  C6  UNL     1      23.322   5.355  49.284  1.00  0.00     0.119 A 
HETATM    7  C7  UNL     1      22.441   4.185  48.660  1.00  0.00    -0.026 A 
HETATM    8  C8  UNL     1      22.895   3.169  48.225  1.00  0.00     0.010 C 
HETATM    9  C9  UNL     1      22.420   1.972  47.649  1.00  0.00     0.008 C 
HETATM   10  C10 UNL     1      21.881   1.400  48.732  1.00  0.00    -0.047 C 
HETATM   11  C11 UNL     1      20.593   1.793  48.904  1.00  0.00     0.031 C 
HETATM   12  C12 UNL     1      20.169   3.125  49.214  1.00  0.00     0.007 C 
HETATM   13  C13 UNL     1      19.707   4.280  49.524  1.00  0.00    -0.023 C 
HETATM   14  C14 UNL     1      19.530   5.679  49.734  1.00  0.00     0.063 A 
HETATM   15  C15 UNL     1      20.289   6.814  49.572  1.00  0.00    -0.022 A 
HETATM   16  C16 UNL     1      21.012   5.891  49.245  1.00  0.00     0.011 A 
HETATM   17  C17 UNL     1      21.652   5.107  48.975  1.00  0.00    -0.034 A 
HETATM   18  O2  UNL     1      21.625   7.328  49.163  1.00  0.00     0.000 OA
ENDROOT
BRANCH   1  19
HETATM   19  N1  UNL     1      24.713   3.375  49.767  1.00  0.00    -0.366 N 
HETATM   20  H5  UNL     1      24.732   2.418  49.399  1.00  0.00     0.161 HD
BRANCH  19  21
HETATM   21  C2  UNL     1      24.792   3.017  51.155  1.00  0.00     0.139 C 
BRANCH  21  22
HETATM   22  C1  UNL     1      26.119   2.339  51.482  1.00  0.00     0.194 C 
BRANCH  22  23
HETATM   23  O1  UNL     1      27.209   3.179  51.240  1.00  0.00    -0.399 OA
HETATM   24  H1  UNL     1      26.922   4.082  50.937  1.00  0.00     0.209 HD
ENDBRANCH  22  23
ENDBRANCH  21  22
BRANCH  21  25
HETATM   25  C18 UNL     1      23.652   2.336  51.746  1.00  0.00    -0.034 A 
HETATM   26  C19 UNL     1      23.670   0.984  52.023  1.00  0.00     0.009 A 
HETATM   27  C20 UNL     1      22.565   0.340  52.593  1.00  0.00     0.001 A 
HETATM   28  C21 UNL     1      21.423   1.035  52.897  1.00  0.00     0.000 A 
HETATM   29  C22 UNL     1      21.382   2.376  52.632  1.00  0.00     0.001 A 
HETATM   30  C23 UNL     1      22.480   3.024  52.063  1.00  0.00     0.009 A 
ENDBRANCH  21  25
ENDBRANCH  19  21
ENDBRANCH   1  19
TORSDOF 6
ENDMDL
MODEL 9
REMARK VINA RESULT:      -6.9      2.129      3.973
REMARK  6 active torsions:
REMARK  status: ('A' for Active; 'I' for Inactive)
REMARK    1  A    between atoms: O1_1  and  C1_2 
REMARK    2  A    between atoms: C1_2  and  C2_3 
REMARK    3  A    between atoms: C2_3  and  N1_4 
REMARK    4  A    between atoms: C2_3  and  C18_23 
REMARK    5  A    between atoms: N1_4  and  C3_5 
REMARK    6  A    between atoms: C5_9  and  O2_22 
ROOT
HETATM    1  C3  UNL     1      22.672   2.701  52.219  1.00  0.00     0.126 A 
HETATM    2  N2  UNL     1      21.456   3.371  52.112  1.00  0.00    -0.227 NA
HETATM    3  C4  UNL     1      20.365   2.634  52.567  1.00  0.00     0.235 A 
HETATM    4  N3  UNL     1      20.248   1.409  53.089  1.00  0.00    -0.242 NA
HETATM    5  C5  UNL     1      21.420   0.645  53.236  1.00  0.00     0.087 A 
HETATM    6  C6  UNL     1      22.655   1.379  52.750  1.00  0.00     0.119 A 
HETATM    7  C7  UNL     1      24.143   0.828  52.609  1.00  0.00    -0.026 A 
HETATM    8  C8  UNL     1      24.967   1.313  51.893  1.00  0.00     0.010 C 
HETATM    9  C9  UNL     1      26.322   1.099  51.562  1.00  0.00     0.008 C 
HETATM   10  C10 UNL     1      26.899   1.515  52.696  1.00  0.00    -0.047 C 
HETATM   11  C11 UNL     1      26.992   0.505  53.598  1.00  0.00     0.031 C 
HETATM   12  C12 UNL     1      25.882  -0.149  54.226  1.00  0.00     0.007 C 
HETATM   13  C13 UNL     1      24.949  -0.760  54.857  1.00  0.00    -0.023 C 
HETATM   14  C14 UNL     1      23.701  -1.310  55.272  1.00  0.00     0.063 A 
HETATM   15  C15 UNL     1      22.400  -1.269  54.831  1.00  0.00    -0.022 A 
HETATM   16  C16 UNL     1      23.025  -0.561  54.064  1.00  0.00     0.011 A 
HETATM   17  C17 UNL     1      23.544   0.064  53.403  1.00  0.00    -0.034 A 
HETATM   18  O2  UNL     1      21.489  -0.700  53.801  1.00  0.00     0.000 OA
ENDROOT
BRANCH   1  19
HETATM   19  N1  UNL     1      23.893   3.433  52.168  1.00  0.00    -0.366 N 
HETATM   20  H5  UNL     1      24.823   3.650  52.540  1.00  0.00     0.161 HD
BRANCH  19  21
HETATM   21  C2  UNL     1      23.887   4.440  51.145  1.00  0.00     0.139 C 
BRANCH  21  22
HETATM   22  C1  UNL     1      23.419   5.786  51.691  1.00  0.00     0.194 C 
BRANCH  22  23
HETATM   23  O1  UNL     1      24.471   6.522  52.241  1.00  0.00    -0.399 OA
HETATM   24  H1  UNL     1      24.547   6.385  53.224  1.00  0.00     0.209 HD
ENDBRANCH  22  23
ENDBRANCH  21  22
BRANCH  21  25
HETATM   25  C18 UNL     1      23.276   4.107  49.869  1.00  0.00    -0.034 A 
HETATM   26  C19 UNL     1      22.433   4.980  49.212  1.00  0.00     0.009 A 
HETATM   27  C20 UNL     1      21.852   4.648  47.983  1.00  0.00     0.001 A 
HETATM   28  C21 UNL     1      22.101   3.438  47.389  1.00  0.00     0.000 A 
HETATM   29  C22 UNL     1      22.933   2.557  48.022  1.00  0.00     0.001 A 
HETATM   30  C23 UNL     1      23.516   2.882  49.248  1.00  0.00     0.009 A 
ENDBRANCH  21  25
ENDBRANCH  19  21
ENDBRANCH   1  19
TORSDOF 6
ENDMDL
