MODEL 1
REMARK VINA RESULT:      -6.8      0.000      0.000
REMARK  5 active torsions:
REMARK  status: ('A' for Active; 'I' for Inactive)
REMARK    1  A    between atoms: O1_2  and  C2_3 
REMARK    2  A    between atoms: C2_3  and  C3_4 
REMARK    3  A    between atoms: C4_5  and  O2_6 
REMARK    4  A    between atoms: C7_9  and  N1_10 
REMARK    5  A    between atoms: C11_14  and  O3_15 
ROOT
HETATM    1  N1  UNL     1      23.610   2.110  52.135  1.00  0.00    -0.312 N 
HETATM    2  C8  UNL     1      23.547   3.314  51.327  1.00  0.00     0.182 C 
HETATM    3  C9  UNL     1      22.846   2.986  50.038  1.00  0.00    -0.029 A 
HETATM    4  C10 UNL     1      22.879   3.798  48.934  1.00  0.00     0.046 A 
HETATM    5  C11 UNL     1      22.201   3.409  47.797  1.00  0.00     0.068 A 
HETATM    6  C13 UNL     1      21.495   2.215  47.767  1.00  0.00     0.037 A 
HETATM    7  C14 UNL     1      21.467   1.397  48.895  1.00  0.00     0.012 A 
HETATM    8  C15 UNL     1      22.154   1.793  50.046  1.00  0.00    -0.035 A 
HETATM    9  C16 UNL     1      22.024   0.819  51.144  1.00  0.00     0.149 C 
HETATM   10  N2  UNL     1      22.372   1.507  52.386  1.00  0.00    -0.234 NA
HETATM   11  H20 UNL     1      22.441   0.839  53.159  1.00  0.00     0.147 HD
ENDROOT
BRANCH   1  12
HETATM   12  C7  UNL     1      24.843   1.596  52.624  1.00  0.00     0.030 A 
HETATM   13  C6  UNL     1      25.671   2.272  53.403  1.00  0.00     0.063 A 
HETATM   14  C4  UNL     1      26.822   1.389  53.681  1.00  0.00     0.074 A 
HETATM   15  C3  UNL     1      26.655   0.228  53.071  1.00  0.00    -0.018 A 
HETATM   16  C17 UNL     1      25.351   0.243  52.321  1.00  0.00     0.097 A 
BRANCH  14  17
HETATM   17  O2  UNL     1      27.897   1.791  54.483  1.00  0.00    -0.356 OA
HETATM   18  C5  UNL     1      29.041   2.412  53.885  1.00  0.00     0.210 C 
ENDBRANCH  14  17
BRANCH  15  19
HETATM   19  C2  UNL     1      27.476  -1.006  53.003  1.00  0.00     0.204 C 
BRANCH  19  20
HETATM   20  O1  UNL     1      28.334  -1.114  54.097  1.00  0.00    -0.392 OA
HETATM   21  C1  UNL     1      29.647  -1.200  53.588  1.00  0.00     0.201 C 
ENDBRANCH  19  20
ENDBRANCH  15  19
ENDBRANCH   1  12
BRANCH   5  22
HETATM   22  O3  UNL     1      22.220   4.202  46.682  1.00  0.00    -0.356 OA
HETATM   23  C12 UNL     1      21.741   3.815  45.412  1.00  0.00     0.210 C 
ENDBRANCH   5  22
TORSDOF 5
ENDMDL
MODEL 2
REMARK VINA RESULT:      -6.8      4.562      7.227
REMARK  5 active torsions:
REMARK  status: ('A' for Active; 'I' for Inactive)
REMARK    1  A    between atoms: O1_2  and  C2_3 
REMARK    2  A    between atoms: C2_3  and  C3_4 
REMARK    3  A    between atoms: C4_5  and  O2_6 
REMARK    4  A    between atoms: C7_9  and  N1_10 
REMARK    5  A    between atoms: C11_14  and  O3_15 
ROOT
HETATM    1  N1  UNL     1      25.833   3.959  49.561  1.00  0.00    -0.312 N 
HETATM    2  C8  UNL     1      26.479   2.683  49.806  1.00  0.00     0.182 C 
HETATM    3  C9  UNL     1      26.149   2.243  51.206  1.00  0.00    -0.029 A 
HETATM    4  C10 UNL     1      26.825   1.249  51.864  1.00  0.00     0.046 A 
HETATM    5  C11 UNL     1      26.446   0.918  53.148  1.00  0.00     0.068 A 
HETATM    6  C13 UNL     1      25.395   1.578  53.769  1.00  0.00     0.037 A 
HETATM    7  C14 UNL     1      24.714   2.587  53.092  1.00  0.00     0.012 A 
HETATM    8  C15 UNL     1      25.100   2.921  51.790  1.00  0.00    -0.035 A 
HETATM    9  C16 UNL     1      24.279   4.004  51.220  1.00  0.00     0.149 C 
HETATM   10  N2  UNL     1      24.449   3.965  49.767  1.00  0.00    -0.234 NA
HETATM   11  H20 UNL     1      24.019   4.787  49.334  1.00  0.00     0.147 HD
ENDROOT
BRANCH   1  12
HETATM   12  C7  UNL     1      26.567   5.104  49.146  1.00  0.00     0.030 A 
HETATM   13  C6  UNL     1      26.128   6.347  49.257  1.00  0.00     0.063 A 
HETATM   14  C4  UNL     1      27.181   7.229  48.714  1.00  0.00     0.074 A 
HETATM   15  C3  UNL     1      28.204   6.503  48.297  1.00  0.00    -0.018 A 
HETATM   16  C17 UNL     1      27.911   5.047  48.535  1.00  0.00     0.097 A 
BRANCH  14  17
HETATM   17  O2  UNL     1      27.045   8.622  48.677  1.00  0.00    -0.356 OA
HETATM   18  C5  UNL     1      27.545   9.417  49.759  1.00  0.00     0.210 C 
ENDBRANCH  14  17
BRANCH  15  19
HETATM   19  C2  UNL     1      29.506   6.852  47.678  1.00  0.00     0.204 C 
BRANCH  19  20
HETATM   20  O1  UNL     1      30.351   7.493  48.583  1.00  0.00    -0.392 OA
HETATM   21  C1  UNL     1      31.354   6.567  48.942  1.00  0.00     0.201 C 
ENDBRANCH  19  20
ENDBRANCH  15  19
ENDBRANCH   1  12
BRANCH   5  22
HETATM   22  O3  UNL     1      27.106  -0.071  53.825  1.00  0.00    -0.356 OA
HETATM   23  C12 UNL     1      28.247   0.131  54.632  1.00  0.00     0.210 C 
ENDBRANCH   5  22
TORSDOF 5
ENDMDL
MODEL 3
REMARK VINA RESULT:      -6.7      3.650      7.972
REMARK  5 active torsions:
REMARK  status: ('A' for Active; 'I' for Inactive)
REMARK    1  A    between atoms: O1_2  and  C2_3 
REMARK    2  A    between atoms: C2_3  and  C3_4 
REMARK    3  A    between atoms: C4_5  and  O2_6 
REMARK    4  A    between atoms: C7_9  and  N1_10 
REMARK    5  A    between atoms: C11_14  and  O3_15 
ROOT
HETATM    1  N1  UNL     1      22.170   1.102  53.107  1.00  0.00    -0.312 N 
HETATM    2  C8  UNL     1      23.042   0.330  53.973  1.00  0.00     0.182 C 
HETATM    3  C9  UNL     1      24.383   0.202  53.306  1.00  0.00    -0.029 A 
HETATM    4  C10 UNL     1      25.337  -0.702  53.695  1.00  0.00     0.046 A 
HETATM    5  C11 UNL     1      26.539  -0.741  53.018  1.00  0.00     0.068 A 
HETATM    6  C13 UNL     1      26.784   0.121  51.959  1.00  0.00     0.037 A 
HETATM    7  C14 UNL     1      25.808   1.037  51.572  1.00  0.00     0.012 A 
HETATM    8  C15 UNL     1      24.591   1.075  52.259  1.00  0.00    -0.035 A 
HETATM    9  C16 UNL     1      23.674   2.097  51.724  1.00  0.00     0.149 C 
HETATM   10  N2  UNL     1      22.665   2.361  52.749  1.00  0.00    -0.234 NA
HETATM   11  H20 UNL     1      21.919   2.953  52.373  1.00  0.00     0.147 HD
ENDROOT
BRANCH   1  12
HETATM   12  C7  UNL     1      20.914   0.601  52.666  1.00  0.00     0.030 A 
HETATM   13  C6  UNL     1      20.387   0.859  51.481  1.00  0.00     0.063 A 
HETATM   14  C4  UNL     1      19.089   0.157  51.421  1.00  0.00     0.074 A 
HETATM   15  C3  UNL     1      18.876  -0.490  52.554  1.00  0.00    -0.018 A 
HETATM   16  C17 UNL     1      20.040  -0.268  53.481  1.00  0.00     0.097 A 
BRANCH  14  17
HETATM   17  O2  UNL     1      18.258   0.214  50.296  1.00  0.00    -0.356 OA
HETATM   18  C5  UNL     1      17.396   1.341  50.102  1.00  0.00     0.210 C 
ENDBRANCH  14  17
BRANCH  15  19
HETATM   19  C2  UNL     1      17.762  -1.342  53.038  1.00  0.00     0.204 C 
BRANCH  19  20
HETATM   20  O1  UNL     1      16.579  -0.615  53.172  1.00  0.00    -0.392 OA
HETATM   21  C1  UNL     1      15.630  -1.205  52.311  1.00  0.00     0.201 C 
ENDBRANCH  19  20
ENDBRANCH  15  19
ENDBRANCH   1  12
BRANCH   5  22
HETATM   22  O3  UNL     1      27.506  -1.636  53.389  1.00  0.00    -0.356 OA
HETATM   23  C12 UNL     1      28.893  -1.377  53.361  1.00  0.00     0.210 C 
ENDBRANCH   5  22
TORSDOF 5
ENDMDL
MODEL 4
REMARK VINA RESULT:      -6.7      3.441      7.060
REMARK  5 active torsions:
REMARK  status: ('A' for Active; 'I' for Inactive)
REMARK    1  A    between atoms: O1_2  and  C2_3 
REMARK    2  A    between atoms: C2_3  and  C3_4 
REMARK    3  A    between atoms: C4_5  and  O2_6 
REMARK    4  A    between atoms: C7_9  and  N1_10 
REMARK    5  A    between atoms: C11_14  and  O3_15 
ROOT
HETATM    1  N1  UNL     1      25.160   2.806  50.955  1.00  0.00    -0.312 N 
HETATM    2  C8  UNL     1      25.821   1.523  50.806  1.00  0.00     0.182 C 
HETATM    3  C9  UNL     1      26.230   1.037  52.169  1.00  0.00    -0.029 A 
HETATM    4  C10 UNL     1      27.129   0.023  52.370  1.00  0.00     0.046 A 
HETATM    5  C11 UNL     1      27.439  -0.352  53.661  1.00  0.00     0.068 A 
HETATM    6  C13 UNL     1      26.851   0.286  54.744  1.00  0.00     0.037 A 
HETATM    7  C14 UNL     1      25.938   1.316  54.529  1.00  0.00     0.012 A 
HETATM    8  C15 UNL     1      25.625   1.694  53.219  1.00  0.00    -0.035 A 
HETATM    9  C16 UNL     1      24.647   2.794  53.169  1.00  0.00     0.149 C 
HETATM   10  N2  UNL     1      24.065   2.803  51.827  1.00  0.00    -0.234 NA
HETATM   11  H20 UNL     1      23.489   3.639  51.691  1.00  0.00     0.147 HD
ENDROOT
BRANCH   1  12
HETATM   12  C7  UNL     1      25.604   3.965  50.261  1.00  0.00     0.030 A 
HETATM   13  C6  UNL     1      24.922   5.097  50.194  1.00  0.00     0.063 A 
HETATM   14  C4  UNL     1      25.725   6.039  49.388  1.00  0.00     0.074 A 
HETATM   15  C3  UNL     1      26.846   5.457  49.000  1.00  0.00    -0.018 A 
HETATM   16  C17 UNL     1      26.884   4.049  49.527  1.00  0.00     0.097 A 
BRANCH  14  17
HETATM   17  O2  UNL     1      25.296   7.343  49.116  1.00  0.00    -0.356 OA
HETATM   18  C5  UNL     1      25.631   8.408  50.014  1.00  0.00     0.210 C 
ENDBRANCH  14  17
BRANCH  15  19
HETATM   19  C2  UNL     1      27.998   5.921  48.189  1.00  0.00     0.204 C 
BRANCH  19  20
HETATM   20  O1  UNL     1      29.057   5.015  48.233  1.00  0.00    -0.392 OA
HETATM   21  C1  UNL     1      30.240   5.747  47.995  1.00  0.00     0.201 C 
ENDBRANCH  19  20
ENDBRANCH  15  19
ENDBRANCH   1  12
BRANCH   5  22
HETATM   22  O3  UNL     1      28.334  -1.362  53.887  1.00  0.00    -0.356 OA
HETATM   23  C12 UNL     1      29.698  -1.323  53.524  1.00  0.00     0.210 C 
ENDBRANCH   5  22
TORSDOF 5
ENDMDL
MODEL 5
REMARK VINA RESULT:      -6.7      1.974      2.099
REMARK  5 active torsions:
REMARK  status: ('A' for Active; 'I' for Inactive)
REMARK    1  A    between atoms: O1_2  and  C2_3 
REMARK    2  A    between atoms: C2_3  and  C3_4 
REMARK    3  A    between atoms: C4_5  and  O2_6 
REMARK    4  A    between atoms: C7_9  and  N1_10 
REMARK    5  A    between atoms: C11_14  and  O3_15 
ROOT
HETATM    1  N1  UNL     1      23.124   1.370  53.032  1.00  0.00    -0.312 N 
HETATM    2  C8  UNL     1      22.521   2.573  52.488  1.00  0.00     0.182 C 
HETATM    3  C9  UNL     1      21.427   2.170  51.540  1.00  0.00    -0.029 A 
HETATM    4  C10 UNL     1      20.859   3.028  50.634  1.00  0.00     0.046 A 
HETATM    5  C11 UNL     1      19.858   2.562  49.806  1.00  0.00     0.068 A 
HETATM    6  C13 UNL     1      19.430   1.245  49.885  1.00  0.00     0.037 A 
HETATM    7  C14 UNL     1      20.013   0.380  50.810  1.00  0.00     0.012 A 
HETATM    8  C15 UNL     1      21.026   0.855  51.648  1.00  0.00    -0.035 A 
HETATM    9  C16 UNL     1      21.533  -0.183  52.563  1.00  0.00     0.149 C 
HETATM   10  N2  UNL     1      22.227   0.496  53.656  1.00  0.00    -0.234 NA
HETATM   11  H20 UNL     1      22.725  -0.182  54.240  1.00  0.00     0.147 HD
ENDROOT
BRANCH   1  12
HETATM   12  C7  UNL     1      24.519   1.116  52.929  1.00  0.00     0.030 A 
HETATM   13  C6  UNL     1      25.432   2.054  52.737  1.00  0.00     0.063 A 
HETATM   14  C4  UNL     1      26.745   1.379  52.689  1.00  0.00     0.074 A 
HETATM   15  C3  UNL     1      26.585   0.076  52.848  1.00  0.00    -0.018 A 
HETATM   16  C17 UNL     1      25.123  -0.229  53.021  1.00  0.00     0.097 A 
BRANCH  14  17
HETATM   17  O2  UNL     1      27.941   2.080  52.498  1.00  0.00    -0.356 OA
HETATM   18  C5  UNL     1      28.722   2.481  53.629  1.00  0.00     0.210 C 
ENDBRANCH  14  17
BRANCH  15  19
HETATM   19  C2  UNL     1      27.536  -1.062  52.885  1.00  0.00     0.204 C 
BRANCH  19  20
HETATM   20  O1  UNL     1      28.346  -1.019  54.019  1.00  0.00    -0.392 OA
HETATM   21  C1  UNL     1      29.682  -1.144  53.581  1.00  0.00     0.201 C 
ENDBRANCH  19  20
ENDBRANCH  15  19
ENDBRANCH   1  12
BRANCH   5  22
HETATM   22  O3  UNL     1      19.277   3.400  48.893  1.00  0.00    -0.356 OA
HETATM   23  C12 UNL     1      19.112   4.790  49.070  1.00  0.00     0.210 C 
ENDBRANCH   5  22
TORSDOF 5
ENDMDL
MODEL 6
REMARK VINA RESULT:      -6.7      2.409      7.649
REMARK  5 active torsions:
REMARK  status: ('A' for Active; 'I' for Inactive)
REMARK    1  A    between atoms: O1_2  and  C2_3 
REMARK    2  A    between atoms: C2_3  and  C3_4 
REMARK    3  A    between atoms: C4_5  and  O2_6 
REMARK    4  A    between atoms: C7_9  and  N1_10 
REMARK    5  A    between atoms: C11_14  and  O3_15 
ROOT
HETATM    1  N1  UNL     1      24.630   3.927  50.621  1.00  0.00    -0.312 N 
HETATM    2  C8  UNL     1      23.990   3.442  51.830  1.00  0.00     0.182 C 
HETATM    3  C9  UNL     1      24.627   2.136  52.215  1.00  0.00    -0.029 A 
HETATM    4  C10 UNL     1      24.076   1.264  53.117  1.00  0.00     0.046 A 
HETATM    5  C11 UNL     1      24.740   0.089  53.405  1.00  0.00     0.068 A 
HETATM    6  C13 UNL     1      25.949  -0.210  52.792  1.00  0.00     0.037 A 
HETATM    7  C14 UNL     1      26.501   0.683  51.877  1.00  0.00     0.012 A 
HETATM    8  C15 UNL     1      25.827   1.874  51.587  1.00  0.00    -0.035 A 
HETATM    9  C16 UNL     1      26.545   2.702  50.603  1.00  0.00     0.149 C 
HETATM   10  N2  UNL     1      26.021   4.063  50.709  1.00  0.00    -0.234 NA
HETATM   11  H20 UNL     1      26.379   4.646  49.947  1.00  0.00     0.147 HD
ENDROOT
BRANCH   1  12
HETATM   12  C7  UNL     1      23.887   4.234  49.449  1.00  0.00     0.030 A 
HETATM   13  C6  UNL     1      23.824   5.438  48.904  1.00  0.00     0.063 A 
HETATM   14  C4  UNL     1      22.957   5.331  47.713  1.00  0.00     0.074 A 
HETATM   15  C3  UNL     1      22.531   4.087  47.579  1.00  0.00    -0.018 A 
HETATM   16  C17 UNL     1      23.091   3.246  48.693  1.00  0.00     0.097 A 
BRANCH  14  17
HETATM   17  O2  UNL     1      22.673   6.429  46.893  1.00  0.00    -0.356 OA
HETATM   18  C5  UNL     1      21.602   7.317  47.236  1.00  0.00     0.210 C 
ENDBRANCH  14  17
BRANCH  15  19
HETATM   19  C2  UNL     1      21.654   3.420  46.585  1.00  0.00     0.204 C 
BRANCH  19  20
HETATM   20  O1  UNL     1      22.120   3.602  45.284  1.00  0.00    -0.392 OA
HETATM   21  C1  UNL     1      21.028   4.049  44.509  1.00  0.00     0.201 C 
ENDBRANCH  19  20
ENDBRANCH  15  19
ENDBRANCH   1  12
BRANCH   5  22
HETATM   22  O3  UNL     1      24.208  -0.797  54.302  1.00  0.00    -0.356 OA
HETATM   23  C12 UNL     1      22.827  -0.996  54.513  1.00  0.00     0.210 C 
ENDBRANCH   5  22
TORSDOF 5
ENDMDL
MODEL 7
REMARK VINA RESULT:      -6.7      3.321      4.106
REMARK  5 active torsions:
REMARK  status: ('A' for Active; 'I' for Inactive)
REMARK    1  A    between atoms: O1_2  and  C2_3 
REMARK    2  A    between atoms: C2_3  and  C3_4 
REMARK    3  A    between atoms: C4_5  and  O2_6 
REMARK    4  A    between atoms: C7_9  and  N1_10 
REMARK    5  A    between atoms: C11_14  and  O3_15 
ROOT
HETATM    1  N1  UNL     1      21.403   0.870  53.456  1.00  0.00    -0.312 N 
HETATM    2  C8  UNL     1      20.597   1.862  52.771  1.00  0.00     0.182 C 
HETATM    3  C9  UNL     1      19.408   1.172  52.163  1.00  0.00    -0.029 A 
HETATM    4  C10 UNL     1      18.612   1.744  51.205  1.00  0.00     0.046 A 
HETATM    5  C11 UNL     1      17.541   1.028  50.709  1.00  0.00     0.068 A 
HETATM    6  C13 UNL     1      17.270  -0.252  51.171  1.00  0.00     0.037 A 
HETATM    7  C14 UNL     1      18.085  -0.824  52.146  1.00  0.00     0.012 A 
HETATM    8  C15 UNL     1      19.169  -0.097  52.647  1.00  0.00    -0.035 A 
HETATM    9  C16 UNL     1      19.925  -0.844  53.667  1.00  0.00     0.149 C 
HETATM   10  N2  UNL     1      20.718   0.125  54.423  1.00  0.00    -0.234 NA
HETATM   11  H20 UNL     1      21.373  -0.356  55.045  1.00  0.00     0.147 HD
ENDROOT
BRANCH   1  12
HETATM   12  C7  UNL     1      22.781   0.683  53.157  1.00  0.00     0.030 A 
HETATM   13  C6  UNL     1      23.451   1.399  52.270  1.00  0.00     0.063 A 
HETATM   14  C4  UNL     1      24.838   0.891  52.261  1.00  0.00     0.074 A 
HETATM   15  C3  UNL     1      24.958  -0.101  53.127  1.00  0.00    -0.018 A 
HETATM   16  C17 UNL     1      23.634  -0.338  53.799  1.00  0.00     0.097 A 
BRANCH  14  17
HETATM   17  O2  UNL     1      25.827   1.429  51.429  1.00  0.00    -0.356 OA
HETATM   18  C5  UNL     1      26.762   2.378  51.953  1.00  0.00     0.210 C 
ENDBRANCH  14  17
BRANCH  15  19
HETATM   19  C2  UNL     1      26.098  -0.962  53.525  1.00  0.00     0.204 C 
BRANCH  19  20
HETATM   20  O1  UNL     1      26.516  -0.693  54.828  1.00  0.00    -0.392 OA
HETATM   21  C1  UNL     1      27.615   0.189  54.738  1.00  0.00     0.201 C 
ENDBRANCH  19  20
ENDBRANCH  15  19
ENDBRANCH   1  12
BRANCH   5  22
HETATM   22  O3  UNL     1      16.732   1.578  49.752  1.00  0.00    -0.356 OA
HETATM   23  C12 UNL     1      16.066   2.816  49.877  1.00  0.00     0.210 C 
ENDBRANCH   5  22
TORSDOF 5
ENDMDL
MODEL 8
REMARK VINA RESULT:      -6.6      1.657      2.410
REMARK  5 active torsions:
REMARK  status: ('A' for Active; 'I' for Inactive)
REMARK    1  A    between atoms: O1_2  and  C2_3 
REMARK    2  A    between atoms: C2_3  and  C3_4 
REMARK    3  A    between atoms: C4_5  and  O2_6 
REMARK    4  A    between atoms: C7_9  and  N1_10 
REMARK    5  A    between atoms: C11_14  and  O3_15 
ROOT
HETATM    1  N1  UNL     1      25.045   3.015  52.185  1.00  0.00    -0.312 N 
HETATM    2  C8  UNL     1      25.132   3.024  50.737  1.00  0.00     0.182 C 
HETATM    3  C9  UNL     1      23.741   3.121  50.176  1.00  0.00    -0.029 A 
HETATM    4  C10 UNL     1      23.434   2.854  48.868  1.00  0.00     0.046 A 
HETATM    5  C11 UNL     1      22.125   2.973  48.449  1.00  0.00     0.068 A 
HETATM    6  C13 UNL     1      21.129   3.356  49.336  1.00  0.00     0.037 A 
HETATM    7  C14 UNL     1      21.451   3.626  50.665  1.00  0.00     0.012 A 
HETATM    8  C15 UNL     1      22.779   3.506  51.087  1.00  0.00    -0.035 A 
HETATM    9  C16 UNL     1      22.947   3.825  52.515  1.00  0.00     0.149 C 
HETATM   10  N2  UNL     1      24.365   4.106  52.739  1.00  0.00    -0.234 NA
HETATM   11  H20 UNL     1      24.561   4.188  53.740  1.00  0.00     0.147 HD
ENDROOT
BRANCH   1  12
HETATM   12  C7  UNL     1      25.611   1.970  52.966  1.00  0.00     0.030 A 
HETATM   13  C6  UNL     1      24.957   0.881  53.335  1.00  0.00     0.063 A 
HETATM   14  C4  UNL     1      25.895   0.058  54.125  1.00  0.00     0.074 A 
HETATM   15  C3  UNL     1      27.066   0.666  54.208  1.00  0.00    -0.018 A 
HETATM   16  C17 UNL     1      27.002   1.971  53.463  1.00  0.00     0.097 A 
BRANCH  14  17
HETATM   17  O2  UNL     1      25.527  -1.175  54.676  1.00  0.00    -0.356 OA
HETATM   18  C5  UNL     1      24.383  -1.261  55.534  1.00  0.00     0.210 C 
ENDBRANCH  14  17
BRANCH  15  19
HETATM   19  C2  UNL     1      28.347   0.308  54.864  1.00  0.00     0.204 C 
BRANCH  19  20
HETATM   20  O1  UNL     1      29.434   0.510  54.015  1.00  0.00    -0.392 OA
HETATM   21  C1  UNL     1      29.825  -0.757  53.531  1.00  0.00     0.201 C 
ENDBRANCH  19  20
ENDBRANCH  15  19
ENDBRANCH   1  12
BRANCH   5  22
HETATM   22  O3  UNL     1      21.794   2.711  47.147  1.00  0.00    -0.356 OA
HETATM   23  C12 UNL     1      21.890   3.643  46.091  1.00  0.00     0.210 C 
ENDBRANCH   5  22
TORSDOF 5
ENDMDL
MODEL 9
REMARK VINA RESULT:      -6.6      3.531      7.257
REMARK  5 active torsions:
REMARK  status: ('A' for Active; 'I' for Inactive)
REMARK    1  A    between atoms: O1_2  and  C2_3 
REMARK    2  A    between atoms: C2_3  and  C3_4 
REMARK    3  A    between atoms: C4_5  and  O2_6 
REMARK    4  A    between atoms: C7_9  and  N1_10 
REMARK    5  A    between atoms: C11_14  and  O3_15 
ROOT
HETATM    1  N1  UNL     1      25.083   3.042  50.457  1.00  0.00    -0.312 N 
HETATM    2  C8  UNL     1      26.293   2.278  50.693  1.00  0.00     0.182 C 
HETATM    3  C9  UNL     1      26.084   1.414  51.905  1.00  0.00    -0.029 A 
HETATM    4  C10 UNL     1      27.105   0.799  52.580  1.00  0.00     0.046 A 
HETATM    5  C11 UNL     1      26.809   0.025  53.683  1.00  0.00     0.068 A 
HETATM    6  C13 UNL     1      25.497  -0.133  54.106  1.00  0.00     0.037 A 
HETATM    7  C14 UNL     1      24.465   0.496  53.413  1.00  0.00     0.012 A 
HETATM    8  C15 UNL     1      24.768   1.280  52.295  1.00  0.00    -0.035 A 
HETATM    9  C16 UNL     1      23.566   1.871  51.680  1.00  0.00     0.149 C 
HETATM   10  N2  UNL     1      23.922   2.272  50.319  1.00  0.00    -0.234 NA
HETATM   11  H20 UNL     1      23.167   2.822  49.899  1.00  0.00     0.147 HD
ENDROOT
BRANCH   1  12
HETATM   12  C7  UNL     1      25.094   4.462  50.376  1.00  0.00     0.030 A 
HETATM   13  C6  UNL     1      24.154   5.241  50.885  1.00  0.00     0.063 A 
HETATM   14  C4  UNL     1      24.539   6.636  50.586  1.00  0.00     0.074 A 
HETATM   15  C3  UNL     1      25.679   6.654  49.917  1.00  0.00    -0.018 A 
HETATM   16  C17 UNL     1      26.157   5.242  49.712  1.00  0.00     0.097 A 
BRANCH  14  17
HETATM   17  O2  UNL     1      23.760   7.728  50.985  1.00  0.00    -0.356 OA
HETATM   18  C5  UNL     1      22.395   7.824  50.562  1.00  0.00     0.210 C 
ENDBRANCH  14  17
BRANCH  15  19
HETATM   19  C2  UNL     1      26.513   7.752  49.371  1.00  0.00     0.204 C 
BRANCH  19  20
HETATM   20  O1  UNL     1      26.914   8.639  50.369  1.00  0.00    -0.392 OA
HETATM   21  C1  UNL     1      27.840   9.530  49.785  1.00  0.00     0.201 C 
ENDBRANCH  19  20
ENDBRANCH  15  19
ENDBRANCH   1  12
BRANCH   5  22
HETATM   22  O3  UNL     1      27.813  -0.599  54.373  1.00  0.00    -0.356 OA
HETATM   23  C12 UNL     1      29.190  -0.356  54.183  1.00  0.00     0.210 C 
ENDBRANCH   5  22
TORSDOF 5
ENDMDL
