MODEL 1
REMARK VINA RESULT:      -8.4      0.000      0.000
REMARK  3 active torsions:
REMARK  status: ('A' for Active; 'I' for Inactive)
REMARK    1  A    between atoms: N1_8  and  C7_9 
REMARK    2  A    between atoms: C7_9  and  N2_10 
REMARK    3  A    between atoms: N2_10  and  C8_11 
ROOT
HETATM    1  O1  UNL     1      28.718   1.532  53.516  1.00  0.00     0.000 OA
HETATM    2  C1  UNL     1      29.444   2.068  54.378  1.00  0.00     0.281 A 
HETATM    3  C2  UNL     1      29.543   0.723  54.023  1.00  0.00     0.044 A 
HETATM    4  C3  UNL     1      29.602  -0.383  53.719  1.00  0.00    -0.144 C 
HETATM    5  C4  UNL     1      29.649  -1.737  53.330  1.00  0.00     0.093 C 
HETATM    6  C5  UNL     1      28.086  -2.035  53.066  1.00  0.00     0.089 C 
HETATM    7  C6  UNL     1      27.390  -0.742  52.705  1.00  0.00     0.098 C 
HETATM    8  N1  UNL     1      26.755  -0.689  53.754  1.00  0.00    -0.258 NA
HETATM    9  N3  UNL     1      26.703   0.534  52.348  1.00  0.00    -0.354 N 
HETATM   10  C14 UNL     1      27.224   1.887  52.236  1.00  0.00     0.395 C 
HETATM   11  N4  UNL     1      28.260   2.216  53.344  1.00  0.00     0.122 N 
HETATM   12  H12 UNL     1      25.680   0.462  52.107  1.00  0.00     0.162 HD
HETATM   13  H15 UNL     1      28.075   3.299  53.619  1.00  0.00     0.319 HD
ENDROOT
BRANCH   8  14
HETATM   14  C7  UNL     1      25.875  -0.139  54.623  1.00  0.00     0.272 C 
BRANCH  14  15
HETATM   15  N2  UNL     1      24.848  -1.133  54.971  1.00  0.00    -0.372 N 
HETATM   16  H7  UNL     1      24.991  -1.978  55.581  1.00  0.00     0.161 HD
BRANCH  15  17
HETATM   17  C8  UNL     1      23.554  -0.927  54.433  1.00  0.00     0.030 A 
HETATM   18  C9  UNL     1      22.414  -1.404  55.021  1.00  0.00     0.029 A 
HETATM   19  C10 UNL     1      21.138  -1.223  54.526  1.00  0.00     0.004 A 
HETATM   20  C11 UNL     1      20.973  -0.513  53.354  1.00  0.00     0.019 A 
HETATM   21  C12 UNL     1      22.098  -0.008  52.719  1.00  0.00     0.013 A 
HETATM   22 BR1  UNL     1      21.786   0.957  51.112  1.00  0.00    -0.051 Br
HETATM   23  C13 UNL     1      23.348  -0.223  53.264  1.00  0.00     0.048 A 
ENDBRANCH  15  17
ENDBRANCH  14  15
ENDBRANCH   8  14
TORSDOF 3
ENDMDL
MODEL 2
REMARK VINA RESULT:      -8.1      1.366      2.771
REMARK  3 active torsions:
REMARK  status: ('A' for Active; 'I' for Inactive)
REMARK    1  A    between atoms: N1_8  and  C7_9 
REMARK    2  A    between atoms: C7_9  and  N2_10 
REMARK    3  A    between atoms: N2_10  and  C8_11 
ROOT
HETATM    1  O1  UNL     1      27.805  -1.077  52.980  1.00  0.00     0.000 OA
HETATM    2  C1  UNL     1      27.385  -2.091  52.387  1.00  0.00     0.281 A 
HETATM    3  C2  UNL     1      26.980  -0.796  52.068  1.00  0.00     0.044 A 
HETATM    4  C3  UNL     1      26.657   0.280  51.827  1.00  0.00    -0.144 C 
HETATM    5  C4  UNL     1      26.273   1.609  51.556  1.00  0.00     0.093 C 
HETATM    6  C5  UNL     1      26.278   2.237  53.041  1.00  0.00     0.089 C 
HETATM    7  C6  UNL     1      27.239   1.456  53.906  1.00  0.00     0.098 C 
HETATM    8  N1  UNL     1      26.352   0.956  54.592  1.00  0.00    -0.258 NA
HETATM    9  N3  UNL     1      28.189   0.683  54.762  1.00  0.00    -0.354 N 
HETATM   10  C14 UNL     1      29.019  -0.468  54.447  1.00  0.00     0.395 C 
HETATM   11  N4  UNL     1      28.294  -1.487  53.528  1.00  0.00     0.122 N 
HETATM   12  H12 UNL     1      28.315   1.029  55.749  1.00  0.00     0.162 HD
HETATM   13  H15 UNL     1      28.625  -2.508  53.888  1.00  0.00     0.319 HD
ENDROOT
BRANCH   8  14
HETATM   14  C7  UNL     1      25.871   0.174  55.587  1.00  0.00     0.272 C 
BRANCH  14  15
HETATM   15  N2  UNL     1      25.227  -1.014  55.005  1.00  0.00    -0.372 N 
HETATM   16  H7  UNL     1      25.671  -1.960  54.889  1.00  0.00     0.161 HD
BRANCH  15  17
HETATM   17  C8  UNL     1      23.890  -0.860  54.564  1.00  0.00     0.030 A 
HETATM   18  C9  UNL     1      22.811  -1.315  55.273  1.00  0.00     0.029 A 
HETATM   19  C10 UNL     1      21.495  -1.184  54.875  1.00  0.00     0.004 A 
HETATM   20  C11 UNL     1      21.222  -0.552  53.679  1.00  0.00     0.019 A 
HETATM   21  C12 UNL     1      22.282  -0.073  52.922  1.00  0.00     0.013 A 
HETATM   22 BR1  UNL     1      21.821   0.782  51.289  1.00  0.00    -0.051 Br
HETATM   23  C13 UNL     1      23.576  -0.235  53.375  1.00  0.00     0.048 A 
ENDBRANCH  15  17
ENDBRANCH  14  15
ENDBRANCH   8  14
TORSDOF 3
ENDMDL
MODEL 3
REMARK VINA RESULT:      -7.9      2.152      3.907
REMARK  3 active torsions:
REMARK  status: ('A' for Active; 'I' for Inactive)
REMARK    1  A    between atoms: N1_8  and  C7_9 
REMARK    2  A    between atoms: C7_9  and  N2_10 
REMARK    3  A    between atoms: N2_10  and  C8_11 
ROOT
HETATM    1  O1  UNL     1      26.710  -1.246  53.541  1.00  0.00     0.000 OA
HETATM    2  C1  UNL     1      26.463  -1.831  52.466  1.00  0.00     0.281 A 
HETATM    3  C2  UNL     1      27.749  -1.465  52.861  1.00  0.00     0.044 A 
HETATM    4  C3  UNL     1      28.800  -1.149  53.204  1.00  0.00    -0.144 C 
HETATM    5  C4  UNL     1      30.076  -0.746  53.647  1.00  0.00     0.093 C 
HETATM    6  C5  UNL     1      29.718   0.639  54.390  1.00  0.00     0.089 C 
HETATM    7  C6  UNL     1      28.282   0.592  54.861  1.00  0.00     0.098 C 
HETATM    8  N1  UNL     1      27.898   1.432  54.053  1.00  0.00    -0.258 NA
HETATM    9  N3  UNL     1      26.864   0.546  55.326  1.00  0.00    -0.354 N 
HETATM   10  C14 UNL     1      25.860  -0.496  55.187  1.00  0.00     0.395 C 
HETATM   11  N4  UNL     1      25.911  -1.187  53.799  1.00  0.00     0.122 N 
HETATM   12  H12 UNL     1      26.523   1.382  55.870  1.00  0.00     0.162 HD
HETATM   13  H15 UNL     1      24.833  -1.394  53.524  1.00  0.00     0.319 HD
ENDROOT
BRANCH   8  14
HETATM   14  C7  UNL     1      26.973   2.222  53.458  1.00  0.00     0.272 C 
BRANCH  14  15
HETATM   15  N2  UNL     1      26.862   1.857  52.037  1.00  0.00    -0.372 N 
HETATM   16  H7  UNL     1      27.636   1.470  51.439  1.00  0.00     0.161 HD
BRANCH  15  17
HETATM   17  C8  UNL     1      25.598   2.047  51.428  1.00  0.00     0.030 A 
HETATM   18  C9  UNL     1      25.385   2.936  50.408  1.00  0.00     0.029 A 
HETATM   19  C10 UNL     1      24.168   3.148  49.791  1.00  0.00     0.004 A 
HETATM   20  C11 UNL     1      23.071   2.424  50.214  1.00  0.00     0.019 A 
HETATM   21  C12 UNL     1      23.236   1.511  51.246  1.00  0.00     0.013 A 
HETATM   22 BR1  UNL     1      21.679   0.556  51.770  1.00  0.00    -0.051 Br
HETATM   23  C13 UNL     1      24.479   1.344  51.822  1.00  0.00     0.048 A 
ENDBRANCH  15  17
ENDBRANCH  14  15
ENDBRANCH   8  14
TORSDOF 3
ENDMDL
MODEL 4
REMARK VINA RESULT:      -7.8      2.979      4.851
REMARK  3 active torsions:
REMARK  status: ('A' for Active; 'I' for Inactive)
REMARK    1  A    between atoms: N1_8  and  C7_9 
REMARK    2  A    between atoms: C7_9  and  N2_10 
REMARK    3  A    between atoms: N2_10  and  C8_11 
ROOT
HETATM    1  O1  UNL     1      26.761  -1.319  53.510  1.00  0.00     0.000 OA
HETATM    2  C1  UNL     1      26.622  -1.962  52.449  1.00  0.00     0.281 A 
HETATM    3  C2  UNL     1      27.834  -1.405  52.853  1.00  0.00     0.044 A 
HETATM    4  C3  UNL     1      28.821  -0.933  53.204  1.00  0.00    -0.144 C 
HETATM    5  C4  UNL     1      30.017  -0.338  53.655  1.00  0.00     0.093 C 
HETATM    6  C5  UNL     1      29.450   1.001  54.351  1.00  0.00     0.089 C 
HETATM    7  C6  UNL     1      28.026   0.760  54.800  1.00  0.00     0.098 C 
HETATM    8  N1  UNL     1      27.542   1.514  53.961  1.00  0.00    -0.258 NA
HETATM    9  N3  UNL     1      26.620   0.523  55.243  1.00  0.00    -0.354 N 
HETATM   10  C14 UNL     1      25.778  -0.656  55.119  1.00  0.00     0.395 C 
HETATM   11  N4  UNL     1      25.957  -1.370  53.753  1.00  0.00     0.122 N 
HETATM   12  H12 UNL     1      26.152   1.315  55.757  1.00  0.00     0.162 HD
HETATM   13  H15 UNL     1      24.925  -1.737  53.467  1.00  0.00     0.319 HD
ENDROOT
BRANCH   8  14
HETATM   14  C7  UNL     1      26.526   2.147  53.328  1.00  0.00     0.272 C 
BRANCH  14  15
HETATM   15  N2  UNL     1      26.462   1.690  51.931  1.00  0.00    -0.372 N 
HETATM   16  H7  UNL     1      26.778   0.752  51.576  1.00  0.00     0.161 HD
BRANCH  15  17
HETATM   17  C8  UNL     1      25.927   2.600  50.988  1.00  0.00     0.030 A 
HETATM   18  C9  UNL     1      24.601   2.632  50.648  1.00  0.00     0.029 A 
HETATM   19  C10 UNL     1      24.044   3.504  49.733  1.00  0.00     0.004 A 
HETATM   20  C11 UNL     1      24.861   4.420  49.103  1.00  0.00     0.019 A 
HETATM   21  C12 UNL     1      26.213   4.428  49.414  1.00  0.00     0.013 A 
HETATM   22 BR1  UNL     1      27.270   5.719  48.503  1.00  0.00    -0.051 Br
HETATM   23  C13 UNL     1      26.711   3.531  50.337  1.00  0.00     0.048 A 
ENDBRANCH  15  17
ENDBRANCH  14  15
ENDBRANCH   8  14
TORSDOF 3
ENDMDL
MODEL 5
REMARK VINA RESULT:      -7.4      4.031      6.097
REMARK  3 active torsions:
REMARK  status: ('A' for Active; 'I' for Inactive)
REMARK    1  A    between atoms: N1_8  and  C7_9 
REMARK    2  A    between atoms: C7_9  and  N2_10 
REMARK    3  A    between atoms: N2_10  and  C8_11 
ROOT
HETATM    1  O1  UNL     1      24.657   4.657  50.308  1.00  0.00     0.000 OA
HETATM    2  C1  UNL     1      25.658   4.507  49.577  1.00  0.00     0.281 A 
HETATM    3  C2  UNL     1      24.592   3.609  49.609  1.00  0.00     0.044 A 
HETATM    4  C3  UNL     1      23.705   2.880  49.656  1.00  0.00    -0.144 C 
HETATM    5  C4  UNL     1      22.606   2.001  49.739  1.00  0.00     0.093 C 
HETATM    6  C5  UNL     1      22.248   2.105  51.307  1.00  0.00     0.089 C 
HETATM    7  C6  UNL     1      22.709   3.445  51.833  1.00  0.00     0.098 C 
HETATM    8  N1  UNL     1      23.608   2.965  52.516  1.00  0.00    -0.258 NA
HETATM    9  N3  UNL     1      23.165   4.769  52.352  1.00  0.00    -0.354 N 
HETATM   10  C14 UNL     1      23.843   5.864  51.677  1.00  0.00     0.395 C 
HETATM   11  N4  UNL     1      24.920   5.367  50.676  1.00  0.00     0.122 N 
HETATM   12  H12 UNL     1      22.945   4.975  53.361  1.00  0.00     0.162 HD
HETATM   13  H15 UNL     1      25.771   6.109  50.754  1.00  0.00     0.319 HD
ENDROOT
BRANCH   8  14
HETATM   14  C7  UNL     1      24.651   3.022  53.378  1.00  0.00     0.272 C 
BRANCH  14  15
HETATM   15  N2  UNL     1      25.893   2.692  52.662  1.00  0.00    -0.372 N 
HETATM   16  H7  UNL     1      26.468   3.359  52.088  1.00  0.00     0.161 HD
BRANCH  15  17
HETATM   17  C8  UNL     1      26.347   1.354  52.760  1.00  0.00     0.030 A 
HETATM   18  C9  UNL     1      25.537   0.271  52.550  1.00  0.00     0.029 A 
HETATM   19  C10 UNL     1      25.944  -1.046  52.637  1.00  0.00     0.004 A 
HETATM   20  C11 UNL     1      27.259  -1.316  52.958  1.00  0.00     0.019 A 
HETATM   21  C12 UNL     1      28.121  -0.252  53.181  1.00  0.00     0.013 A 
HETATM   22 BR1  UNL     1      29.914  -0.708  53.617  1.00  0.00    -0.051 Br
HETATM   23  C13 UNL     1      27.653   1.043  53.078  1.00  0.00     0.048 A 
ENDBRANCH  15  17
ENDBRANCH  14  15
ENDBRANCH   8  14
TORSDOF 3
ENDMDL
MODEL 6
REMARK VINA RESULT:      -7.4      2.914      4.938
REMARK  3 active torsions:
REMARK  status: ('A' for Active; 'I' for Inactive)
REMARK    1  A    between atoms: N1_8  and  C7_9 
REMARK    2  A    between atoms: C7_9  and  N2_10 
REMARK    3  A    between atoms: N2_10  and  C8_11 
ROOT
HETATM    1  O1  UNL     1      26.876  -1.208  53.333  1.00  0.00     0.000 OA
HETATM    2  C1  UNL     1      27.103  -2.209  52.622  1.00  0.00     0.281 A 
HETATM    3  C2  UNL     1      28.101  -1.344  53.067  1.00  0.00     0.044 A 
HETATM    4  C3  UNL     1      28.907  -0.615  53.441  1.00  0.00    -0.144 C 
HETATM    5  C4  UNL     1      29.874   0.298  53.908  1.00  0.00     0.093 C 
HETATM    6  C5  UNL     1      29.048   1.681  53.839  1.00  0.00     0.089 C 
HETATM    7  C6  UNL     1      27.571   1.382  53.963  1.00  0.00     0.098 C 
HETATM    8  N1  UNL     1      27.324   1.682  52.799  1.00  0.00    -0.258 NA
HETATM    9  N3  UNL     1      26.112   1.087  54.085  1.00  0.00    -0.354 N 
HETATM   10  C14 UNL     1      25.416  -0.181  54.230  1.00  0.00     0.395 C 
HETATM   11  N4  UNL     1      26.040  -1.303  53.360  1.00  0.00     0.122 N 
HETATM   12  H12 UNL     1      25.467   1.920  54.099  1.00  0.00     0.162 HD
HETATM   13  H15 UNL     1      25.167  -1.920  52.989  1.00  0.00     0.319 HD
ENDROOT
BRANCH   8  14
HETATM   14  C7  UNL     1      26.514   1.856  51.727  1.00  0.00     0.272 C 
BRANCH  14  15
HETATM   15  N2  UNL     1      26.741   3.193  51.157  1.00  0.00    -0.372 N 
HETATM   16  H7  UNL     1      27.588   3.795  51.319  1.00  0.00     0.161 HD
BRANCH  15  17
HETATM   17  C8  UNL     1      25.725   3.708  50.317  1.00  0.00     0.030 A 
HETATM   18  C9  UNL     1      25.737   4.984  49.822  1.00  0.00     0.029 A 
HETATM   19  C10 UNL     1      24.764   5.520  49.001  1.00  0.00     0.004 A 
HETATM   20  C11 UNL     1      23.691   4.731  48.638  1.00  0.00     0.019 A 
HETATM   21  C12 UNL     1      23.632   3.429  49.114  1.00  0.00     0.013 A 
HETATM   22 BR1  UNL     1      22.124   2.409  48.569  1.00  0.00    -0.051 Br
HETATM   23  C13 UNL     1      24.637   2.951  49.932  1.00  0.00     0.048 A 
ENDBRANCH  15  17
ENDBRANCH  14  15
ENDBRANCH   8  14
TORSDOF 3
ENDMDL
MODEL 7
REMARK VINA RESULT:      -7.2      4.708      6.363
REMARK  3 active torsions:
REMARK  status: ('A' for Active; 'I' for Inactive)
REMARK    1  A    between atoms: N1_8  and  C7_9 
REMARK    2  A    between atoms: C7_9  and  N2_10 
REMARK    3  A    between atoms: N2_10  and  C8_11 
ROOT
HETATM    1  O1  UNL     1      23.843   5.529  48.602  1.00  0.00     0.000 OA
HETATM    2  C1  UNL     1      23.753   6.774  48.580  1.00  0.00     0.281 A 
HETATM    3  C2  UNL     1      24.964   6.096  48.714  1.00  0.00     0.044 A 
HETATM    4  C3  UNL     1      25.950   5.517  48.828  1.00  0.00    -0.144 C 
HETATM    5  C4  UNL     1      27.144   4.781  48.973  1.00  0.00     0.093 C 
HETATM    6  C5  UNL     1      26.631   3.538  49.862  1.00  0.00     0.089 C 
HETATM    7  C6  UNL     1      25.155   3.326  49.613  1.00  0.00     0.098 C 
HETATM    8  N1  UNL     1      24.823   3.701  50.733  1.00  0.00    -0.258 NA
HETATM    9  N3  UNL     1      23.697   3.118  49.367  1.00  0.00    -0.354 N 
HETATM   10  C14 UNL     1      22.771   3.845  48.514  1.00  0.00     0.395 C 
HETATM   11  N4  UNL     1      23.018   5.376  48.541  1.00  0.00     0.122 N 
HETATM   12  H12 UNL     1      23.252   2.300  49.860  1.00  0.00     0.162 HD
HETATM   13  H15 UNL     1      21.991   5.850  48.492  1.00  0.00     0.319 HD
ENDROOT
BRANCH   8  14
HETATM   14  C7  UNL     1      23.933   3.979  51.716  1.00  0.00     0.272 C 
BRANCH  14  15
HETATM   15  N2  UNL     1      24.540   3.679  53.022  1.00  0.00    -0.372 N 
HETATM   16  H7  UNL     1      24.716   4.373  53.792  1.00  0.00     0.161 HD
BRANCH  15  17
HETATM   17  C8  UNL     1      24.918   2.334  53.254  1.00  0.00     0.030 A 
HETATM   18  C9  UNL     1      24.096   1.271  52.996  1.00  0.00     0.029 A 
HETATM   19  C10 UNL     1      24.430  -0.052  53.209  1.00  0.00     0.004 A 
HETATM   20  C11 UNL     1      25.677  -0.350  53.720  1.00  0.00     0.019 A 
HETATM   21  C12 UNL     1      26.548   0.694  53.998  1.00  0.00     0.013 A 
HETATM   22 BR1  UNL     1      28.244   0.200  54.699  1.00  0.00    -0.051 Br
HETATM   23  C13 UNL     1      26.155   1.996  53.763  1.00  0.00     0.048 A 
ENDBRANCH  15  17
ENDBRANCH  14  15
ENDBRANCH   8  14
TORSDOF 3
ENDMDL
MODEL 8
REMARK VINA RESULT:      -7.2      4.391      6.250
REMARK  3 active torsions:
REMARK  status: ('A' for Active; 'I' for Inactive)
REMARK    1  A    between atoms: N1_8  and  C7_9 
REMARK    2  A    between atoms: C7_9  and  N2_10 
REMARK    3  A    between atoms: N2_10  and  C8_11 
ROOT
HETATM    1  O1  UNL     1      23.832   5.818  50.442  1.00  0.00     0.000 OA
HETATM    2  C1  UNL     1      24.066   6.935  50.947  1.00  0.00     0.281 A 
HETATM    3  C2  UNL     1      25.029   6.182  50.278  1.00  0.00     0.044 A 
HETATM    4  C3  UNL     1      25.807   5.541  49.727  1.00  0.00    -0.144 C 
HETATM    5  C4  UNL     1      26.744   4.733  49.051  1.00  0.00     0.093 C 
HETATM    6  C5  UNL     1      26.267   3.263  49.512  1.00  0.00     0.089 C 
HETATM    7  C6  UNL     1      24.795   3.304  49.853  1.00  0.00     0.098 C 
HETATM    8  N1  UNL     1      24.980   3.145  51.056  1.00  0.00    -0.258 NA
HETATM    9  N3  UNL     1      23.341   3.345  50.191  1.00  0.00    -0.354 N 
HETATM   10  C14 UNL     1      22.399   4.452  50.170  1.00  0.00     0.395 C 
HETATM   11  N4  UNL     1      23.027   5.775  50.683  1.00  0.00     0.122 N 
HETATM   12  H12 UNL     1      22.899   2.429  50.465  1.00  0.00     0.162 HD
HETATM   13  H15 UNL     1      22.207   6.295  51.264  1.00  0.00     0.319 HD
ENDROOT
BRANCH   8  14
HETATM   14  C7  UNL     1      24.589   3.006  52.345  1.00  0.00     0.272 C 
BRANCH  14  15
HETATM   15  N2  UNL     1      25.764   2.715  53.182  1.00  0.00    -0.372 N 
HETATM   16  H7  UNL     1      26.270   3.405  53.793  1.00  0.00     0.161 HD
BRANCH  15  17
HETATM   17  C8  UNL     1      26.249   1.385  53.157  1.00  0.00     0.030 A 
HETATM   18  C9  UNL     1      25.441   0.297  52.966  1.00  0.00     0.029 A 
HETATM   19  C10 UNL     1      25.878  -1.013  52.936  1.00  0.00     0.004 A 
HETATM   20  C11 UNL     1      27.223  -1.270  53.108  1.00  0.00     0.019 A 
HETATM   21  C12 UNL     1      28.084  -0.200  53.305  1.00  0.00     0.013 A 
HETATM   22 BR1  UNL     1      29.920  -0.638  53.535  1.00  0.00    -0.051 Br
HETATM   23  C13 UNL     1      27.586   1.088  53.325  1.00  0.00     0.048 A 
ENDBRANCH  15  17
ENDBRANCH  14  15
ENDBRANCH   8  14
TORSDOF 3
ENDMDL
MODEL 9
REMARK VINA RESULT:      -7.0      4.357      6.641
REMARK  3 active torsions:
REMARK  status: ('A' for Active; 'I' for Inactive)
REMARK    1  A    between atoms: N1_8  and  C7_9 
REMARK    2  A    between atoms: C7_9  and  N2_10 
REMARK    3  A    between atoms: N2_10  and  C8_11 
ROOT
HETATM    1  O1  UNL     1      23.140   3.871  51.135  1.00  0.00     0.000 OA
HETATM    2  C1  UNL     1      22.764   3.685  52.311  1.00  0.00     0.281 A 
HETATM    3  C2  UNL     1      23.355   4.869  51.875  1.00  0.00     0.044 A 
HETATM    4  C3  UNL     1      23.849   5.835  51.495  1.00  0.00    -0.144 C 
HETATM    5  C4  UNL     1      24.463   7.005  51.004  1.00  0.00     0.093 C 
HETATM    6  C5  UNL     1      25.507   6.381  49.945  1.00  0.00     0.089 C 
HETATM    7  C6  UNL     1      24.984   5.048  49.461  1.00  0.00     0.098 C 
HETATM    8  N1  UNL     1      25.852   4.400  50.037  1.00  0.00    -0.258 NA
HETATM    9  N3  UNL     1      24.468   3.731  48.982  1.00  0.00    -0.354 N 
HETATM   10  C14 UNL     1      23.258   3.007  49.337  1.00  0.00     0.395 C 
HETATM   11  N4  UNL     1      22.929   3.108  50.850  1.00  0.00     0.122 N 
HETATM   12  H12 UNL     1      25.045   3.243  48.248  1.00  0.00     0.162 HD
HETATM   13  H15 UNL     1      22.515   2.095  51.138  1.00  0.00     0.319 HD
ENDROOT
BRANCH   8  14
HETATM   14  C7  UNL     1      26.486   3.261  50.404  1.00  0.00     0.272 C 
BRANCH  14  15
HETATM   15  N2  UNL     1      26.277   3.028  51.842  1.00  0.00    -0.372 N 
HETATM   16  H7  UNL     1      26.027   3.761  52.553  1.00  0.00     0.161 HD
BRANCH  15  17
HETATM   17  C8  UNL     1      26.428   1.697  52.300  1.00  0.00     0.030 A 
HETATM   18  C9  UNL     1      25.382   0.821  52.412  1.00  0.00     0.029 A 
HETATM   19  C10 UNL     1      25.490  -0.483  52.854  1.00  0.00     0.004 A 
HETATM   20  C11 UNL     1      26.733  -0.961  53.215  1.00  0.00     0.019 A 
HETATM   21  C12 UNL     1      27.826  -0.112  53.120  1.00  0.00     0.013 A 
HETATM   22 BR1  UNL     1      29.501  -0.847  53.637  1.00  0.00    -0.051 Br
HETATM   23  C13 UNL     1      27.653   1.182  52.670  1.00  0.00     0.048 A 
ENDBRANCH  15  17
ENDBRANCH  14  15
ENDBRANCH   8  14
TORSDOF 3
ENDMDL
