MODEL 1
REMARK VINA RESULT:      -8.3      0.000      0.000
REMARK  4 active torsions:
REMARK  status: ('A' for Active; 'I' for Inactive)
REMARK    1  A    between atoms: C3_3  and  C4_4 
REMARK    2  A    between atoms: C7_7  and  C8_8 
REMARK    3  A    between atoms: C8_8  and  N1_10 
REMARK    4  A    between atoms: N2_20  and  C19_21 
ROOT
HETATM    1  N1  UNL     1      21.615   3.623  49.300  1.00  0.00    -0.373 N 
HETATM    2  C10 UNL     1      21.925   3.541  50.717  1.00  0.00     0.139 C 
HETATM    3  C11 UNL     1      22.414   2.252  51.222  1.00  0.00     0.022 C 
HETATM    4  C12 UNL     1      21.622   1.056  50.913  1.00  0.00    -0.014 C 
HETATM    5  C13 UNL     1      21.227   0.578  49.718  1.00  0.00    -0.001 C 
HETATM    6  C14 UNL     1      21.584   1.276  48.460  1.00  0.00     0.024 C 
HETATM    7  C15 UNL     1      21.743   2.608  48.327  1.00  0.00     0.004 C 
HETATM    8  C16 UNL     1      22.122   3.175  47.011  1.00  0.00     0.068 C 
HETATM    9  C17 UNL     1      22.427   2.365  52.756  1.00  0.00     0.047 C 
HETATM   10  C18 UNL     1      23.349   1.220  53.084  1.00  0.00     0.274 C 
HETATM   11  N2  UNL     1      24.421   1.363  52.173  1.00  0.00     0.096 N 
HETATM   12  C25 UNL     1      23.891   2.015  50.999  1.00  0.00     0.288 C 
ENDROOT
BRANCH   1  13
HETATM   13  C8  UNL     1      21.147   4.954  49.128  1.00  0.00     0.129 C 
HETATM   14  C9  UNL     1      19.899   5.298  49.918  1.00  0.00     0.039 C 
BRANCH  13  15
HETATM   15  C7  UNL     1      22.104   6.064  49.084  1.00  0.00     0.028 C 
HETATM   16  C6  UNL     1      23.448   5.955  49.119  1.00  0.00     0.035 C 
HETATM   17  C5  UNL     1      24.162   7.222  49.061  1.00  0.00    -0.039 C 
HETATM   18  C4  UNL     1      25.451   7.393  48.827  1.00  0.00     0.008 C 
HETATM   19  C26 UNL     1      23.132   8.263  49.316  1.00  0.00     0.158 C 
HETATM   20  N4  UNL     1      21.942   7.499  48.994  1.00  0.00    -0.387 N 
HETATM   21  H38 UNL     1      21.017   7.917  48.714  1.00  0.00     0.159 HD
BRANCH  18  22
HETATM   22  C3  UNL     1      26.302   6.233  48.595  1.00  0.00    -0.004 C 
HETATM   23  C2  UNL     1      27.619   6.396  48.529  1.00  0.00    -0.031 C 
HETATM   24  C1  UNL     1      28.520   5.240  48.293  1.00  0.00     0.036 C 
ENDBRANCH  18  22
ENDBRANCH  13  15
ENDBRANCH   1  13
BRANCH  11  25
HETATM   25  C19 UNL     1      25.539   2.123  52.654  1.00  0.00     0.251 C 
HETATM   26  C20 UNL     1      25.962   1.764  54.053  1.00  0.00     0.040 C 
HETATM   27  C21 UNL     1      26.620   0.396  54.132  1.00  0.00     0.037 C 
HETATM   28  C22 UNL     1      27.842   0.474  53.238  1.00  0.00     0.216 C 
HETATM   29  C23 UNL     1      28.655  -0.765  53.442  1.00  0.00     0.042 C 
HETATM   30  N3  UNL     1      27.315   0.605  51.888  1.00  0.00     0.089 N 
HETATM   31  C24 UNL     1      26.763   1.951  51.783  1.00  0.00     0.305 C 
HETATM   32  H33 UNL     1      28.174   0.634  51.272  1.00  0.00     0.316 HD
ENDBRANCH  11  25
TORSDOF 4
ENDMDL
MODEL 2
REMARK VINA RESULT:      -8.0      1.869      5.107
REMARK  4 active torsions:
REMARK  status: ('A' for Active; 'I' for Inactive)
REMARK    1  A    between atoms: C3_3  and  C4_4 
REMARK    2  A    between atoms: C7_7  and  C8_8 
REMARK    3  A    between atoms: C8_8  and  N1_10 
REMARK    4  A    between atoms: N2_20  and  C19_21 
ROOT
HETATM    1  N1  UNL     1      22.664   5.301  49.421  1.00  0.00    -0.373 N 
HETATM    2  C10 UNL     1      23.602   4.216  49.193  1.00  0.00     0.139 C 
HETATM    3  C11 UNL     1      24.837   4.219  49.989  1.00  0.00     0.022 C 
HETATM    4  C12 UNL     1      25.638   5.448  49.995  1.00  0.00    -0.014 C 
HETATM    5  C13 UNL     1      25.276   6.703  50.324  1.00  0.00    -0.001 C 
HETATM    6  C14 UNL     1      23.892   7.009  50.759  1.00  0.00     0.024 C 
HETATM    7  C15 UNL     1      22.784   6.369  50.337  1.00  0.00     0.004 C 
HETATM    8  C16 UNL     1      21.458   6.765  50.869  1.00  0.00     0.068 C 
HETATM    9  C17 UNL     1      25.741   3.128  49.390  1.00  0.00     0.047 C 
HETATM   10  C18 UNL     1      26.697   2.937  50.538  1.00  0.00     0.274 C 
HETATM   11  N2  UNL     1      25.864   2.873  51.679  1.00  0.00     0.096 N 
HETATM   12  C25 UNL     1      24.683   3.648  51.381  1.00  0.00     0.288 C 
ENDROOT
BRANCH   1  13
HETATM   13  C8  UNL     1      21.611   5.042  48.502  1.00  0.00     0.129 C 
HETATM   14  C9  UNL     1      22.046   4.899  47.056  1.00  0.00     0.039 C 
BRANCH  13  15
HETATM   15  C7  UNL     1      20.546   4.101  48.860  1.00  0.00     0.028 C 
HETATM   16  C6  UNL     1      20.719   2.847  49.328  1.00  0.00     0.035 C 
HETATM   17  C5  UNL     1      19.485   2.127  49.604  1.00  0.00    -0.039 C 
HETATM   18  C4  UNL     1      19.362   1.005  50.292  1.00  0.00     0.008 C 
HETATM   19  C26 UNL     1      18.412   2.924  48.954  1.00  0.00     0.158 C 
HETATM   20  N4  UNL     1      19.102   4.195  48.839  1.00  0.00    -0.387 N 
HETATM   21  H38 UNL     1      18.628   5.130  48.745  1.00  0.00     0.159 HD
BRANCH  18  22
HETATM   22  C3  UNL     1      20.546   0.372  50.858  1.00  0.00    -0.004 C 
HETATM   23  C2  UNL     1      20.721   0.382  52.175  1.00  0.00    -0.031 C 
HETATM   24  C1  UNL     1      21.914  -0.250  52.790  1.00  0.00     0.036 C 
ENDBRANCH  18  22
ENDBRANCH  13  15
ENDBRANCH   1  13
BRANCH  11  25
HETATM   25  C19 UNL     1      25.461   1.554  52.073  1.00  0.00     0.251 C 
HETATM   26  C20 UNL     1      26.485   0.491  51.776  1.00  0.00     0.040 C 
HETATM   27  C21 UNL     1      27.705   0.588  52.676  1.00  0.00     0.037 C 
HETATM   28  C22 UNL     1      27.188   0.413  54.092  1.00  0.00     0.216 C 
HETATM   29  C23 UNL     1      28.363   0.278  55.008  1.00  0.00     0.042 C 
HETATM   30  N3  UNL     1      26.385   1.599  54.350  1.00  0.00     0.089 N 
HETATM   31  C24 UNL     1      25.172   1.464  53.554  1.00  0.00     0.305 C 
HETATM   32  H33 UNL     1      26.051   1.478  55.346  1.00  0.00     0.316 HD
ENDBRANCH  11  25
TORSDOF 4
ENDMDL
MODEL 3
REMARK VINA RESULT:      -7.8      2.282      5.845
REMARK  4 active torsions:
REMARK  status: ('A' for Active; 'I' for Inactive)
REMARK    1  A    between atoms: C3_3  and  C4_4 
REMARK    2  A    between atoms: C7_7  and  C8_8 
REMARK    3  A    between atoms: C8_8  and  N1_10 
REMARK    4  A    between atoms: N2_20  and  C19_21 
ROOT
HETATM    1  N1  UNL     1      22.233   2.993  50.671  1.00  0.00    -0.373 N 
HETATM    2  C10 UNL     1      23.350   2.066  50.639  1.00  0.00     0.139 C 
HETATM    3  C11 UNL     1      24.633   2.544  51.171  1.00  0.00     0.022 C 
HETATM    4  C12 UNL     1      25.151   3.815  50.654  1.00  0.00    -0.014 C 
HETATM    5  C13 UNL     1      24.568   5.029  50.630  1.00  0.00    -0.001 C 
HETATM    6  C14 UNL     1      23.204   5.232  51.176  1.00  0.00     0.024 C 
HETATM    7  C15 UNL     1      22.219   4.313  51.172  1.00  0.00     0.004 C 
HETATM    8  C16 UNL     1      20.904   4.642  51.771  1.00  0.00     0.068 C 
HETATM    9  C17 UNL     1      25.680   1.479  50.799  1.00  0.00     0.047 C 
HETATM   10  C18 UNL     1      26.770   1.851  51.768  1.00  0.00     0.274 C 
HETATM   11  N2  UNL     1      26.096   2.043  52.996  1.00  0.00     0.096 N 
HETATM   12  C25 UNL     1      24.753   2.464  52.676  1.00  0.00     0.288 C 
ENDROOT
BRANCH   1  13
HETATM   13  C8  UNL     1      21.167   2.267  50.073  1.00  0.00     0.129 C 
HETATM   14  C9  UNL     1      21.536   1.519  48.806  1.00  0.00     0.039 C 
BRANCH  13  15
HETATM   15  C7  UNL     1      20.237   1.510  50.917  1.00  0.00     0.028 C 
HETATM   16  C6  UNL     1      20.549   0.441  51.680  1.00  0.00     0.035 C 
HETATM   17  C5  UNL     1      19.429  -0.123  52.420  1.00  0.00    -0.039 C 
HETATM   18  C4  UNL     1      19.497  -0.990  53.415  1.00  0.00     0.008 C 
HETATM   19  C26 UNL     1      18.215   0.488  51.819  1.00  0.00     0.158 C 
HETATM   20  N4  UNL     1      18.822   1.644  51.188  1.00  0.00    -0.387 N 
HETATM   21  H38 UNL     1      18.310   2.528  50.932  1.00  0.00     0.159 HD
BRANCH  18  22
HETATM   22  C3  UNL     1      20.796  -1.471  53.866  1.00  0.00    -0.004 C 
HETATM   23  C2  UNL     1      21.449  -0.796  54.805  1.00  0.00    -0.031 C 
HETATM   24  C1  UNL     1      22.775  -1.253  55.290  1.00  0.00     0.036 C 
ENDBRANCH  18  22
ENDBRANCH  13  15
ENDBRANCH   1  13
BRANCH  11  25
HETATM   25  C19 UNL     1      26.026   0.890  53.846  1.00  0.00     0.251 C 
HETATM   26  C20 UNL     1      26.351  -0.403  53.146  1.00  0.00     0.040 C 
HETATM   27  C21 UNL     1      27.824  -0.522  52.792  1.00  0.00     0.037 C 
HETATM   28  C22 UNL     1      28.570  -0.459  54.111  1.00  0.00     0.216 C 
HETATM   29  C23 UNL     1      30.007  -0.791  53.856  1.00  0.00     0.042 C 
HETATM   30  N3  UNL     1      28.367   0.898  54.596  1.00  0.00     0.089 N 
HETATM   31  C24 UNL     1      26.975   0.987  55.019  1.00  0.00     0.305 C 
HETATM   32  H33 UNL     1      28.911   0.938  55.502  1.00  0.00     0.316 HD
ENDBRANCH  11  25
TORSDOF 4
ENDMDL
MODEL 4
REMARK VINA RESULT:      -7.5      2.857      6.584
REMARK  4 active torsions:
REMARK  status: ('A' for Active; 'I' for Inactive)
REMARK    1  A    between atoms: C3_3  and  C4_4 
REMARK    2  A    between atoms: C7_7  and  C8_8 
REMARK    3  A    between atoms: C8_8  and  N1_10 
REMARK    4  A    between atoms: N2_20  and  C19_21 
ROOT
HETATM    1  N1  UNL     1      21.687   2.552  50.878  1.00  0.00    -0.373 N 
HETATM    2  C10 UNL     1      22.956   1.859  50.738  1.00  0.00     0.139 C 
HETATM    3  C11 UNL     1      24.097   2.392  51.493  1.00  0.00     0.022 C 
HETATM    4  C12 UNL     1      24.400   3.820  51.347  1.00  0.00    -0.014 C 
HETATM    5  C13 UNL     1      23.607   4.888  51.555  1.00  0.00    -0.001 C 
HETATM    6  C14 UNL     1      22.201   4.721  51.995  1.00  0.00     0.024 C 
HETATM    7  C15 UNL     1      21.403   3.683  51.674  1.00  0.00     0.004 C 
HETATM    8  C16 UNL     1      20.019   3.630  52.200  1.00  0.00     0.068 C 
HETATM    9  C17 UNL     1      25.341   1.643  50.985  1.00  0.00     0.047 C 
HETATM   10  C18 UNL     1      26.289   1.933  52.118  1.00  0.00     0.274 C 
HETATM   11  N2  UNL     1      25.523   1.696  53.283  1.00  0.00     0.096 N 
HETATM   12  C25 UNL     1      24.146   1.957  52.940  1.00  0.00     0.288 C 
ENDROOT
BRANCH   1  13
HETATM   13  C8  UNL     1      20.808   1.834  50.022  1.00  0.00     0.129 C 
HETATM   14  C9  UNL     1      21.467   1.221  48.801  1.00  0.00     0.039 C 
BRANCH  13  15
HETATM   15  C7  UNL     1      19.779   0.963  50.598  1.00  0.00     0.028 C 
HETATM   16  C6  UNL     1      18.536   0.773  50.108  1.00  0.00     0.035 C 
HETATM   17  C5  UNL     1      17.715  -0.149  50.880  1.00  0.00    -0.039 C 
HETATM   18  C4  UNL     1      16.576  -0.701  50.498  1.00  0.00     0.008 C 
HETATM   19  C26 UNL     1      18.433  -0.329  52.168  1.00  0.00     0.158 C 
HETATM   20  N4  UNL     1      19.757   0.102  51.760  1.00  0.00    -0.387 N 
HETATM   21  H38 UNL     1      20.652  -0.167  52.244  1.00  0.00     0.159 HD
BRANCH  18  22
HETATM   22  C3  UNL     1      16.033  -0.397  49.181  1.00  0.00    -0.004 C 
HETATM   23  C2  UNL     1      15.706  -1.395  48.366  1.00  0.00    -0.031 C 
HETATM   24  C1  UNL     1      15.150  -1.126  47.017  1.00  0.00     0.036 C 
ENDBRANCH  18  22
ENDBRANCH  13  15
ENDBRANCH   1  13
BRANCH  11  25
HETATM   25  C19 UNL     1      25.619   0.371  53.824  1.00  0.00     0.251 C 
HETATM   26  C20 UNL     1      26.247  -0.624  52.885  1.00  0.00     0.040 C 
HETATM   27  C21 UNL     1      27.738  -0.392  52.699  1.00  0.00     0.037 C 
HETATM   28  C22 UNL     1      28.353  -0.537  54.077  1.00  0.00     0.216 C 
HETATM   29  C23 UNL     1      29.842  -0.539  53.930  1.00  0.00     0.042 C 
HETATM   30  N3  UNL     1      27.847   0.596  54.838  1.00  0.00     0.089 N 
HETATM   31  C24 UNL     1      26.437   0.331  55.095  1.00  0.00     0.305 C 
HETATM   32  H33 UNL     1      28.301   0.498  55.788  1.00  0.00     0.316 HD
ENDBRANCH  11  25
TORSDOF 4
ENDMDL
MODEL 5
REMARK VINA RESULT:      -7.3      3.024      8.128
REMARK  4 active torsions:
REMARK  status: ('A' for Active; 'I' for Inactive)
REMARK    1  A    between atoms: C3_3  and  C4_4 
REMARK    2  A    between atoms: C7_7  and  C8_8 
REMARK    3  A    between atoms: C8_8  and  N1_10 
REMARK    4  A    between atoms: N2_20  and  C19_21 
ROOT
HETATM    1  N1  UNL     1      24.067   5.336  49.619  1.00  0.00    -0.373 N 
HETATM    2  C10 UNL     1      24.667   5.929  48.436  1.00  0.00     0.139 C 
HETATM    3  C11 UNL     1      24.735   7.395  48.383  1.00  0.00     0.022 C 
HETATM    4  C12 UNL     1      23.495   8.141  48.621  1.00  0.00    -0.014 C 
HETATM    5  C13 UNL     1      22.659   8.096  49.676  1.00  0.00    -0.001 C 
HETATM    6  C14 UNL     1      22.927   7.197  50.825  1.00  0.00     0.024 C 
HETATM    7  C15 UNL     1      23.546   6.002  50.750  1.00  0.00     0.004 C 
HETATM    8  C16 UNL     1      23.769   5.211  51.983  1.00  0.00     0.068 C 
HETATM    9  C17 UNL     1      25.177   7.756  46.954  1.00  0.00     0.047 C 
HETATM   10  C18 UNL     1      25.639   9.170  47.184  1.00  0.00     0.274 C 
HETATM   11  N2  UNL     1      26.417   9.096  48.363  1.00  0.00     0.096 N 
HETATM   12  C25 UNL     1      25.899   7.994  49.139  1.00  0.00     0.288 C 
ENDROOT
BRANCH   1  13
HETATM   13  C8  UNL     1      24.118   3.939  49.366  1.00  0.00     0.129 C 
HETATM   14  C9  UNL     1      25.388   3.252  49.833  1.00  0.00     0.039 C 
BRANCH  13  15
HETATM   15  C7  UNL     1      22.926   3.114  49.582  1.00  0.00     0.028 C 
HETATM   16  C6  UNL     1      22.852   2.014  50.360  1.00  0.00     0.035 C 
HETATM   17  C5  UNL     1      21.541   1.383  50.397  1.00  0.00    -0.039 C 
HETATM   18  C4  UNL     1      21.130   0.465  51.254  1.00  0.00     0.008 C 
HETATM   19  C26 UNL     1      20.781   1.995  49.276  1.00  0.00     0.158 C 
HETATM   20  N4  UNL     1      21.568   3.199  49.088  1.00  0.00    -0.387 N 
HETATM   21  H38 UNL     1      21.218   4.082  48.634  1.00  0.00     0.159 HD
BRANCH  18  22
HETATM   22  C3  UNL     1      22.034  -0.007  52.294  1.00  0.00    -0.004 C 
HETATM   23  C2  UNL     1      21.530  -0.457  53.439  1.00  0.00    -0.031 C 
HETATM   24  C1  UNL     1      22.417  -0.946  54.523  1.00  0.00     0.036 C 
ENDBRANCH  18  22
ENDBRANCH  13  15
ENDBRANCH   1  13
BRANCH  11  25
HETATM   25  C19 UNL     1      27.823   8.895  48.160  1.00  0.00     0.251 C 
HETATM   26  C20 UNL     1      28.410   9.758  47.076  1.00  0.00     0.040 C 
HETATM   27  C21 UNL     1      28.488  11.223  47.472  1.00  0.00     0.037 C 
HETATM   28  C22 UNL     1      29.381  11.271  48.698  1.00  0.00     0.216 C 
HETATM   29  C23 UNL     1      29.677  12.704  49.008  1.00  0.00     0.042 C 
HETATM   30  N3  UNL     1      28.625  10.596  49.742  1.00  0.00     0.089 N 
HETATM   31  C24 UNL     1      28.626   9.177  49.410  1.00  0.00     0.305 C 
HETATM   32  H33 UNL     1      29.245  10.658  50.597  1.00  0.00     0.316 HD
ENDBRANCH  11  25
TORSDOF 4
ENDMDL
MODEL 6
REMARK VINA RESULT:      -7.3      3.886      7.177
REMARK  4 active torsions:
REMARK  status: ('A' for Active; 'I' for Inactive)
REMARK    1  A    between atoms: C3_3  and  C4_4 
REMARK    2  A    between atoms: C7_7  and  C8_8 
REMARK    3  A    between atoms: C8_8  and  N1_10 
REMARK    4  A    between atoms: N2_20  and  C19_21 
ROOT
HETATM    1  N1  UNL     1      20.954   2.180  50.469  1.00  0.00    -0.373 N 
HETATM    2  C10 UNL     1      19.631   2.101  49.875  1.00  0.00     0.139 C 
HETATM    3  C11 UNL     1      18.547   1.584  50.720  1.00  0.00     0.022 C 
HETATM    4  C12 UNL     1      18.763   0.299  51.393  1.00  0.00    -0.014 C 
HETATM    5  C13 UNL     1      19.755  -0.075  52.223  1.00  0.00    -0.001 C 
HETATM    6  C14 UNL     1      20.844   0.865  52.584  1.00  0.00     0.024 C 
HETATM    7  C15 UNL     1      21.333   1.833  51.784  1.00  0.00     0.004 C 
HETATM    8  C16 UNL     1      22.414   2.719  52.278  1.00  0.00     0.068 C 
HETATM    9  C17 UNL     1      17.336   1.378  49.794  1.00  0.00     0.047 C 
HETATM   10  C18 UNL     1      16.240   1.314  50.824  1.00  0.00     0.274 C 
HETATM   11  N2  UNL     1      16.517   2.392  51.696  1.00  0.00     0.096 N 
HETATM   12  C25 UNL     1      17.944   2.608  51.656  1.00  0.00     0.288 C 
ENDROOT
BRANCH   1  13
HETATM   13  C8  UNL     1      21.773   2.676  49.418  1.00  0.00     0.129 C 
HETATM   14  C9  UNL     1      21.452   2.122  48.044  1.00  0.00     0.039 C 
BRANCH  13  15
HETATM   15  C7  UNL     1      22.125   4.099  49.378  1.00  0.00     0.028 C 
HETATM   16  C6  UNL     1      23.359   4.604  49.173  1.00  0.00     0.035 C 
HETATM   17  C5  UNL     1      23.428   6.059  49.181  1.00  0.00    -0.039 C 
HETATM   18  C4  UNL     1      24.437   6.804  48.764  1.00  0.00     0.008 C 
HETATM   19  C26 UNL     1      22.132   6.509  49.751  1.00  0.00     0.158 C 
HETATM   20  N4  UNL     1      21.347   5.310  49.524  1.00  0.00    -0.387 N 
HETATM   21  H38 UNL     1      20.296   5.282  49.464  1.00  0.00     0.159 HD
BRANCH  18  22
HETATM   22  C3  UNL     1      25.632   6.166  48.229  1.00  0.00    -0.004 C 
HETATM   23  C2  UNL     1      26.659   5.927  49.038  1.00  0.00    -0.031 C 
HETATM   24  C1  UNL     1      27.895   5.280  48.531  1.00  0.00     0.036 C 
ENDBRANCH  18  22
ENDBRANCH  13  15
ENDBRANCH   1  13
BRANCH  11  25
HETATM   25  C19 UNL     1      15.857   3.625  51.379  1.00  0.00     0.251 C 
HETATM   26  C20 UNL     1      14.401   3.464  51.031  1.00  0.00     0.040 C 
HETATM   27  C21 UNL     1      13.549   3.102  52.236  1.00  0.00     0.037 C 
HETATM   28  C22 UNL     1      13.712   4.249  53.216  1.00  0.00     0.216 C 
HETATM   29  C23 UNL     1      12.729   4.062  54.327  1.00  0.00     0.042 C 
HETATM   30  N3  UNL     1      15.099   4.180  53.650  1.00  0.00     0.089 N 
HETATM   31  C24 UNL     1      15.913   4.614  52.522  1.00  0.00     0.305 C 
HETATM   32  H33 UNL     1      15.194   4.968  54.350  1.00  0.00     0.316 HD
ENDBRANCH  11  25
TORSDOF 4
ENDMDL
MODEL 7
REMARK VINA RESULT:      -7.2      2.610      6.563
REMARK  4 active torsions:
REMARK  status: ('A' for Active; 'I' for Inactive)
REMARK    1  A    between atoms: C3_3  and  C4_4 
REMARK    2  A    between atoms: C7_7  and  C8_8 
REMARK    3  A    between atoms: C8_8  and  N1_10 
REMARK    4  A    between atoms: N2_20  and  C19_21 
ROOT
HETATM    1  N1  UNL     1      24.189   3.593  50.730  1.00  0.00    -0.373 N 
HETATM    2  C10 UNL     1      23.557   3.395  49.437  1.00  0.00     0.139 C 
HETATM    3  C11 UNL     1      22.255   2.715  49.426  1.00  0.00     0.022 C 
HETATM    4  C12 UNL     1      22.154   1.429  50.124  1.00  0.00    -0.014 C 
HETATM    5  C13 UNL     1      22.438   1.127  51.405  1.00  0.00    -0.001 C 
HETATM    6  C14 UNL     1      22.934   2.165  52.342  1.00  0.00     0.024 C 
HETATM    7  C15 UNL     1      23.695   3.223  52.000  1.00  0.00     0.004 C 
HETATM    8  C16 UNL     1      24.107   4.198  53.037  1.00  0.00     0.068 C 
HETATM    9  C17 UNL     1      21.933   2.421  47.951  1.00  0.00     0.047 C 
HETATM   10  C18 UNL     1      20.451   2.180  48.060  1.00  0.00     0.274 C 
HETATM   11  N2  UNL     1      19.985   3.235  48.878  1.00  0.00     0.096 N 
HETATM   12  C25 UNL     1      21.080   3.613  49.740  1.00  0.00     0.288 C 
ENDROOT
BRANCH   1  13
HETATM   13  C8  UNL     1      25.419   4.233  50.416  1.00  0.00     0.129 C 
HETATM   14  C9  UNL     1      26.357   3.419  49.545  1.00  0.00     0.039 C 
BRANCH  13  15
HETATM   15  C7  UNL     1      25.432   5.658  50.071  1.00  0.00     0.028 C 
HETATM   16  C6  UNL     1      25.332   6.174  48.829  1.00  0.00     0.035 C 
HETATM   17  C5  UNL     1      25.374   7.628  48.771  1.00  0.00    -0.039 C 
HETATM   18  C4  UNL     1      25.049   8.387  47.739  1.00  0.00     0.008 C 
HETATM   19  C26 UNL     1      25.851   8.060  50.110  1.00  0.00     0.158 C 
HETATM   20  N4  UNL     1      25.541   6.862  50.867  1.00  0.00    -0.387 N 
HETATM   21  H38 UNL     1      25.401   6.828  51.910  1.00  0.00     0.159 HD
BRANCH  18  22
HETATM   22  C3  UNL     1      24.595   7.767  46.501  1.00  0.00    -0.004 C 
HETATM   23  C2  UNL     1      24.844   8.369  45.343  1.00  0.00    -0.031 C 
HETATM   24  C1  UNL     1      24.398   7.770  44.061  1.00  0.00     0.036 C 
ENDBRANCH  18  22
ENDBRANCH  13  15
ENDBRANCH   1  13
BRANCH  11  25
HETATM   25  C19 UNL     1      19.528   4.400  48.177  1.00  0.00     0.251 C 
HETATM   26  C20 UNL     1      18.518   4.105  47.101  1.00  0.00     0.040 C 
HETATM   27  C21 UNL     1      17.169   3.687  47.664  1.00  0.00     0.037 C 
HETATM   28  C22 UNL     1      16.691   4.859  48.501  1.00  0.00     0.216 C 
HETATM   29  C23 UNL     1      15.273   4.602  48.904  1.00  0.00     0.042 C 
HETATM   30  N3  UNL     1      17.612   4.919  49.626  1.00  0.00     0.089 N 
HETATM   31  C24 UNL     1      18.882   5.406  49.102  1.00  0.00     0.305 C 
HETATM   32  H33 UNL     1      17.255   5.722  50.215  1.00  0.00     0.316 HD
ENDBRANCH  11  25
TORSDOF 4
ENDMDL
MODEL 8
REMARK VINA RESULT:      -7.2      4.451      8.296
REMARK  4 active torsions:
REMARK  status: ('A' for Active; 'I' for Inactive)
REMARK    1  A    between atoms: C3_3  and  C4_4 
REMARK    2  A    between atoms: C7_7  and  C8_8 
REMARK    3  A    between atoms: C8_8  and  N1_10 
REMARK    4  A    between atoms: N2_20  and  C19_21 
ROOT
HETATM    1  N1  UNL     1      20.077   0.752  51.524  1.00  0.00    -0.373 N 
HETATM    2  C10 UNL     1      19.032   1.141  50.593  1.00  0.00     0.139 C 
HETATM    3  C11 UNL     1      17.647   0.841  50.977  1.00  0.00     0.022 C 
HETATM    4  C12 UNL     1      17.336  -0.535  51.378  1.00  0.00    -0.014 C 
HETATM    5  C13 UNL     1      17.897  -1.293  52.339  1.00  0.00    -0.001 C 
HETATM    6  C14 UNL     1      18.999  -0.767  53.181  1.00  0.00     0.024 C 
HETATM    7  C15 UNL     1      19.926   0.125  52.781  1.00  0.00     0.004 C 
HETATM    8  C16 UNL     1      20.965   0.584  53.733  1.00  0.00     0.068 C 
HETATM    9  C17 UNL     1      16.783   1.126  49.737  1.00  0.00     0.047 C 
HETATM   10  C18 UNL     1      15.431   1.232  50.392  1.00  0.00     0.274 C 
HETATM   11  N2  UNL     1      15.655   2.048  51.525  1.00  0.00     0.096 N 
HETATM   12  C25 UNL     1      17.029   1.849  51.920  1.00  0.00     0.288 C 
ENDROOT
BRANCH   1  13
HETATM   13  C8  UNL     1      21.279   1.138  50.872  1.00  0.00     0.129 C 
HETATM   14  C9  UNL     1      21.321   0.843  49.385  1.00  0.00     0.039 C 
BRANCH  13  15
HETATM   15  C7  UNL     1      21.911   2.419  51.205  1.00  0.00     0.028 C 
HETATM   16  C6  UNL     1      21.560   3.627  50.717  1.00  0.00     0.035 C 
HETATM   17  C5  UNL     1      22.358   4.738  51.217  1.00  0.00    -0.039 C 
HETATM   18  C4  UNL     1      22.076   6.024  51.106  1.00  0.00     0.008 C 
HETATM   19  C26 UNL     1      23.536   4.111  51.870  1.00  0.00     0.158 C 
HETATM   20  N4  UNL     1      23.005   2.778  52.081  1.00  0.00    -0.387 N 
HETATM   21  H38 UNL     1      23.360   2.096  52.801  1.00  0.00     0.159 HD
BRANCH  18  22
HETATM   22  C3  UNL     1      20.858   6.441  50.425  1.00  0.00    -0.004 C 
HETATM   23  C2  UNL     1      20.923   7.389  49.496  1.00  0.00    -0.031 C 
HETATM   24  C1  UNL     1      19.705   7.841  48.781  1.00  0.00     0.036 C 
ENDBRANCH  18  22
ENDBRANCH  13  15
ENDBRANCH   1  13
BRANCH  11  25
HETATM   25  C19 UNL     1      15.433   3.451  51.325  1.00  0.00     0.251 C 
HETATM   26  C20 UNL     1      14.045   3.785  50.846  1.00  0.00     0.040 C 
HETATM   27  C21 UNL     1      12.991   3.581  51.921  1.00  0.00     0.037 C 
HETATM   28  C22 UNL     1      13.373   4.513  53.055  1.00  0.00     0.216 C 
HETATM   29  C23 UNL     1      12.257   4.524  54.051  1.00  0.00     0.042 C 
HETATM   30  N3  UNL     1      14.617   3.973  53.584  1.00  0.00     0.089 N 
HETATM   31  C24 UNL     1      15.648   4.249  52.592  1.00  0.00     0.305 C 
HETATM   32  H33 UNL     1      14.860   4.615  54.388  1.00  0.00     0.316 HD
ENDBRANCH  11  25
TORSDOF 4
ENDMDL
MODEL 9
REMARK VINA RESULT:      -7.2      2.332      8.036
REMARK  4 active torsions:
REMARK  status: ('A' for Active; 'I' for Inactive)
REMARK    1  A    between atoms: C3_3  and  C4_4 
REMARK    2  A    between atoms: C7_7  and  C8_8 
REMARK    3  A    between atoms: C8_8  and  N1_10 
REMARK    4  A    between atoms: N2_20  and  C19_21 
ROOT
HETATM    1  N1  UNL     1      24.676   4.013  51.067  1.00  0.00    -0.373 N 
HETATM    2  C10 UNL     1      23.568   4.884  50.719  1.00  0.00     0.139 C 
HETATM    3  C11 UNL     1      23.607   5.523  49.397  1.00  0.00     0.022 C 
HETATM    4  C12 UNL     1      24.824   6.255  49.033  1.00  0.00    -0.014 C 
HETATM    5  C13 UNL     1      26.101   5.830  49.001  1.00  0.00    -0.001 C 
HETATM    6  C14 UNL     1      26.451   4.436  49.368  1.00  0.00     0.024 C 
HETATM    7  C15 UNL     1      25.798   3.683  50.276  1.00  0.00     0.004 C 
HETATM    8  C16 UNL     1      26.242   2.293  50.534  1.00  0.00     0.068 C 
HETATM    9  C17 UNL     1      22.470   6.559  49.383  1.00  0.00     0.047 C 
HETATM   10  C18 UNL     1      22.340   6.768  47.898  1.00  0.00     0.274 C 
HETATM   11  N2  UNL     1      22.358   5.461  47.358  1.00  0.00     0.096 N 
HETATM   12  C25 UNL     1      23.126   4.643  48.265  1.00  0.00     0.288 C 
ENDROOT
BRANCH   1  13
HETATM   13  C8  UNL     1      24.373   3.582  52.387  1.00  0.00     0.129 C 
HETATM   14  C9  UNL     1      23.757   4.644  53.279  1.00  0.00     0.039 C 
BRANCH  13  15
HETATM   15  C7  UNL     1      23.780   2.259  52.605  1.00  0.00     0.028 C 
HETATM   16  C6  UNL     1      22.471   1.948  52.495  1.00  0.00     0.035 C 
HETATM   17  C5  UNL     1      22.154   0.554  52.767  1.00  0.00    -0.039 C 
HETATM   18  C4  UNL     1      21.020  -0.066  52.492  1.00  0.00     0.008 C 
HETATM   19  C26 UNL     1      23.372  -0.007  53.407  1.00  0.00     0.158 C 
HETATM   20  N4  UNL     1      24.343   0.976  52.966  1.00  0.00    -0.387 N 
HETATM   21  H38 UNL     1      25.380   0.809  52.901  1.00  0.00     0.159 HD
BRANCH  18  22
HETATM   22  C3  UNL     1      19.934   0.665  51.852  1.00  0.00    -0.004 C 
HETATM   23  C2  UNL     1      18.874  -0.002  51.408  1.00  0.00    -0.031 C 
HETATM   24  C1  UNL     1      17.749   0.706  50.749  1.00  0.00     0.036 C 
ENDBRANCH  18  22
ENDBRANCH  13  15
ENDBRANCH   1  13
BRANCH  11  25
HETATM   25  C19 UNL     1      21.071   4.856  47.170  1.00  0.00     0.251 C 
HETATM   26  C20 UNL     1      20.109   5.703  46.382  1.00  0.00     0.040 C 
HETATM   27  C21 UNL     1      20.484   5.800  44.912  1.00  0.00     0.037 C 
HETATM   28  C22 UNL     1      20.456   4.378  44.385  1.00  0.00     0.216 C 
HETATM   29  C23 UNL     1      20.599   4.424  42.897  1.00  0.00     0.042 C 
HETATM   30  N3  UNL     1      21.560   3.705  45.054  1.00  0.00     0.089 N 
HETATM   31  C24 UNL     1      21.163   3.532  46.446  1.00  0.00     0.305 C 
HETATM   32  H33 UNL     1      21.545   2.723  44.662  1.00  0.00     0.316 HD
ENDBRANCH  11  25
TORSDOF 4
ENDMDL
