MODEL 1
REMARK VINA RESULT:      -7.3      0.000      0.000
REMARK  5 active torsions:
REMARK  status: ('A' for Active; 'I' for Inactive)
REMARK    1  A    between atoms: O1_2  and  C2_3 
REMARK    2  A    between atoms: C11_16  and  N5_17 
REMARK    3  A    between atoms: N5_17  and  C13_19 
REMARK    4  A    between atoms: C13_19  and  C14_20 
REMARK    5  A    between atoms: C14_20  and  N6_21 
ROOT
HETATM    1  C2  UNL     1      22.306  -0.585  54.009  1.00  0.00     0.068 C 
HETATM    2  C3  UNL     1      23.503  -0.830  54.559  1.00  0.00     0.120 C 
HETATM    3  N1  UNL     1      24.940  -0.761  54.673  1.00  0.00    -0.364 N 
HETATM    4  C4  UNL     1      25.787  -0.153  55.728  1.00  0.00     0.273 C 
HETATM    5  N2  UNL     1      27.024  -0.032  55.012  1.00  0.00    -0.277 NA
HETATM    6  C5  UNL     1      26.870  -0.070  53.769  1.00  0.00     0.032 C 
HETATM    7  C6  UNL     1      25.978  -1.262  53.779  1.00  0.00     0.178 C 
HETATM    8  C7  UNL     1      27.305   0.696  52.529  1.00  0.00     0.061 A 
HETATM    9  C8  UNL     1      26.825   0.284  51.214  1.00  0.00     0.041 A 
HETATM   10  C9  UNL     1      26.123   1.360  51.904  1.00  0.00     0.119 A 
HETATM   11  N3  UNL     1      26.358   2.759  51.643  1.00  0.00    -0.279 NA
HETATM   12  C10 UNL     1      25.607   3.327  50.805  1.00  0.00     0.202 C 
HETATM   13  N4  UNL     1      24.593   3.558  49.852  1.00  0.00    -0.337 N 
HETATM   14  C11 UNL     1      23.530   4.474  49.746  1.00  0.00     0.111 C 
HETATM   15  C17 UNL     1      22.362   3.857  49.642  1.00  0.00     0.006 C 
HETATM   16  C18 UNL     1      22.378   2.877  48.733  1.00  0.00     0.111 C 
HETATM   17  C19 UNL     1      22.556   2.077  49.933  1.00  0.00     0.360 A 
HETATM   18  O2  UNL     1      23.030   1.444  50.900  1.00  0.00    -0.149 OA
HETATM   19  N7  UNL     1      21.573   1.450  50.813  1.00  0.00     0.094 N 
HETATM   20  C20 UNL     1      21.252   0.649  51.990  1.00  0.00     0.270 C 
HETATM   21  C21 UNL     1      22.335   0.248  52.748  1.00  0.00     0.092 C 
HETATM   22  H14 UNL     1      24.696   2.908  49.056  1.00  0.00     0.168 HD
HETATM   23  H29 UNL     1      20.721   1.791  50.256  1.00  0.00     0.322 HD
ENDROOT
BRANCH  14  24
HETATM   24  N5  UNL     1      24.324   5.647  49.799  1.00  0.00    -0.369 N 
HETATM   25  C12 UNL     1      24.309   6.494  51.000  1.00  0.00     0.151 C 
BRANCH  24  26
HETATM   26  C13 UNL     1      25.146   6.055  48.683  1.00  0.00     0.154 C 
BRANCH  26  27
HETATM   27  C14 UNL     1      26.340   6.856  49.074  1.00  0.00     0.291 C 
BRANCH  27  28
HETATM   28  N6  UNL     1      27.512   6.504  48.268  1.00  0.00     0.081 N 
HETATM   29  C15 UNL     1      28.588   7.454  48.548  1.00  0.00     0.309 C 
HETATM   30  C16 UNL     1      27.926   5.142  48.508  1.00  0.00     0.309 C 
ENDBRANCH  27  28
ENDBRANCH  26  27
ENDBRANCH  24  26
ENDBRANCH  14  24
BRANCH   1  31
HETATM   31  O1  UNL     1      21.393  -1.272  54.911  1.00  0.00    -0.358 OA
HETATM   32  C1  UNL     1      20.259  -1.774  54.210  1.00  0.00     0.209 C 
ENDBRANCH   1  31
TORSDOF 5
ENDMDL
MODEL 2
REMARK VINA RESULT:      -7.1      2.367      6.680
REMARK  5 active torsions:
REMARK  status: ('A' for Active; 'I' for Inactive)
REMARK    1  A    between atoms: O1_2  and  C2_3 
REMARK    2  A    between atoms: C11_16  and  N5_17 
REMARK    3  A    between atoms: N5_17  and  C13_19 
REMARK    4  A    between atoms: C13_19  and  C14_20 
REMARK    5  A    between atoms: C14_20  and  N6_21 
ROOT
HETATM    1  C2  UNL     1      20.024   2.537  48.981  1.00  0.00     0.068 C 
HETATM    2  C3  UNL     1      20.660   3.653  48.600  1.00  0.00     0.120 C 
HETATM    3  N1  UNL     1      21.649   4.701  48.686  1.00  0.00    -0.364 N 
HETATM    4  C4  UNL     1      22.755   5.049  47.762  1.00  0.00     0.273 C 
HETATM    5  N2  UNL     1      23.575   5.829  48.642  1.00  0.00    -0.277 NA
HETATM    6  C5  UNL     1      23.330   5.613  49.852  1.00  0.00     0.032 C 
HETATM    7  C6  UNL     1      21.852   5.718  49.712  1.00  0.00     0.178 C 
HETATM    8  C7  UNL     1      24.075   5.317  51.145  1.00  0.00     0.061 A 
HETATM    9  C8  UNL     1      23.329   5.091  52.378  1.00  0.00     0.041 A 
HETATM   10  C9  UNL     1      23.759   3.932  51.605  1.00  0.00     0.119 A 
HETATM   11  N3  UNL     1      24.949   3.173  51.904  1.00  0.00    -0.279 NA
HETATM   12  C10 UNL     1      24.817   2.153  52.634  1.00  0.00     0.202 C 
HETATM   13  N4  UNL     1      24.249   1.144  53.440  1.00  0.00    -0.337 N 
HETATM   14  C11 UNL     1      24.251  -0.264  53.404  1.00  0.00     0.111 C 
HETATM   15  C17 UNL     1      23.021  -0.751  53.341  1.00  0.00     0.006 C 
HETATM   16  C18 UNL     1      22.201  -0.193  54.238  1.00  0.00     0.111 C 
HETATM   17  C19 UNL     1      21.821   0.582  53.069  1.00  0.00     0.360 A 
HETATM   18  O2  UNL     1      21.737   1.448  52.173  1.00  0.00    -0.149 OA
HETATM   19  N7  UNL     1      20.795   0.340  52.059  1.00  0.00     0.094 N 
HETATM   20  C20 UNL     1      20.092   0.738  50.843  1.00  0.00     0.270 C 
HETATM   21  C21 UNL     1      20.556   1.891  50.239  1.00  0.00     0.092 C 
HETATM   22  H14 UNL     1      23.748   1.564  54.238  1.00  0.00     0.168 HD
HETATM   23  H29 UNL     1      20.453  -0.580  52.495  1.00  0.00     0.322 HD
ENDROOT
BRANCH  14  24
HETATM   24  N5  UNL     1      25.657  -0.424  53.467  1.00  0.00    -0.369 N 
HETATM   25  C12 UNL     1      26.340  -1.331  52.535  1.00  0.00     0.151 C 
BRANCH  24  26
HETATM   26  C13 UNL     1      26.454   0.274  54.451  1.00  0.00     0.154 C 
BRANCH  26  27
HETATM   27  C14 UNL     1      27.876  -0.167  54.499  1.00  0.00     0.291 C 
BRANCH  27  28
HETATM   28  N6  UNL     1      28.692   0.538  53.505  1.00  0.00     0.081 N 
HETATM   29  C15 UNL     1      28.652   1.972  53.785  1.00  0.00     0.309 C 
HETATM   30  C16 UNL     1      30.044   0.034  53.481  1.00  0.00     0.309 C 
ENDBRANCH  27  28
ENDBRANCH  26  27
ENDBRANCH  24  26
ENDBRANCH  14  24
BRANCH   1  31
HETATM   31  O1  UNL     1      18.999   2.388  47.958  1.00  0.00    -0.358 OA
HETATM   32  C1  UNL     1      17.723   2.792  48.445  1.00  0.00     0.209 C 
ENDBRANCH   1  31
TORSDOF 5
ENDMDL
MODEL 3
REMARK VINA RESULT:      -6.9      1.913      2.613
REMARK  5 active torsions:
REMARK  status: ('A' for Active; 'I' for Inactive)
REMARK    1  A    between atoms: O1_2  and  C2_3 
REMARK    2  A    between atoms: C11_16  and  N5_17 
REMARK    3  A    between atoms: N5_17  and  C13_19 
REMARK    4  A    between atoms: C13_19  and  C14_20 
REMARK    5  A    between atoms: C14_20  and  N6_21 
ROOT
HETATM    1  C2  UNL     1      23.034  -0.145  52.961  1.00  0.00     0.068 C 
HETATM    2  C3  UNL     1      24.327   0.056  53.251  1.00  0.00     0.120 C 
HETATM    3  N1  UNL     1      25.625   0.673  53.127  1.00  0.00    -0.364 N 
HETATM    4  C4  UNL     1      26.398   1.478  54.103  1.00  0.00     0.273 C 
HETATM    5  N2  UNL     1      27.314   2.131  53.214  1.00  0.00    -0.277 NA
HETATM    6  C5  UNL     1      26.917   2.134  52.026  1.00  0.00     0.032 C 
HETATM    7  C6  UNL     1      26.551   0.691  52.000  1.00  0.00     0.178 C 
HETATM    8  C7  UNL     1      26.758   3.105  50.866  1.00  0.00     0.061 A 
HETATM    9  C8  UNL     1      26.187   2.644  49.605  1.00  0.00     0.041 A 
HETATM   10  C9  UNL     1      25.308   3.301  50.566  1.00  0.00     0.119 A 
HETATM   11  N3  UNL     1      24.950   4.696  50.492  1.00  0.00    -0.279 NA
HETATM   12  C10 UNL     1      23.878   4.988  49.895  1.00  0.00     0.202 C 
HETATM   13  N4  UNL     1      22.668   4.878  49.178  1.00  0.00    -0.337 N 
HETATM   14  C11 UNL     1      21.347   5.310  49.402  1.00  0.00     0.111 C 
HETATM   15  C17 UNL     1      20.496   4.295  49.404  1.00  0.00     0.006 C 
HETATM   16  C18 UNL     1      20.672   3.475  48.363  1.00  0.00     0.111 C 
HETATM   17  C19 UNL     1      21.389   2.715  49.373  1.00  0.00     0.360 A 
HETATM   18  O2  UNL     1      22.262   2.245  50.132  1.00  0.00    -0.149 OA
HETATM   19  N7  UNL     1      20.924   1.686  50.298  1.00  0.00     0.094 N 
HETATM   20  C20 UNL     1      21.186   0.733  51.372  1.00  0.00     0.270 C 
HETATM   21  C21 UNL     1      22.478   0.729  51.860  1.00  0.00     0.092 C 
HETATM   22  H14 UNL     1      22.826   4.387  48.284  1.00  0.00     0.168 HD
HETATM   23  H29 UNL     1      19.906   1.709  49.956  1.00  0.00     0.322 HD
ENDROOT
BRANCH  14  24
HETATM   24  N5  UNL     1      21.645   6.692  49.503  1.00  0.00    -0.369 N 
HETATM   25  C12 UNL     1      21.483   7.390  50.785  1.00  0.00     0.151 C 
BRANCH  24  26
HETATM   26  C13 UNL     1      22.093   7.454  48.359  1.00  0.00     0.154 C 
BRANCH  26  27
HETATM   27  C14 UNL     1      22.714   8.762  48.711  1.00  0.00     0.291 C 
BRANCH  27  28
HETATM   28  N6  UNL     1      24.152   8.767  48.431  1.00  0.00     0.081 N 
HETATM   29  C15 UNL     1      24.883   8.586  49.684  1.00  0.00     0.309 C 
HETATM   30  C16 UNL     1      24.504   7.763  47.456  1.00  0.00     0.309 C 
ENDBRANCH  27  28
ENDBRANCH  26  27
ENDBRANCH  24  26
ENDBRANCH  14  24
BRANCH   1  31
HETATM   31  O1  UNL     1      22.658  -1.204  53.886  1.00  0.00    -0.358 OA
HETATM   32  C1  UNL     1      21.677  -0.752  54.814  1.00  0.00     0.209 C 
ENDBRANCH   1  31
TORSDOF 5
ENDMDL
MODEL 4
REMARK VINA RESULT:      -6.9      5.735      9.202
REMARK  5 active torsions:
REMARK  status: ('A' for Active; 'I' for Inactive)
REMARK    1  A    between atoms: O1_2  and  C2_3 
REMARK    2  A    between atoms: C11_16  and  N5_17 
REMARK    3  A    between atoms: N5_17  and  C13_19 
REMARK    4  A    between atoms: C13_19  and  C14_20 
REMARK    5  A    between atoms: C14_20  and  N6_21 
ROOT
HETATM    1  C2  UNL     1      13.902   3.518  52.642  1.00  0.00     0.068 C 
HETATM    2  C3  UNL     1      13.208   2.377  52.759  1.00  0.00     0.120 C 
HETATM    3  N1  UNL     1      13.005   0.948  52.725  1.00  0.00    -0.364 N 
HETATM    4  C4  UNL     1      12.656   0.007  53.816  1.00  0.00     0.273 C 
HETATM    5  N2  UNL     1      13.063  -1.230  53.215  1.00  0.00    -0.277 NA
HETATM    6  C5  UNL     1      13.873  -1.066  52.273  1.00  0.00     0.032 C 
HETATM    7  C6  UNL     1      13.094   0.014  51.609  1.00  0.00     0.178 C 
HETATM    8  C7  UNL     1      15.204  -1.620  51.787  1.00  0.00     0.061 A 
HETATM    9  C8  UNL     1      15.825  -1.071  50.586  1.00  0.00     0.041 A 
HETATM   10  C9  UNL     1      16.256  -0.564  51.883  1.00  0.00     0.119 A 
HETATM   11  N3  UNL     1      17.437  -1.032  52.568  1.00  0.00    -0.279 NA
HETATM   12  C10 UNL     1      18.504  -0.384  52.392  1.00  0.00     0.202 C 
HETATM   13  N4  UNL     1      19.429   0.580  51.941  1.00  0.00    -0.337 N 
HETATM   14  C11 UNL     1      20.312   1.474  52.577  1.00  0.00     0.111 C 
HETATM   15  C17 UNL     1      20.067   2.729  52.233  1.00  0.00     0.006 C 
HETATM   16  C18 UNL     1      19.937   2.883  50.911  1.00  0.00     0.111 C 
HETATM   17  C19 UNL     1      18.530   2.839  51.274  1.00  0.00     0.360 A 
HETATM   18  O2  UNL     1      17.366   2.474  51.536  1.00  0.00    -0.149 OA
HETATM   19  N7  UNL     1      17.608   3.909  51.641  1.00  0.00     0.094 N 
HETATM   20  C20 UNL     1      16.278   4.356  52.044  1.00  0.00     0.270 C 
HETATM   21  C21 UNL     1      15.346   3.353  52.230  1.00  0.00     0.092 C 
HETATM   22  H14 UNL     1      19.459   0.592  50.909  1.00  0.00     0.168 HD
HETATM   23  H29 UNL     1      18.334   4.694  51.541  1.00  0.00     0.322 HD
ENDROOT
BRANCH  14  24
HETATM   24  N5  UNL     1      21.047   0.493  53.288  1.00  0.00    -0.369 N 
HETATM   25  C12 UNL     1      20.808   0.286  54.722  1.00  0.00     0.151 C 
BRANCH  24  26
HETATM   26  C13 UNL     1      22.058  -0.312  52.639  1.00  0.00     0.154 C 
BRANCH  26  27
HETATM   27  C14 UNL     1      23.342  -0.388  53.390  1.00  0.00     0.291 C 
BRANCH  27  28
HETATM   28  N6  UNL     1      24.416   0.327  52.695  1.00  0.00     0.081 N 
HETATM   29  C15 UNL     1      24.343   1.747  53.035  1.00  0.00     0.309 C 
HETATM   30  C16 UNL     1      25.710  -0.232  53.006  1.00  0.00     0.309 C 
ENDBRANCH  27  28
ENDBRANCH  26  27
ENDBRANCH  24  26
ENDBRANCH  14  24
BRANCH   1  31
HETATM   31  O1  UNL     1      12.912   4.530  52.979  1.00  0.00    -0.358 OA
HETATM   32  C1  UNL     1      12.326   4.273  54.252  1.00  0.00     0.209 C 
ENDBRANCH   1  31
TORSDOF 5
ENDMDL
MODEL 5
REMARK VINA RESULT:      -6.8      4.540      7.819
REMARK  5 active torsions:
REMARK  status: ('A' for Active; 'I' for Inactive)
REMARK    1  A    between atoms: O1_2  and  C2_3 
REMARK    2  A    between atoms: C11_16  and  N5_17 
REMARK    3  A    between atoms: N5_17  and  C13_19 
REMARK    4  A    between atoms: C13_19  and  C14_20 
REMARK    5  A    between atoms: C14_20  and  N6_21 
ROOT
HETATM    1  C2  UNL     1      21.740  -0.720  54.260  1.00  0.00     0.068 C 
HETATM    2  C3  UNL     1      22.724   0.062  53.793  1.00  0.00     0.120 C 
HETATM    3  N1  UNL     1      23.335   1.023  52.908  1.00  0.00    -0.364 N 
HETATM    4  C4  UNL     1      23.855   2.384  53.186  1.00  0.00     0.273 C 
HETATM    5  N2  UNL     1      23.874   2.918  51.855  1.00  0.00    -0.277 NA
HETATM    6  C5  UNL     1      23.130   2.286  51.069  1.00  0.00     0.032 C 
HETATM    7  C6  UNL     1      23.613   0.939  51.478  1.00  0.00     0.178 C 
HETATM    8  C7  UNL     1      22.062   2.560  50.022  1.00  0.00     0.061 A 
HETATM    9  C8  UNL     1      21.407   1.447  49.343  1.00  0.00     0.041 A 
HETATM   10  C9  UNL     1      20.744   2.042  50.497  1.00  0.00     0.119 A 
HETATM   11  N3  UNL     1      19.699   3.032  50.392  1.00  0.00    -0.279 NA
HETATM   12  C10 UNL     1      18.508   2.620  50.405  1.00  0.00     0.202 C 
HETATM   13  N4  UNL     1      17.381   1.773  50.458  1.00  0.00    -0.337 N 
HETATM   14  C11 UNL     1      16.229   1.713  51.264  1.00  0.00     0.111 C 
HETATM   15  C17 UNL     1      16.124   0.545  51.880  1.00  0.00     0.006 C 
HETATM   16  C18 UNL     1      16.310  -0.489  51.053  1.00  0.00     0.111 C 
HETATM   17  C19 UNL     1      17.635  -0.434  51.648  1.00  0.00     0.360 A 
HETATM   18  O2  UNL     1      18.830  -0.181  51.904  1.00  0.00    -0.149 OA
HETATM   19  N7  UNL     1      18.173  -1.092  52.835  1.00  0.00     0.094 N 
HETATM   20  C20 UNL     1      19.279  -1.346  53.754  1.00  0.00     0.270 C 
HETATM   21  C21 UNL     1      20.444  -0.654  53.486  1.00  0.00     0.092 C 
HETATM   22  H14 UNL     1      17.432   1.063  49.709  1.00  0.00     0.168 HD
HETATM   23  H29 UNL     1      17.261  -1.603  53.079  1.00  0.00     0.322 HD
ENDROOT
BRANCH  14  24
HETATM   24  N5  UNL     1      15.756   3.014  50.964  1.00  0.00    -0.369 N 
HETATM   25  C12 UNL     1      15.223   3.316  49.628  1.00  0.00     0.151 C 
BRANCH  24  26
HETATM   26  C13 UNL     1      15.800   4.080  51.940  1.00  0.00     0.154 C 
BRANCH  26  27
HETATM   27  C14 UNL     1      14.922   3.853  53.121  1.00  0.00     0.291 C 
BRANCH  27  28
HETATM   28  N6  UNL     1      13.549   3.534  52.718  1.00  0.00     0.081 N 
HETATM   29  C15 UNL     1      13.135   2.293  53.372  1.00  0.00     0.309 C 
HETATM   30  C16 UNL     1      12.647   4.621  53.013  1.00  0.00     0.309 C 
ENDBRANCH  27  28
ENDBRANCH  26  27
ENDBRANCH  24  26
ENDBRANCH  14  24
BRANCH   1  31
HETATM   31  O1  UNL     1      22.363  -1.368  55.406  1.00  0.00    -0.358 OA
HETATM   32  C1  UNL     1      23.782  -1.259  55.349  1.00  0.00     0.209 C 
ENDBRANCH   1  31
TORSDOF 5
ENDMDL
MODEL 6
REMARK VINA RESULT:      -6.7      7.588     12.169
REMARK  5 active torsions:
REMARK  status: ('A' for Active; 'I' for Inactive)
REMARK    1  A    between atoms: O1_2  and  C2_3 
REMARK    2  A    between atoms: C11_16  and  N5_17 
REMARK    3  A    between atoms: N5_17  and  C13_19 
REMARK    4  A    between atoms: C13_19  and  C14_20 
REMARK    5  A    between atoms: C14_20  and  N6_21 
ROOT
HETATM    1  C2  UNL     1      29.799   5.601  48.116  1.00  0.00     0.068 C 
HETATM    2  C3  UNL     1      29.555   6.913  48.240  1.00  0.00     0.120 C 
HETATM    3  N1  UNL     1      29.820   8.324  48.087  1.00  0.00    -0.364 N 
HETATM    4  C4  UNL     1      29.079   9.358  47.326  1.00  0.00     0.273 C 
HETATM    5  N2  UNL     1      30.097  10.364  47.222  1.00  0.00    -0.277 NA
HETATM    6  C5  UNL     1      31.249   9.907  47.403  1.00  0.00     0.032 C 
HETATM    7  C6  UNL     1      30.900   9.139  48.630  1.00  0.00     0.178 C 
HETATM    8  C7  UNL     1      32.625   9.959  46.756  1.00  0.00     0.061 A 
HETATM    9  C8  UNL     1      33.728   9.197  47.333  1.00  0.00     0.041 A 
HETATM   10  C9  UNL     1      32.984   8.611  46.224  1.00  0.00     0.119 A 
HETATM   11  N3  UNL     1      33.425   8.666  44.852  1.00  0.00    -0.279 NA
HETATM   12  C10 UNL     1      34.091   7.688  44.417  1.00  0.00     0.202 C 
HETATM   13  N4  UNL     1      34.769   6.453  44.342  1.00  0.00    -0.337 N 
HETATM   14  C11 UNL     1      34.684   5.331  43.497  1.00  0.00     0.111 C 
HETATM   15  C17 UNL     1      34.426   4.225  44.180  1.00  0.00     0.006 C 
HETATM   16  C18 UNL     1      35.214   4.087  45.251  1.00  0.00     0.111 C 
HETATM   17  C19 UNL     1      34.031   4.620  45.906  1.00  0.00     0.360 A 
HETATM   18  O2  UNL     1      33.164   5.368  46.405  1.00  0.00    -0.149 OA
HETATM   19  N7  UNL     1      32.875   3.939  46.482  1.00  0.00     0.094 N 
HETATM   20  C20 UNL     1      31.585   3.985  47.164  1.00  0.00     0.270 C 
HETATM   21  C21 UNL     1      31.097   5.251  47.426  1.00  0.00     0.092 C 
HETATM   22  H14 UNL     1      35.502   6.403  45.069  1.00  0.00     0.168 HD
HETATM   23  H29 UNL     1      33.223   2.951  46.246  1.00  0.00     0.322 HD
ENDROOT
BRANCH  14  24
HETATM   24  N5  UNL     1      34.945   6.021  42.287  1.00  0.00    -0.369 N 
HETATM   25  C12 UNL     1      36.259   6.636  42.057  1.00  0.00     0.151 C 
BRANCH  24  26
HETATM   26  C13 UNL     1      33.934   6.160  41.263  1.00  0.00     0.154 C 
BRANCH  26  27
HETATM   27  C14 UNL     1      34.314   5.556  39.955  1.00  0.00     0.291 C 
BRANCH  27  28
HETATM   28  N6  UNL     1      34.119   4.104  39.956  1.00  0.00     0.081 N 
HETATM   29  C15 UNL     1      32.825   3.795  40.562  1.00  0.00     0.309 C 
HETATM   30  C16 UNL     1      34.232   3.556  38.625  1.00  0.00     0.309 C 
ENDBRANCH  27  28
ENDBRANCH  26  27
ENDBRANCH  24  26
ENDBRANCH  14  24
BRANCH   1  31
HETATM   31  O1  UNL     1      28.633   4.998  48.746  1.00  0.00    -0.358 OA
HETATM   32  C1  UNL     1      27.459   5.763  48.492  1.00  0.00     0.209 C 
ENDBRANCH   1  31
TORSDOF 5
ENDMDL
MODEL 7
REMARK VINA RESULT:      -6.7      7.522     12.117
REMARK  5 active torsions:
REMARK  status: ('A' for Active; 'I' for Inactive)
REMARK    1  A    between atoms: O1_2  and  C2_3 
REMARK    2  A    between atoms: C11_16  and  N5_17 
REMARK    3  A    between atoms: N5_17  and  C13_19 
REMARK    4  A    between atoms: C13_19  and  C14_20 
REMARK    5  A    between atoms: C14_20  and  N6_21 
ROOT
HETATM    1  C2  UNL     1      29.759   5.539  48.125  1.00  0.00     0.068 C 
HETATM    2  C3  UNL     1      29.550   6.842  48.357  1.00  0.00     0.120 C 
HETATM    3  N1  UNL     1      29.848   8.253  48.312  1.00  0.00    -0.364 N 
HETATM    4  C4  UNL     1      29.120   9.363  47.650  1.00  0.00     0.273 C 
HETATM    5  N2  UNL     1      30.160  10.349  47.606  1.00  0.00    -0.277 NA
HETATM    6  C5  UNL     1      31.304   9.852  47.728  1.00  0.00     0.032 C 
HETATM    7  C6  UNL     1      30.957   8.998  48.897  1.00  0.00     0.178 C 
HETATM    8  C7  UNL     1      32.669   9.923  47.061  1.00  0.00     0.061 A 
HETATM    9  C8  UNL     1      33.763   9.092  47.554  1.00  0.00     0.041 A 
HETATM   10  C9  UNL     1      32.985   8.613  46.416  1.00  0.00     0.119 A 
HETATM   11  N3  UNL     1      33.404   8.768  45.045  1.00  0.00    -0.279 NA
HETATM   12  C10 UNL     1      34.037   7.812  44.521  1.00  0.00     0.202 C 
HETATM   13  N4  UNL     1      34.683   6.571  44.335  1.00  0.00    -0.337 N 
HETATM   14  C11 UNL     1      34.554   5.522  43.406  1.00  0.00     0.111 C 
HETATM   15  C17 UNL     1      34.281   4.372  44.003  1.00  0.00     0.006 C 
HETATM   16  C18 UNL     1      35.084   4.131  45.044  1.00  0.00     0.111 C 
HETATM   17  C19 UNL     1      33.926   4.637  45.763  1.00  0.00     0.360 A 
HETATM   18  O2  UNL     1      33.087   5.363  46.336  1.00  0.00    -0.149 OA
HETATM   19  N7  UNL     1      32.763   3.940  46.305  1.00  0.00     0.094 N 
HETATM   20  C20 UNL     1      31.487   3.962  47.014  1.00  0.00     0.270 C 
HETATM   21  C21 UNL     1      31.035   5.214  47.384  1.00  0.00     0.092 C 
HETATM   22  H14 UNL     1      35.426   6.446  45.041  1.00  0.00     0.168 HD
HETATM   23  H29 UNL     1      33.082   2.966  45.985  1.00  0.00     0.322 HD
ENDROOT
BRANCH  14  24
HETATM   24  N5  UNL     1      34.811   6.300  42.250  1.00  0.00    -0.369 N 
HETATM   25  C12 UNL     1      33.736   6.567  41.286  1.00  0.00     0.151 C 
BRANCH  24  26
HETATM   26  C13 UNL     1      36.127   6.832  41.973  1.00  0.00     0.154 C 
BRANCH  26  27
HETATM   27  C14 UNL     1      36.130   7.960  41.000  1.00  0.00     0.291 C 
BRANCH  27  28
HETATM   28  N6  UNL     1      36.520   9.221  41.637  1.00  0.00     0.081 N 
HETATM   29  C15 UNL     1      35.321  10.016  41.898  1.00  0.00     0.309 C 
HETATM   30  C16 UNL     1      37.281   8.989  42.842  1.00  0.00     0.309 C 
ENDBRANCH  27  28
ENDBRANCH  26  27
ENDBRANCH  24  26
ENDBRANCH  14  24
BRANCH   1  31
HETATM   31  O1  UNL     1      28.589   4.915  48.727  1.00  0.00    -0.358 OA
HETATM   32  C1  UNL     1      27.418   5.692  48.500  1.00  0.00     0.209 C 
ENDBRANCH   1  31
TORSDOF 5
ENDMDL
MODEL 8
REMARK VINA RESULT:      -6.6      6.754     11.631
REMARK  5 active torsions:
REMARK  status: ('A' for Active; 'I' for Inactive)
REMARK    1  A    between atoms: O1_2  and  C2_3 
REMARK    2  A    between atoms: C11_16  and  N5_17 
REMARK    3  A    between atoms: N5_17  and  C13_19 
REMARK    4  A    between atoms: C13_19  and  C14_20 
REMARK    5  A    between atoms: C14_20  and  N6_21 
ROOT
HETATM    1  C2  UNL     1      34.083   8.616  44.741  1.00  0.00     0.068 C 
HETATM    2  C3  UNL     1      34.134   7.279  44.666  1.00  0.00     0.120 C 
HETATM    3  N1  UNL     1      33.818   5.924  45.050  1.00  0.00    -0.364 N 
HETATM    4  C4  UNL     1      33.111   4.859  44.299  1.00  0.00     0.273 C 
HETATM    5  N2  UNL     1      32.748   3.993  45.384  1.00  0.00    -0.277 NA
HETATM    6  C5  UNL     1      32.766   4.573  46.494  1.00  0.00     0.032 C 
HETATM    7  C6  UNL     1      34.096   5.212  46.292  1.00  0.00     0.178 C 
HETATM    8  C7  UNL     1      31.890   4.731  47.728  1.00  0.00     0.061 A 
HETATM    9  C8  UNL     1      32.331   5.581  48.828  1.00  0.00     0.041 A 
HETATM   10  C9  UNL     1      31.421   6.144  47.838  1.00  0.00     0.119 A 
HETATM   11  N3  UNL     1      29.994   6.232  48.027  1.00  0.00    -0.279 NA
HETATM   12  C10 UNL     1      29.536   7.309  48.494  1.00  0.00     0.202 C 
HETATM   13  N4  UNL     1      29.451   8.619  49.010  1.00  0.00    -0.337 N 
HETATM   14  C11 UNL     1      28.732   9.776  48.653  1.00  0.00     0.111 C 
HETATM   15  C17 UNL     1      29.541  10.796  48.405  1.00  0.00     0.006 C 
HETATM   16  C18 UNL     1      30.468  10.958  49.354  1.00  0.00     0.111 C 
HETATM   17  C19 UNL     1      31.269  10.245  48.373  1.00  0.00     0.360 A 
HETATM   18  O2  UNL     1      31.844   9.366  47.697  1.00  0.00    -0.149 OA
HETATM   19  N7  UNL     1      32.091  10.741  47.274  1.00  0.00     0.094 N 
HETATM   20  C20 UNL     1      32.979  10.495  46.141  1.00  0.00     0.270 C 
HETATM   21  C21 UNL     1      33.212   9.166  45.848  1.00  0.00     0.092 C 
HETATM   22  H14 UNL     1      30.042   8.711  49.852  1.00  0.00     0.168 HD
HETATM   23  H29 UNL     1      31.885  11.777  47.465  1.00  0.00     0.322 HD
ENDROOT
BRANCH  14  24
HETATM   24  N5  UNL     1      27.441   9.202  48.764  1.00  0.00    -0.369 N 
HETATM   25  C12 UNL     1      26.648   8.931  47.557  1.00  0.00     0.151 C 
BRANCH  24  26
HETATM   26  C13 UNL     1      26.861   8.887  50.050  1.00  0.00     0.154 C 
BRANCH  26  27
HETATM   27  C14 UNL     1      25.498   8.293  49.968  1.00  0.00     0.291 C 
BRANCH  27  28
HETATM   28  N6  UNL     1      25.458   6.952  50.557  1.00  0.00     0.081 N 
HETATM   29  C15 UNL     1      24.158   6.747  51.193  1.00  0.00     0.309 C 
HETATM   30  C16 UNL     1      25.739   5.935  49.573  1.00  0.00     0.309 C 
ENDBRANCH  27  28
ENDBRANCH  26  27
ENDBRANCH  24  26
ENDBRANCH  14  24
BRANCH   1  31
HETATM   31  O1  UNL     1      34.952   9.032  43.650  1.00  0.00    -0.358 OA
HETATM   32  C1  UNL     1      36.126   9.671  44.144  1.00  0.00     0.209 C 
ENDBRANCH   1  31
TORSDOF 5
ENDMDL
MODEL 9
REMARK VINA RESULT:      -6.5      2.421      4.717
REMARK  5 active torsions:
REMARK  status: ('A' for Active; 'I' for Inactive)
REMARK    1  A    between atoms: O1_2  and  C2_3 
REMARK    2  A    between atoms: C11_16  and  N5_17 
REMARK    3  A    between atoms: N5_17  and  C13_19 
REMARK    4  A    between atoms: C13_19  and  C14_20 
REMARK    5  A    between atoms: C14_20  and  N6_21 
ROOT
HETATM    1  C2  UNL     1      25.183   0.063  53.455  1.00  0.00     0.068 C 
HETATM    2  C3  UNL     1      24.034  -0.525  53.816  1.00  0.00     0.120 C 
HETATM    3  N1  UNL     1      22.602  -0.681  53.896  1.00  0.00    -0.364 N 
HETATM    4  C4  UNL     1      21.726  -1.753  53.364  1.00  0.00     0.273 C 
HETATM    5  N2  UNL     1      20.464  -1.073  53.384  1.00  0.00    -0.277 NA
HETATM    6  C5  UNL     1      20.586   0.173  53.425  1.00  0.00     0.032 C 
HETATM    7  C6  UNL     1      21.598   0.175  54.517  1.00  0.00     0.178 C 
HETATM    8  C7  UNL     1      20.037   1.409  52.728  1.00  0.00     0.061 A 
HETATM    9  C8  UNL     1      20.521   2.733  53.108  1.00  0.00     0.041 A 
HETATM   10  C9  UNL     1      21.125   2.078  51.953  1.00  0.00     0.119 A 
HETATM   11  N3  UNL     1      20.736   2.349  50.591  1.00  0.00    -0.279 NA
HETATM   12  C10 UNL     1      21.399   3.216  49.960  1.00  0.00     0.202 C 
HETATM   13  N4  UNL     1      22.356   4.202  49.639  1.00  0.00    -0.337 N 
HETATM   14  C11 UNL     1      23.314   4.351  48.618  1.00  0.00     0.111 C 
HETATM   15  C17 UNL     1      24.536   4.482  49.111  1.00  0.00     0.006 C 
HETATM   16  C18 UNL     1      24.598   5.377  50.101  1.00  0.00     0.111 C 
HETATM   17  C19 UNL     1      24.540   4.163  50.898  1.00  0.00     0.360 A 
HETATM   18  O2  UNL     1      24.162   3.175  51.561  1.00  0.00    -0.149 OA
HETATM   19  N7  UNL     1      25.607   3.305  51.405  1.00  0.00     0.094 N 
HETATM   20  C20 UNL     1      26.043   2.128  52.149  1.00  0.00     0.270 C 
HETATM   21  C21 UNL     1      25.031   1.333  52.650  1.00  0.00     0.092 C 
HETATM   22  H14 UNL     1      22.299   4.986  50.308  1.00  0.00     0.168 HD
HETATM   23  H29 UNL     1      26.403   3.891  50.985  1.00  0.00     0.322 HD
ENDROOT
BRANCH  14  24
HETATM   24  N5  UNL     1      22.403   4.288  47.535  1.00  0.00    -0.369 N 
HETATM   25  C12 UNL     1      22.196   3.023  46.817  1.00  0.00     0.151 C 
BRANCH  24  26
HETATM   26  C13 UNL     1      21.673   5.455  47.092  1.00  0.00     0.154 C 
BRANCH  26  27
HETATM   27  C14 UNL     1      22.435   6.322  46.151  1.00  0.00     0.291 C 
BRANCH  27  28
HETATM   28  N6  UNL     1      22.813   7.593  46.776  1.00  0.00     0.081 N 
HETATM   29  C15 UNL     1      22.015   7.787  47.985  1.00  0.00     0.309 C 
HETATM   30  C16 UNL     1      24.228   7.642  47.055  1.00  0.00     0.309 C 
ENDBRANCH  27  28
ENDBRANCH  26  27
ENDBRANCH  24  26
ENDBRANCH  14  24
BRANCH   1  31
HETATM   31  O1  UNL     1      26.189  -0.820  54.028  1.00  0.00    -0.358 OA
HETATM   32  C1  UNL     1      27.028  -1.368  53.016  1.00  0.00     0.209 C 
ENDBRANCH   1  31
TORSDOF 5
ENDMDL
