MODEL 1
REMARK VINA RESULT:      -9.0      0.000      0.000
REMARK  5 active torsions:
REMARK  status: ('A' for Active; 'I' for Inactive)
REMARK    1  A    between atoms: N1_2  and  C3_4 
REMARK    2  A    between atoms: C3_4  and  C4_5 
REMARK    3  A    between atoms: C5_6  and  C6_7 
REMARK       I    between atoms: C6_7  and  N2_9 
REMARK    4  A    between atoms: C9_12  and  N3_13 
REMARK    5  A    between atoms: N3_13  and  C10_14 
ROOT
HETATM    1  C6  UNL     1      24.650  -0.730  54.702  1.00  0.00     0.247 C 
HETATM    2  O1  UNL     1      24.882  -1.378  55.743  1.00  0.00    -0.268 OA
HETATM    3  N2  UNL     1      23.374  -0.586  54.121  1.00  0.00    -0.320 N 
HETATM    4  C7  UNL     1      23.120   0.146  52.947  1.00  0.00     0.110 A 
HETATM    5  C8  UNL     1      21.954   0.317  52.357  1.00  0.00     0.037 A 
HETATM    6  C9  UNL     1      21.790   1.052  51.206  1.00  0.00     0.140 A 
HETATM    7  N4  UNL     1      20.540   1.101  50.778  1.00  0.00    -0.241 NA
HETATM    8  C16 UNL     1      19.478   0.523  51.345  1.00  0.00     0.142 A 
HETATM    9  C17 UNL     1      19.625  -0.215  52.496  1.00  0.00     0.073 A 
HETATM   10  C18 UNL     1      18.483  -0.837  53.106  1.00  0.00     0.102 C 
HETATM   11  N5  UNL     1      17.552  -1.331  53.611  1.00  0.00    -0.191 NA
HETATM   12  C19 UNL     1      20.892  -0.299  52.982  1.00  0.00    -0.001 A 
HETATM   13  C20 UNL     1      21.018  -1.012  54.090  1.00  0.00     0.007 A 
HETATM   14  C21 UNL     1      22.281  -1.248  54.805  1.00  0.00     0.160 A 
ENDROOT
BRANCH   6  15
HETATM   15  N3  UNL     1      22.888   1.672  50.570  1.00  0.00    -0.340 N 
HETATM   16  H12 UNL     1      23.496   1.155  49.907  1.00  0.00     0.167 HD
BRANCH  15  17
HETATM   17  C10 UNL     1      23.342   2.993  50.692  1.00  0.00     0.035 A 
HETATM   18  C11 UNL     1      22.749   3.884  51.551  1.00  0.00     0.029 A 
HETATM   19  C12 UNL     1      23.165   5.188  51.688  1.00  0.00     0.004 A 
HETATM   20  C13 UNL     1      24.218   5.690  50.961  1.00  0.00     0.019 A 
HETATM   21  C14 UNL     1      24.831   4.829  50.096  1.00  0.00     0.013 A 
HETATM   22 BR1  UNL     1      26.302   5.420  49.038  1.00  0.00    -0.051 Br
HETATM   23  C15 UNL     1      24.375   3.537  49.999  1.00  0.00     0.048 A 
ENDBRANCH  15  17
ENDBRANCH   6  15
BRANCH   1  24
HETATM   24  C5  UNL     1      25.916  -0.196  54.263  1.00  0.00     0.072 C 
HETATM   25  C4  UNL     1      26.476  -0.909  53.310  1.00  0.00     0.008 C 
BRANCH  25  26
HETATM   26  C3  UNL     1      27.778  -0.577  52.685  1.00  0.00     0.299 C 
BRANCH  26  27
HETATM   27  N1  UNL     1      28.737  -0.366  53.742  1.00  0.00     0.083 N 
HETATM   28  C1  UNL     1      29.800  -1.326  53.773  1.00  0.00     0.309 C 
HETATM   29  C2  UNL     1      29.139   0.999  53.877  1.00  0.00     0.309 C 
ENDBRANCH  26  27
ENDBRANCH  25  26
ENDBRANCH   1  24
TORSDOF 5
ENDMDL
MODEL 2
REMARK VINA RESULT:      -8.6      2.409      6.678
REMARK  5 active torsions:
REMARK  status: ('A' for Active; 'I' for Inactive)
REMARK    1  A    between atoms: N1_2  and  C3_4 
REMARK    2  A    between atoms: C3_4  and  C4_5 
REMARK    3  A    between atoms: C5_6  and  C6_7 
REMARK       I    between atoms: C6_7  and  N2_9 
REMARK    4  A    between atoms: C9_12  and  N3_13 
REMARK    5  A    between atoms: N3_13  and  C10_14 
ROOT
HETATM    1  C6  UNL     1      21.626  -0.618  54.324  1.00  0.00     0.247 C 
HETATM    2  O1  UNL     1      21.307  -1.558  55.080  1.00  0.00    -0.268 OA
HETATM    3  N2  UNL     1      22.953  -0.274  53.996  1.00  0.00    -0.320 N 
HETATM    4  C7  UNL     1      23.306   0.788  53.143  1.00  0.00     0.110 A 
HETATM    5  C8  UNL     1      24.523   1.158  52.799  1.00  0.00     0.037 A 
HETATM    6  C9  UNL     1      24.782   2.212  51.956  1.00  0.00     0.140 A 
HETATM    7  N4  UNL     1      26.071   2.416  51.738  1.00  0.00    -0.241 NA
HETATM    8  C16 UNL     1      27.088   1.716  52.247  1.00  0.00     0.142 A 
HETATM    9  C17 UNL     1      26.844   0.660  53.092  1.00  0.00     0.073 A 
HETATM   10  C18 UNL     1      27.939  -0.094  53.640  1.00  0.00     0.102 C 
HETATM   11  N5  UNL     1      28.828  -0.716  54.074  1.00  0.00    -0.191 NA
HETATM   12  C19 UNL     1      25.535   0.404  53.351  1.00  0.00    -0.001 A 
HETATM   13  C20 UNL     1      25.317  -0.617  54.166  1.00  0.00     0.007 A 
HETATM   14  C21 UNL     1      23.992  -1.089  54.595  1.00  0.00     0.160 A 
ENDROOT
BRANCH   6  15
HETATM   15  N3  UNL     1      23.736   2.982  51.403  1.00  0.00    -0.340 N 
HETATM   16  H12 UNL     1      23.486   3.914  51.785  1.00  0.00     0.167 HD
BRANCH  15  17
HETATM   17  C10 UNL     1      22.895   2.676  50.323  1.00  0.00     0.035 A 
HETATM   18  C11 UNL     1      23.359   2.650  49.032  1.00  0.00     0.029 A 
HETATM   19  C12 UNL     1      22.559   2.361  47.951  1.00  0.00     0.004 A 
HETATM   20  C13 UNL     1      21.222   2.077  48.097  1.00  0.00     0.019 A 
HETATM   21  C14 UNL     1      20.727   2.094  49.371  1.00  0.00     0.013 A 
HETATM   22 BR1  UNL     1      18.888   1.714  49.690  1.00  0.00    -0.051 Br
HETATM   23  C15 UNL     1      21.571   2.388  50.414  1.00  0.00     0.048 A 
ENDBRANCH  15  17
ENDBRANCH   6  15
BRANCH   1  24
HETATM   24  C5  UNL     1      20.394  -0.007  53.891  1.00  0.00     0.072 C 
HETATM   25  C4  UNL     1      19.601  -0.838  53.249  1.00  0.00     0.008 C 
BRANCH  25  26
HETATM   26  C3  UNL     1      18.277  -0.460  52.701  1.00  0.00     0.299 C 
BRANCH  26  27
HETATM   27  N1  UNL     1      17.297  -1.374  53.236  1.00  0.00     0.083 N 
HETATM   28  C1  UNL     1      16.083  -1.445  52.478  1.00  0.00     0.309 C 
HETATM   29  C2  UNL     1      17.851  -2.633  53.625  1.00  0.00     0.309 C 
ENDBRANCH  26  27
ENDBRANCH  25  26
ENDBRANCH   1  24
TORSDOF 5
ENDMDL
MODEL 3
REMARK VINA RESULT:      -8.5      2.134      3.143
REMARK  5 active torsions:
REMARK  status: ('A' for Active; 'I' for Inactive)
REMARK    1  A    between atoms: N1_2  and  C3_4 
REMARK    2  A    between atoms: C3_4  and  C4_5 
REMARK    3  A    between atoms: C5_6  and  C6_7 
REMARK       I    between atoms: C6_7  and  N2_9 
REMARK    4  A    between atoms: C9_12  and  N3_13 
REMARK    5  A    between atoms: N3_13  and  C10_14 
ROOT
HETATM    1  C6  UNL     1      23.609   0.170  53.588  1.00  0.00     0.247 C 
HETATM    2  O1  UNL     1      23.270  -0.959  53.998  1.00  0.00    -0.268 OA
HETATM    3  N2  UNL     1      22.723   1.120  53.043  1.00  0.00    -0.320 N 
HETATM    4  C7  UNL     1      23.112   2.391  52.582  1.00  0.00     0.110 A 
HETATM    5  C8  UNL     1      22.333   3.319  52.064  1.00  0.00     0.037 A 
HETATM    6  C9  UNL     1      22.796   4.541  51.637  1.00  0.00     0.140 A 
HETATM    7  N4  UNL     1      21.851   5.329  51.150  1.00  0.00    -0.241 NA
HETATM    8  C16 UNL     1      20.550   5.046  51.046  1.00  0.00     0.142 A 
HETATM    9  C17 UNL     1      20.073   3.828  51.469  1.00  0.00     0.073 A 
HETATM   10  C18 UNL     1      18.673   3.523  51.357  1.00  0.00     0.102 C 
HETATM   11  N5  UNL     1      17.533   3.280  51.280  1.00  0.00    -0.191 NA
HETATM   12  C19 UNL     1      21.001   2.977  51.979  1.00  0.00    -0.001 A 
HETATM   13  C20 UNL     1      20.526   1.809  52.382  1.00  0.00     0.007 A 
HETATM   14  C21 UNL     1      21.329   0.726  52.969  1.00  0.00     0.160 A 
ENDROOT
BRANCH   6  15
HETATM   15  N3  UNL     1      24.165   4.877  51.721  1.00  0.00    -0.340 N 
HETATM   16  H12 UNL     1      24.590   5.212  52.607  1.00  0.00     0.167 HD
BRANCH  15  17
HETATM   17  C10 UNL     1      25.144   4.833  50.717  1.00  0.00     0.035 A 
HETATM   18  C11 UNL     1      25.839   3.683  50.438  1.00  0.00     0.029 A 
HETATM   19  C12 UNL     1      26.811   3.609  49.466  1.00  0.00     0.004 A 
HETATM   20  C13 UNL     1      27.152   4.699  48.702  1.00  0.00     0.019 A 
HETATM   21  C14 UNL     1      26.478   5.860  48.954  1.00  0.00     0.013 A 
HETATM   22 BR1  UNL     1      26.871   7.434  47.953  1.00  0.00    -0.051 Br
HETATM   23  C15 UNL     1      25.517   5.878  49.936  1.00  0.00     0.048 A 
ENDBRANCH  15  17
ENDBRANCH   6  15
BRANCH   1  24
HETATM   24  C5  UNL     1      25.034   0.267  53.793  1.00  0.00     0.072 C 
HETATM   25  C4  UNL     1      25.735  -0.143  52.758  1.00  0.00     0.008 C 
BRANCH  25  26
HETATM   26  C3  UNL     1      27.215  -0.147  52.712  1.00  0.00     0.299 C 
BRANCH  26  27
HETATM   27  N1  UNL     1      27.694   0.795  53.695  1.00  0.00     0.083 N 
HETATM   28  C1  UNL     1      28.653   0.253  54.610  1.00  0.00     0.309 C 
HETATM   29  C2  UNL     1      28.025   2.070  53.142  1.00  0.00     0.309 C 
ENDBRANCH  26  27
ENDBRANCH  25  26
ENDBRANCH   1  24
TORSDOF 5
ENDMDL
MODEL 4
REMARK VINA RESULT:      -8.3      3.037      5.875
REMARK  5 active torsions:
REMARK  status: ('A' for Active; 'I' for Inactive)
REMARK    1  A    between atoms: N1_2  and  C3_4 
REMARK    2  A    between atoms: C3_4  and  C4_5 
REMARK    3  A    between atoms: C5_6  and  C6_7 
REMARK       I    between atoms: C6_7  and  N2_9 
REMARK    4  A    between atoms: C9_12  and  N3_13 
REMARK    5  A    between atoms: N3_13  and  C10_14 
ROOT
HETATM    1  C6  UNL     1      26.364   2.285  51.237  1.00  0.00     0.247 C 
HETATM    2  O1  UNL     1      27.461   2.777  51.571  1.00  0.00    -0.268 OA
HETATM    3  N2  UNL     1      25.404   2.943  50.443  1.00  0.00    -0.320 N 
HETATM    4  C7  UNL     1      24.168   2.383  50.071  1.00  0.00     0.110 A 
HETATM    5  C8  UNL     1      23.233   2.946  49.333  1.00  0.00     0.037 A 
HETATM    6  C9  UNL     1      22.048   2.326  49.013  1.00  0.00     0.140 A 
HETATM    7  N4  UNL     1      21.246   3.063  48.262  1.00  0.00    -0.241 NA
HETATM    8  C16 UNL     1      21.484   4.298  47.812  1.00  0.00     0.142 A 
HETATM    9  C17 UNL     1      22.664   4.930  48.124  1.00  0.00     0.073 A 
HETATM   10  C18 UNL     1      22.920   6.259  47.640  1.00  0.00     0.102 C 
HETATM   11  N5  UNL     1      23.135   7.334  47.235  1.00  0.00    -0.191 NA
HETATM   12  C19 UNL     1      23.527   4.218  48.895  1.00  0.00    -0.001 A 
HETATM   13  C20 UNL     1      24.659   4.841  49.186  1.00  0.00     0.007 A 
HETATM   14  C21 UNL     1      25.748   4.280  50.001  1.00  0.00     0.160 A 
ENDROOT
BRANCH   6  15
HETATM   15  N3  UNL     1      21.753   1.025  49.475  1.00  0.00    -0.340 N 
HETATM   16  H12 UNL     1      22.086   0.180  48.972  1.00  0.00     0.167 HD
BRANCH  15  17
HETATM   17  C10 UNL     1      21.017   0.639  50.605  1.00  0.00     0.035 A 
HETATM   18  C11 UNL     1      19.645   0.658  50.613  1.00  0.00     0.029 A 
HETATM   19  C12 UNL     1      18.895   0.294  51.708  1.00  0.00     0.004 A 
HETATM   20  C13 UNL     1      19.481  -0.117  52.881  1.00  0.00     0.019 A 
HETATM   21  C14 UNL     1      20.846  -0.148  52.907  1.00  0.00     0.013 A 
HETATM   22 BR1  UNL     1      21.763  -0.702  54.482  1.00  0.00    -0.051 Br
HETATM   23  C15 UNL     1      21.547   0.226  51.785  1.00  0.00     0.048 A 
ENDBRANCH  15  17
ENDBRANCH   6  15
BRANCH   1  24
HETATM   24  C5  UNL     1      26.314   0.966  51.819  1.00  0.00     0.072 C 
HETATM   25  C4  UNL     1      27.215   0.781  52.760  1.00  0.00     0.008 C 
BRANCH  25  26
HETATM   26  C3  UNL     1      27.375  -0.484  53.514  1.00  0.00     0.299 C 
BRANCH  26  27
HETATM   27  N1  UNL     1      28.660  -0.452  54.169  1.00  0.00     0.083 N 
HETATM   28  C1  UNL     1      29.668  -1.240  53.523  1.00  0.00     0.309 C 
HETATM   29  C2  UNL     1      29.064   0.861  54.559  1.00  0.00     0.309 C 
ENDBRANCH  26  27
ENDBRANCH  25  26
ENDBRANCH   1  24
TORSDOF 5
ENDMDL
MODEL 5
REMARK VINA RESULT:      -8.2      2.440      6.683
REMARK  5 active torsions:
REMARK  status: ('A' for Active; 'I' for Inactive)
REMARK    1  A    between atoms: N1_2  and  C3_4 
REMARK    2  A    between atoms: C3_4  and  C4_5 
REMARK    3  A    between atoms: C5_6  and  C6_7 
REMARK       I    between atoms: C6_7  and  N2_9 
REMARK    4  A    between atoms: C9_12  and  N3_13 
REMARK    5  A    between atoms: N3_13  and  C10_14 
ROOT
HETATM    1  C6  UNL     1      21.379   0.366  52.318  1.00  0.00     0.247 C 
HETATM    2  O1  UNL     1      20.657  -0.410  52.977  1.00  0.00    -0.268 OA
HETATM    3  N2  UNL     1      22.765   0.529  52.517  1.00  0.00    -0.320 N 
HETATM    4  C7  UNL     1      23.572   1.406  51.771  1.00  0.00     0.110 A 
HETATM    5  C8  UNL     1      24.868   1.602  51.909  1.00  0.00     0.037 A 
HETATM    6  C9  UNL     1      25.586   2.482  51.134  1.00  0.00     0.140 A 
HETATM    7  N4  UNL     1      26.874   2.528  51.433  1.00  0.00    -0.241 NA
HETATM    8  C16 UNL     1      27.500   1.824  52.380  1.00  0.00     0.142 A 
HETATM    9  C17 UNL     1      26.796   0.940  53.162  1.00  0.00     0.073 A 
HETATM   10  C18 UNL     1      27.469   0.182  54.181  1.00  0.00     0.102 C 
HETATM   11  N5  UNL     1      28.019  -0.445  54.999  1.00  0.00    -0.191 NA
HETATM   12  C19 UNL     1      25.466   0.852  52.898  1.00  0.00    -0.001 A 
HETATM   13  C20 UNL     1      24.801  -0.004  53.660  1.00  0.00     0.007 A 
HETATM   14  C21 UNL     1      23.359  -0.276  53.566  1.00  0.00     0.160 A 
ENDROOT
BRANCH   6  15
HETATM   15  N3  UNL     1      24.962   3.252  50.129  1.00  0.00    -0.340 N 
HETATM   16  H12 UNL     1      24.029   2.999  49.750  1.00  0.00     0.167 HD
BRANCH  15  17
HETATM   17  C10 UNL     1      25.429   4.411  49.492  1.00  0.00     0.035 A 
HETATM   18  C11 UNL     1      24.581   5.423  49.122  1.00  0.00     0.029 A 
HETATM   19  C12 UNL     1      25.006   6.568  48.489  1.00  0.00     0.004 A 
HETATM   20  C13 UNL     1      26.330   6.773  48.180  1.00  0.00     0.019 A 
HETATM   21  C14 UNL     1      27.203   5.784  48.535  1.00  0.00     0.013 A 
HETATM   22 BR1  UNL     1      29.061   5.963  48.155  1.00  0.00    -0.051 Br
HETATM   23  C15 UNL     1      26.723   4.661  49.166  1.00  0.00     0.048 A 
ENDBRANCH  15  17
ENDBRANCH   6  15
BRANCH   1  24
HETATM   24  C5  UNL     1      20.514   1.016  51.363  1.00  0.00     0.072 C 
HETATM   25  C4  UNL     1      19.273   0.581  51.410  1.00  0.00     0.008 C 
BRANCH  25  26
HETATM   26  C3  UNL     1      18.188   1.084  50.535  1.00  0.00     0.299 C 
BRANCH  26  27
HETATM   27  N1  UNL     1      17.326   1.921  51.333  1.00  0.00     0.083 N 
HETATM   28  C1  UNL     1      17.740   3.290  51.409  1.00  0.00     0.309 C 
HETATM   29  C2  UNL     1      15.937   1.715  51.071  1.00  0.00     0.309 C 
ENDBRANCH  26  27
ENDBRANCH  25  26
ENDBRANCH   1  24
TORSDOF 5
ENDMDL
MODEL 6
REMARK VINA RESULT:      -8.1      3.529      7.381
REMARK  5 active torsions:
REMARK  status: ('A' for Active; 'I' for Inactive)
REMARK    1  A    between atoms: N1_2  and  C3_4 
REMARK    2  A    between atoms: C3_4  and  C4_5 
REMARK    3  A    between atoms: C5_6  and  C6_7 
REMARK       I    between atoms: C6_7  and  N2_9 
REMARK    4  A    between atoms: C9_12  and  N3_13 
REMARK    5  A    between atoms: N3_13  and  C10_14 
ROOT
HETATM    1  C6  UNL     1      25.188   4.302  49.981  1.00  0.00     0.247 C 
HETATM    2  O1  UNL     1      26.165   4.823  49.406  1.00  0.00    -0.268 OA
HETATM    3  N2  UNL     1      25.261   3.159  50.802  1.00  0.00    -0.320 N 
HETATM    4  C7  UNL     1      24.155   2.577  51.447  1.00  0.00     0.110 A 
HETATM    5  C8  UNL     1      24.160   1.513  52.225  1.00  0.00     0.037 A 
HETATM    6  C9  UNL     1      23.028   1.007  52.819  1.00  0.00     0.140 A 
HETATM    7  N4  UNL     1      23.250  -0.065  53.561  1.00  0.00    -0.241 NA
HETATM    8  C16 UNL     1      24.425  -0.665  53.768  1.00  0.00     0.142 A 
HETATM    9  C17 UNL     1      25.565  -0.171  53.180  1.00  0.00     0.073 A 
HETATM   10  C18 UNL     1      26.830  -0.816  53.402  1.00  0.00     0.102 C 
HETATM   11  N5  UNL     1      27.861  -1.331  53.594  1.00  0.00    -0.191 NA
HETATM   12  C19 UNL     1      25.396   0.933  52.405  1.00  0.00    -0.001 A 
HETATM   13  C20 UNL     1      26.503   1.397  51.846  1.00  0.00     0.007 A 
HETATM   14  C21 UNL     1      26.578   2.575  50.969  1.00  0.00     0.160 A 
ENDROOT
BRANCH   6  15
HETATM   15  N3  UNL     1      21.765   1.606  52.620  1.00  0.00    -0.340 N 
HETATM   16  H12 UNL     1      21.592   2.602  52.853  1.00  0.00     0.167 HD
BRANCH  15  17
HETATM   17  C10 UNL     1      20.590   1.030  52.113  1.00  0.00     0.035 A 
HETATM   18  C11 UNL     1      20.089   1.378  50.885  1.00  0.00     0.029 A 
HETATM   19  C12 UNL     1      18.935   0.839  50.363  1.00  0.00     0.004 A 
HETATM   20  C13 UNL     1      18.200  -0.097  51.051  1.00  0.00     0.019 A 
HETATM   21  C14 UNL     1      18.672  -0.466  52.279  1.00  0.00     0.013 A 
HETATM   22 BR1  UNL     1      17.732  -1.756  53.319  1.00  0.00    -0.051 Br
HETATM   23  C15 UNL     1      19.829   0.104  52.751  1.00  0.00     0.048 A 
ENDBRANCH  15  17
ENDBRANCH   6  15
BRANCH   1  24
HETATM   24  C5  UNL     1      24.037   5.097  49.629  1.00  0.00     0.072 C 
HETATM   25  C4  UNL     1      23.430   4.677  48.540  1.00  0.00     0.008 C 
BRANCH  25  26
HETATM   26  C3  UNL     1      22.225   5.318  47.966  1.00  0.00     0.299 C 
BRANCH  26  27
HETATM   27  N1  UNL     1      21.568   4.353  47.118  1.00  0.00     0.083 N 
HETATM   28  C1  UNL     1      21.858   4.501  45.723  1.00  0.00     0.309 C 
HETATM   29  C2  UNL     1      21.640   3.018  47.621  1.00  0.00     0.309 C 
ENDBRANCH  26  27
ENDBRANCH  25  26
ENDBRANCH   1  24
TORSDOF 5
ENDMDL
MODEL 7
REMARK VINA RESULT:      -8.1      1.712      5.866
REMARK  5 active torsions:
REMARK  status: ('A' for Active; 'I' for Inactive)
REMARK    1  A    between atoms: N1_2  and  C3_4 
REMARK    2  A    between atoms: C3_4  and  C4_5 
REMARK    3  A    between atoms: C5_6  and  C6_7 
REMARK       I    between atoms: C6_7  and  N2_9 
REMARK    4  A    between atoms: C9_12  and  N3_13 
REMARK    5  A    between atoms: N3_13  and  C10_14 
ROOT
HETATM    1  C6  UNL     1      22.103  -0.904  54.573  1.00  0.00     0.247 C 
HETATM    2  O1  UNL     1      21.924  -1.878  55.332  1.00  0.00    -0.268 OA
HETATM    3  N2  UNL     1      23.366  -0.439  54.156  1.00  0.00    -0.320 N 
HETATM    4  C7  UNL     1      23.560   0.660  53.300  1.00  0.00     0.110 A 
HETATM    5  C8  UNL     1      24.712   1.142  52.877  1.00  0.00     0.037 A 
HETATM    6  C9  UNL     1      24.815   2.225  52.036  1.00  0.00     0.140 A 
HETATM    7  N4  UNL     1      26.060   2.546  51.731  1.00  0.00    -0.241 NA
HETATM    8  C16 UNL     1      27.170   1.934  52.151  1.00  0.00     0.142 A 
HETATM    9  C17 UNL     1      27.084   0.850  52.992  1.00  0.00     0.073 A 
HETATM   10  C18 UNL     1      28.277   0.190  53.445  1.00  0.00     0.102 C 
HETATM   11  N5  UNL     1      29.247  -0.355  53.802  1.00  0.00    -0.191 NA
HETATM   12  C19 UNL     1      25.825   0.474  53.340  1.00  0.00    -0.001 A 
HETATM   13  C20 UNL     1      25.758  -0.571  54.149  1.00  0.00     0.007 A 
HETATM   14  C21 UNL     1      24.514  -1.165  54.664  1.00  0.00     0.160 A 
ENDROOT
BRANCH   6  15
HETATM   15  N3  UNL     1      23.667   2.906  51.575  1.00  0.00    -0.340 N 
HETATM   16  H12 UNL     1      22.723   2.700  51.953  1.00  0.00     0.167 HD
BRANCH  15  17
HETATM   17  C10 UNL     1      23.574   3.910  50.600  1.00  0.00     0.035 A 
HETATM   18  C11 UNL     1      23.236   3.625  49.301  1.00  0.00     0.029 A 
HETATM   19  C12 UNL     1      23.145   4.585  48.319  1.00  0.00     0.004 A 
HETATM   20  C13 UNL     1      23.390   5.911  48.581  1.00  0.00     0.019 A 
HETATM   21  C14 UNL     1      23.730   6.230  49.866  1.00  0.00     0.013 A 
HETATM   22 BR1  UNL     1      24.092   8.040  50.341  1.00  0.00    -0.051 Br
HETATM   23  C15 UNL     1      23.806   5.232  50.806  1.00  0.00     0.048 A 
ENDBRANCH  15  17
ENDBRANCH   6  15
BRANCH   1  24
HETATM   24  C5  UNL     1      20.793  -0.400  54.242  1.00  0.00     0.072 C 
HETATM   25  C4  UNL     1      20.489  -0.543  52.969  1.00  0.00     0.008 C 
BRANCH  25  26
HETATM   26  C3  UNL     1      19.205  -0.108  52.372  1.00  0.00     0.299 C 
BRANCH  26  27
HETATM   27  N1  UNL     1      19.502   0.797  51.289  1.00  0.00     0.083 N 
HETATM   28  C1  UNL     1      19.116   2.155  51.533  1.00  0.00     0.309 C 
HETATM   29  C2  UNL     1      20.813   0.620  50.748  1.00  0.00     0.309 C 
ENDBRANCH  26  27
ENDBRANCH  25  26
ENDBRANCH   1  24
TORSDOF 5
ENDMDL
MODEL 8
REMARK VINA RESULT:      -8.1      3.278      7.437
REMARK  5 active torsions:
REMARK  status: ('A' for Active; 'I' for Inactive)
REMARK    1  A    between atoms: N1_2  and  C3_4 
REMARK    2  A    between atoms: C3_4  and  C4_5 
REMARK    3  A    between atoms: C5_6  and  C6_7 
REMARK       I    between atoms: C6_7  and  N2_9 
REMARK    4  A    between atoms: C9_12  and  N3_13 
REMARK    5  A    between atoms: N3_13  and  C10_14 
ROOT
HETATM    1  C6  UNL     1      25.028   3.983  49.634  1.00  0.00     0.247 C 
HETATM    2  O1  UNL     1      25.965   4.529  49.016  1.00  0.00    -0.268 OA
HETATM    3  N2  UNL     1      25.184   2.912  50.537  1.00  0.00    -0.320 N 
HETATM    4  C7  UNL     1      24.123   2.301  51.230  1.00  0.00     0.110 A 
HETATM    5  C8  UNL     1      24.206   1.301  52.084  1.00  0.00     0.037 A 
HETATM    6  C9  UNL     1      23.114   0.760  52.721  1.00  0.00     0.140 A 
HETATM    7  N4  UNL     1      23.414  -0.236  53.539  1.00  0.00    -0.241 NA
HETATM    8  C16 UNL     1      24.629  -0.732  53.782  1.00  0.00     0.142 A 
HETATM    9  C17 UNL     1      25.730  -0.202  53.152  1.00  0.00     0.073 A 
HETATM   10  C18 UNL     1      27.038  -0.736  53.413  1.00  0.00     0.102 C 
HETATM   11  N5  UNL     1      28.104  -1.160  53.636  1.00  0.00    -0.191 NA
HETATM   12  C19 UNL     1      25.481   0.826  52.299  1.00  0.00    -0.001 A 
HETATM   13  C20 UNL     1      26.551   1.326  51.700  1.00  0.00     0.007 A 
HETATM   14  C21 UNL     1      26.540   2.439  50.738  1.00  0.00     0.160 A 
ENDROOT
BRANCH   6  15
HETATM   15  N3  UNL     1      21.811   1.250  52.486  1.00  0.00    -0.340 N 
HETATM   16  H12 UNL     1      21.634   2.252  52.283  1.00  0.00     0.167 HD
BRANCH  15  17
HETATM   17  C10 UNL     1      20.597   0.548  52.480  1.00  0.00     0.035 A 
HETATM   18  C11 UNL     1      20.252  -0.306  53.497  1.00  0.00     0.029 A 
HETATM   19  C12 UNL     1      19.072  -1.015  53.516  1.00  0.00     0.004 A 
HETATM   20  C13 UNL     1      18.151  -0.912  52.502  1.00  0.00     0.019 A 
HETATM   21  C14 UNL     1      18.464  -0.070  51.473  1.00  0.00     0.013 A 
HETATM   22 BR1  UNL     1      17.258   0.150  50.013  1.00  0.00    -0.051 Br
HETATM   23  C15 UNL     1      19.655   0.614  51.504  1.00  0.00     0.048 A 
ENDBRANCH  15  17
ENDBRANCH   6  15
BRANCH   1  24
HETATM   24  C5  UNL     1      23.822   4.665  49.232  1.00  0.00     0.072 C 
HETATM   25  C4  UNL     1      23.973   5.969  49.136  1.00  0.00     0.008 C 
BRANCH  25  26
HETATM   26  C3  UNL     1      22.889   6.899  48.741  1.00  0.00     0.299 C 
BRANCH  26  27
HETATM   27  N1  UNL     1      22.647   7.794  49.846  1.00  0.00     0.083 N 
HETATM   28  C1  UNL     1      21.477   7.481  50.611  1.00  0.00     0.309 C 
HETATM   29  C2  UNL     1      23.820   8.082  50.608  1.00  0.00     0.309 C 
ENDBRANCH  26  27
ENDBRANCH  25  26
ENDBRANCH   1  24
TORSDOF 5
ENDMDL
MODEL 9
REMARK VINA RESULT:      -7.9      2.433      6.443
REMARK  5 active torsions:
REMARK  status: ('A' for Active; 'I' for Inactive)
REMARK    1  A    between atoms: N1_2  and  C3_4 
REMARK    2  A    between atoms: C3_4  and  C4_5 
REMARK    3  A    between atoms: C5_6  and  C6_7 
REMARK       I    between atoms: C6_7  and  N2_9 
REMARK    4  A    between atoms: C9_12  and  N3_13 
REMARK    5  A    between atoms: N3_13  and  C10_14 
ROOT
HETATM    1  C6  UNL     1      21.096   0.616  53.302  1.00  0.00     0.247 C 
HETATM    2  O1  UNL     1      20.363  -0.314  53.696  1.00  0.00    -0.268 OA
HETATM    3  N2  UNL     1      22.491   0.513  53.129  1.00  0.00    -0.320 N 
HETATM    4  C7  UNL     1      23.311   1.566  52.684  1.00  0.00     0.110 A 
HETATM    5  C8  UNL     1      24.616   1.532  52.503  1.00  0.00     0.037 A 
HETATM    6  C9  UNL     1      25.346   2.611  52.063  1.00  0.00     0.140 A 
HETATM    7  N4  UNL     1      26.640   2.367  51.947  1.00  0.00    -0.241 NA
HETATM    8  C16 UNL     1      27.263   1.215  52.209  1.00  0.00     0.142 A 
HETATM    9  C17 UNL     1      26.547   0.127  52.649  1.00  0.00     0.073 A 
HETATM   10  C18 UNL     1      27.217  -1.112  52.931  1.00  0.00     0.102 C 
HETATM   11  N5  UNL     1      27.759  -2.125  53.147  1.00  0.00    -0.191 NA
HETATM   12  C19 UNL     1      25.209   0.321  52.787  1.00  0.00    -0.001 A 
HETATM   13  C20 UNL     1      24.533  -0.735  53.212  1.00  0.00     0.007 A 
HETATM   14  C21 UNL     1      23.080  -0.775  53.438  1.00  0.00     0.160 A 
ENDROOT
BRANCH   6  15
HETATM   15  N3  UNL     1      24.728   3.849  51.783  1.00  0.00    -0.340 N 
HETATM   16  H12 UNL     1      24.545   4.548  52.528  1.00  0.00     0.167 HD
BRANCH  15  17
HETATM   17  C10 UNL     1      24.273   4.345  50.552  1.00  0.00     0.035 A 
HETATM   18  C11 UNL     1      24.566   5.618  50.134  1.00  0.00     0.029 A 
HETATM   19  C12 UNL     1      24.128   6.137  48.937  1.00  0.00     0.004 A 
HETATM   20  C13 UNL     1      23.356   5.401  48.071  1.00  0.00     0.019 A 
HETATM   21  C14 UNL     1      23.045   4.128  48.456  1.00  0.00     0.013 A 
HETATM   22 BR1  UNL     1      21.980   3.018  47.331  1.00  0.00    -0.051 Br
HETATM   23  C15 UNL     1      23.509   3.660  49.662  1.00  0.00     0.048 A 
ENDBRANCH  15  17
ENDBRANCH   6  15
BRANCH   1  24
HETATM   24  C5  UNL     1      20.232   1.749  53.079  1.00  0.00     0.072 C 
HETATM   25  C4  UNL     1      19.649   1.732  51.899  1.00  0.00     0.008 C 
BRANCH  25  26
HETATM   26  C3  UNL     1      18.715   2.779  51.423  1.00  0.00     0.299 C 
BRANCH  26  27
HETATM   27  N1  UNL     1      17.777   2.160  50.518  1.00  0.00     0.083 N 
HETATM   28  C1  UNL     1      17.482   2.939  49.353  1.00  0.00     0.309 C 
HETATM   29  C2  UNL     1      18.050   0.778  50.280  1.00  0.00     0.309 C 
ENDBRANCH  26  27
ENDBRANCH  25  26
ENDBRANCH   1  24
TORSDOF 5
ENDMDL
