MODEL 1
REMARK VINA RESULT:      -7.0      0.000      0.000
REMARK  6 active torsions:
REMARK  status: ('A' for Active; 'I' for Inactive)
REMARK    1  A    between atoms: O1_2  and  C2_3 
REMARK    2  A    between atoms: C5_6  and  N1_7 
REMARK       I    between atoms: N1_7  and  C6_8 
REMARK    3  A    between atoms: C6_8  and  C7_10 
REMARK    4  A    between atoms: C10_13  and  N2_14 
REMARK    5  A    between atoms: N2_14  and  C11_15 
REMARK    6  A    between atoms: N2_14  and  C12_17 
ROOT
HETATM    1  N1  UNL     1      26.530   3.494  50.895  1.00  0.00    -0.323 N 
HETATM    2  C6  UNL     1      26.029   3.965  49.649  1.00  0.00     0.256 C 
HETATM    3  O2  UNL     1      25.047   3.339  49.150  1.00  0.00    -0.267 OA
HETATM    4  H6  UNL     1      27.334   3.937  51.392  1.00  0.00     0.169 HD
ENDROOT
BRANCH   2   5
HETATM    5  C7  UNL     1      26.642   5.121  49.000  1.00  0.00     0.032 A 
HETATM    6  C8  UNL     1      26.034   6.325  48.712  1.00  0.00     0.019 A 
HETATM    7  C9  UNL     1      26.728   7.337  48.094  1.00  0.00     0.030 A 
HETATM    8  C10 UNL     1      28.070   7.209  47.727  1.00  0.00     0.032 A 
HETATM    9  C13 UNL     1      28.708   6.017  48.001  1.00  0.00     0.030 A 
HETATM   10  C14 UNL     1      27.986   4.996  48.631  1.00  0.00     0.019 A 
BRANCH   8  11
HETATM   11  N2  UNL     1      28.762   8.261  47.094  1.00  0.00    -0.355 N 
BRANCH  11  12
HETATM   12  C11 UNL     1      29.175   9.453  47.786  1.00  0.00     0.239 C 
HETATM   13 CL1  UNL     1      30.016   9.114  49.315  1.00  0.00    -0.109 Cl
ENDBRANCH  11  12
BRANCH  11  14
HETATM   14  C12 UNL     1      29.075   8.130  45.663  1.00  0.00     0.239 C 
HETATM   15 CL2  UNL     1      27.660   8.510  44.661  1.00  0.00    -0.109 Cl
ENDBRANCH  11  14
ENDBRANCH   8  11
ENDBRANCH   2   5
BRANCH   1  16
HETATM   16  C5  UNL     1      26.058   2.391  51.662  1.00  0.00     0.035 A 
HETATM   17  C4  UNL     1      26.704   1.187  51.598  1.00  0.00     0.032 A 
HETATM   18  C3  UNL     1      26.281   0.093  52.324  1.00  0.00     0.039 A 
HETATM   19  C2  UNL     1      25.174   0.216  53.138  1.00  0.00     0.068 A 
HETATM   20  C16 UNL     1      24.504   1.441  53.212  1.00  0.00     0.039 A 
HETATM   21  C15 UNL     1      24.932   2.544  52.479  1.00  0.00     0.032 A 
BRANCH  19  22
HETATM   22  O1  UNL     1      24.550  -0.712  53.958  1.00  0.00    -0.356 OA
HETATM   23  C1  UNL     1      23.140  -0.699  54.037  1.00  0.00     0.210 C 
ENDBRANCH  19  22
ENDBRANCH   1  16
TORSDOF 6
ENDMDL
MODEL 2
REMARK VINA RESULT:      -6.9      7.544     10.054
REMARK  6 active torsions:
REMARK  status: ('A' for Active; 'I' for Inactive)
REMARK    1  A    between atoms: O1_2  and  C2_3 
REMARK    2  A    between atoms: C5_6  and  N1_7 
REMARK       I    between atoms: N1_7  and  C6_8 
REMARK    3  A    between atoms: C6_8  and  C7_10 
REMARK    4  A    between atoms: C10_13  and  N2_14 
REMARK    5  A    between atoms: N2_14  and  C11_15 
REMARK    6  A    between atoms: N2_14  and  C12_17 
ROOT
HETATM    1  N1  UNL     1      24.056   0.237  52.774  1.00  0.00    -0.323 N 
HETATM    2  C6  UNL     1      23.089  -0.416  53.588  1.00  0.00     0.256 C 
HETATM    3  O2  UNL     1      23.511  -0.985  54.639  1.00  0.00    -0.267 OA
HETATM    4  H6  UNL     1      23.816   0.735  51.888  1.00  0.00     0.169 HD
ENDROOT
BRANCH   2   5
HETATM    5  C7  UNL     1      21.681  -0.414  53.201  1.00  0.00     0.032 A 
HETATM    6  C8  UNL     1      20.629  -0.956  53.909  1.00  0.00     0.019 A 
HETATM    7  C9  UNL     1      19.343  -0.886  53.430  1.00  0.00     0.030 A 
HETATM    8  C10 UNL     1      19.030  -0.270  52.216  1.00  0.00     0.032 A 
HETATM    9  C13 UNL     1      20.059   0.283  51.482  1.00  0.00     0.030 A 
HETATM   10  C14 UNL     1      21.363   0.202  51.985  1.00  0.00     0.019 A 
BRANCH   8  11
HETATM   11  N2  UNL     1      17.703  -0.210  51.744  1.00  0.00    -0.355 N 
BRANCH  11  12
HETATM   12  C11 UNL     1      17.339   0.438  50.512  1.00  0.00     0.239 C 
HETATM   13 CL1  UNL     1      16.481  -0.638  49.387  1.00  0.00    -0.109 Cl
ENDBRANCH  11  12
BRANCH  11  14
HETATM   14  C12 UNL     1      16.646  -0.840  52.550  1.00  0.00     0.239 C 
HETATM   15 CL2  UNL     1      15.247   0.238  52.727  1.00  0.00    -0.109 Cl
ENDBRANCH  11  14
ENDBRANCH   8  11
ENDBRANCH   2   5
BRANCH   1  16
HETATM   16  C5  UNL     1      25.459   0.333  52.997  1.00  0.00     0.035 A 
HETATM   17  C4  UNL     1      25.991   1.478  53.524  1.00  0.00     0.032 A 
HETATM   18  C3  UNL     1      27.344   1.614  53.756  1.00  0.00     0.039 A 
HETATM   19  C2  UNL     1      28.186   0.565  53.447  1.00  0.00     0.068 A 
HETATM   20  C16 UNL     1      27.656  -0.610  52.908  1.00  0.00     0.039 A 
HETATM   21  C15 UNL     1      26.290  -0.745  52.674  1.00  0.00     0.032 A 
BRANCH  19  22
HETATM   22  O1  UNL     1      29.561   0.443  53.579  1.00  0.00    -0.356 OA
HETATM   23  C1  UNL     1      30.123  -0.852  53.602  1.00  0.00     0.210 C 
ENDBRANCH  19  22
ENDBRANCH   1  16
TORSDOF 6
ENDMDL
MODEL 3
REMARK VINA RESULT:      -6.9      0.488      1.705
REMARK  6 active torsions:
REMARK  status: ('A' for Active; 'I' for Inactive)
REMARK    1  A    between atoms: O1_2  and  C2_3 
REMARK    2  A    between atoms: C5_6  and  N1_7 
REMARK       I    between atoms: N1_7  and  C6_8 
REMARK    3  A    between atoms: C6_8  and  C7_10 
REMARK    4  A    between atoms: C10_13  and  N2_14 
REMARK    5  A    between atoms: N2_14  and  C11_15 
REMARK    6  A    between atoms: N2_14  and  C12_17 
ROOT
HETATM    1  N1  UNL     1      26.533   3.504  50.878  1.00  0.00    -0.323 N 
HETATM    2  C6  UNL     1      26.056   4.000  49.633  1.00  0.00     0.256 C 
HETATM    3  O2  UNL     1      25.064   3.403  49.117  1.00  0.00    -0.267 OA
HETATM    4  H6  UNL     1      27.343   3.922  51.388  1.00  0.00     0.169 HD
ENDROOT
BRANCH   2   5
HETATM    5  C7  UNL     1      26.703   5.148  49.002  1.00  0.00     0.032 A 
HETATM    6  C8  UNL     1      26.137   6.380  48.751  1.00  0.00     0.019 A 
HETATM    7  C9  UNL     1      26.860   7.380  48.146  1.00  0.00     0.030 A 
HETATM    8  C10 UNL     1      28.191   7.210  47.758  1.00  0.00     0.032 A 
HETATM    9  C13 UNL     1      28.788   5.990  47.995  1.00  0.00     0.030 A 
HETATM   10  C14 UNL     1      28.037   4.982  48.611  1.00  0.00     0.019 A 
BRANCH   8  11
HETATM   11  N2  UNL     1      28.914   8.252  47.140  1.00  0.00    -0.355 N 
BRANCH  11  12
HETATM   12  C11 UNL     1      28.316   9.178  46.216  1.00  0.00     0.239 C 
HETATM   13 CL1  UNL     1      27.727   8.398  44.731  1.00  0.00    -0.109 Cl
ENDBRANCH  11  12
BRANCH  11  14
HETATM   14  C12 UNL     1      30.343   8.393  47.457  1.00  0.00     0.239 C 
HETATM   15 CL2  UNL     1      30.578   8.889  49.145  1.00  0.00    -0.109 Cl
ENDBRANCH  11  14
ENDBRANCH   8  11
ENDBRANCH   2   5
BRANCH   1  16
HETATM   16  C5  UNL     1      26.027   2.405  51.628  1.00  0.00     0.035 A 
HETATM   17  C4  UNL     1      26.666   1.196  51.586  1.00  0.00     0.032 A 
HETATM   18  C3  UNL     1      26.210   0.105  52.297  1.00  0.00     0.039 A 
HETATM   19  C2  UNL     1      25.077   0.237  53.073  1.00  0.00     0.068 A 
HETATM   20  C16 UNL     1      24.414   1.466  53.125  1.00  0.00     0.039 A 
HETATM   21  C15 UNL     1      24.876   2.566  52.406  1.00  0.00     0.032 A 
BRANCH  19  22
HETATM   22  O1  UNL     1      24.419  -0.687  53.872  1.00  0.00    -0.356 OA
HETATM   23  C1  UNL     1      23.008  -0.730  53.827  1.00  0.00     0.210 C 
ENDBRANCH  19  22
ENDBRANCH   1  16
TORSDOF 6
ENDMDL
MODEL 4
REMARK VINA RESULT:      -6.7      0.788      2.108
REMARK  6 active torsions:
REMARK  status: ('A' for Active; 'I' for Inactive)
REMARK    1  A    between atoms: O1_2  and  C2_3 
REMARK    2  A    between atoms: C5_6  and  N1_7 
REMARK       I    between atoms: N1_7  and  C6_8 
REMARK    3  A    between atoms: C6_8  and  C7_10 
REMARK    4  A    between atoms: C10_13  and  N2_14 
REMARK    5  A    between atoms: N2_14  and  C11_15 
REMARK    6  A    between atoms: N2_14  and  C12_17 
ROOT
HETATM    1  N1  UNL     1      26.632   3.494  50.822  1.00  0.00    -0.323 N 
HETATM    2  C6  UNL     1      26.168   4.040  49.593  1.00  0.00     0.256 C 
HETATM    3  O2  UNL     1      25.094   3.562  49.120  1.00  0.00    -0.267 OA
HETATM    4  H6  UNL     1      27.505   3.814  51.297  1.00  0.00     0.169 HD
ENDROOT
BRANCH   2   5
HETATM    5  C7  UNL     1      26.920   5.102  48.929  1.00  0.00     0.032 A 
HETATM    6  C8  UNL     1      28.243   5.060  48.543  1.00  0.00     0.019 A 
HETATM    7  C9  UNL     1      28.833   6.135  47.924  1.00  0.00     0.030 A 
HETATM    8  C10 UNL     1      28.139   7.316  47.654  1.00  0.00     0.032 A 
HETATM    9  C13 UNL     1      26.814   7.392  48.027  1.00  0.00     0.030 A 
HETATM   10  C14 UNL     1      26.228   6.287  48.657  1.00  0.00     0.019 A 
BRANCH   8  11
HETATM   11  N2  UNL     1      28.766   8.408  47.017  1.00  0.00    -0.355 N 
BRANCH  11  12
HETATM   12  C11 UNL     1      28.105   9.225  46.036  1.00  0.00     0.239 C 
HETATM   13 CL1  UNL     1      28.739  10.885  45.973  1.00  0.00    -0.109 Cl
ENDBRANCH  11  12
BRANCH  11  14
HETATM   14  C12 UNL     1      30.157   8.720  47.377  1.00  0.00     0.239 C 
HETATM   15 CL2  UNL     1      30.271   9.299  49.051  1.00  0.00    -0.109 Cl
ENDBRANCH  11  14
ENDBRANCH   8  11
ENDBRANCH   2   5
BRANCH   1  16
HETATM   16  C5  UNL     1      26.031   2.463  51.598  1.00  0.00     0.035 A 
HETATM   17  C4  UNL     1      24.891   2.719  52.310  1.00  0.00     0.032 A 
HETATM   18  C3  UNL     1      24.276   1.750  53.075  1.00  0.00     0.039 A 
HETATM   19  C2  UNL     1      24.826   0.486  53.125  1.00  0.00     0.068 A 
HETATM   20  C16 UNL     1      25.991   0.211  52.404  1.00  0.00     0.039 A 
HETATM   21  C15 UNL     1      26.611   1.190  51.632  1.00  0.00     0.032 A 
BRANCH  19  22
HETATM   22  O1  UNL     1      24.415  -0.650  53.806  1.00  0.00    -0.356 OA
HETATM   23  C1  UNL     1      23.051  -0.769  54.154  1.00  0.00     0.210 C 
ENDBRANCH  19  22
ENDBRANCH   1  16
TORSDOF 6
ENDMDL
MODEL 5
REMARK VINA RESULT:      -6.4      4.812      8.340
REMARK  6 active torsions:
REMARK  status: ('A' for Active; 'I' for Inactive)
REMARK    1  A    between atoms: O1_2  and  C2_3 
REMARK    2  A    between atoms: C5_6  and  N1_7 
REMARK       I    between atoms: N1_7  and  C6_8 
REMARK    3  A    between atoms: C6_8  and  C7_10 
REMARK    4  A    between atoms: C10_13  and  N2_14 
REMARK    5  A    between atoms: N2_14  and  C11_15 
REMARK    6  A    between atoms: N2_14  and  C12_17 
ROOT
HETATM    1  N1  UNL     1      29.766   5.769  49.002  1.00  0.00    -0.323 N 
HETATM    2  C6  UNL     1      28.660   6.159  48.196  1.00  0.00     0.256 C 
HETATM    3  O2  UNL     1      28.913   6.862  47.172  1.00  0.00    -0.267 OA
HETATM    4  H6  UNL     1      29.669   5.191  49.866  1.00  0.00     0.169 HD
ENDROOT
BRANCH   2   5
HETATM    5  C7  UNL     1      27.305   5.751  48.560  1.00  0.00     0.032 A 
HETATM    6  C8  UNL     1      26.162   6.517  48.476  1.00  0.00     0.019 A 
HETATM    7  C9  UNL     1      24.942   6.009  48.853  1.00  0.00     0.030 A 
HETATM    8  C10 UNL     1      24.790   4.707  49.336  1.00  0.00     0.032 A 
HETATM    9  C13 UNL     1      25.914   3.914  49.432  1.00  0.00     0.030 A 
HETATM   10  C14 UNL     1      27.149   4.447  49.043  1.00  0.00     0.019 A 
BRANCH   8  11
HETATM   11  N2  UNL     1      23.528   4.208  49.717  1.00  0.00    -0.355 N 
BRANCH  11  12
HETATM   12  C11 UNL     1      22.987   2.977  49.205  1.00  0.00     0.239 C 
HETATM   13 CL1  UNL     1      22.855   1.707  50.442  1.00  0.00    -0.109 Cl
ENDBRANCH  11  12
BRANCH  11  14
HETATM   14  C12 UNL     1      22.733   4.983  50.682  1.00  0.00     0.239 C 
HETATM   15 CL2  UNL     1      23.338   4.759  52.336  1.00  0.00    -0.109 Cl
ENDBRANCH  11  14
ENDBRANCH   8  11
ENDBRANCH   2   5
BRANCH   1  16
HETATM   16  C5  UNL     1      31.141   6.075  48.799  1.00  0.00     0.035 A 
HETATM   17  C4  UNL     1      31.985   5.127  48.287  1.00  0.00     0.032 A 
HETATM   18  C3  UNL     1      33.324   5.381  48.074  1.00  0.00     0.039 A 
HETATM   19  C2  UNL     1      33.828   6.627  48.387  1.00  0.00     0.068 A 
HETATM   20  C16 UNL     1      32.978   7.604  48.911  1.00  0.00     0.039 A 
HETATM   21  C15 UNL     1      31.627   7.346  49.126  1.00  0.00     0.032 A 
BRANCH  19  22
HETATM   22  O1  UNL     1      35.114   7.133  48.273  1.00  0.00    -0.356 OA
HETATM   23  C1  UNL     1      35.275   8.525  48.095  1.00  0.00     0.210 C 
ENDBRANCH  19  22
ENDBRANCH   1  16
TORSDOF 6
ENDMDL
MODEL 6
REMARK VINA RESULT:      -6.4      6.449      9.006
REMARK  6 active torsions:
REMARK  status: ('A' for Active; 'I' for Inactive)
REMARK    1  A    between atoms: O1_2  and  C2_3 
REMARK    2  A    between atoms: C5_6  and  N1_7 
REMARK       I    between atoms: N1_7  and  C6_8 
REMARK    3  A    between atoms: C6_8  and  C7_10 
REMARK    4  A    between atoms: C10_13  and  N2_14 
REMARK    5  A    between atoms: N2_14  and  C11_15 
REMARK    6  A    between atoms: N2_14  and  C12_17 
ROOT
HETATM    1  N1  UNL     1      20.295  -0.218  52.153  1.00  0.00    -0.323 N 
HETATM    2  C6  UNL     1      21.063   0.838  52.718  1.00  0.00     0.256 C 
HETATM    3  O2  UNL     1      20.431   1.865  53.108  1.00  0.00    -0.267 OA
HETATM    4  H6  UNL     1      20.715  -1.107  51.802  1.00  0.00     0.169 HD
ENDROOT
BRANCH   2   5
HETATM    5  C7  UNL     1      22.514   0.713  52.829  1.00  0.00     0.032 A 
HETATM    6  C8  UNL     1      23.460   1.462  52.162  1.00  0.00     0.019 A 
HETATM    7  C9  UNL     1      24.803   1.241  52.357  1.00  0.00     0.030 A 
HETATM    8  C10 UNL     1      25.280   0.261  53.230  1.00  0.00     0.032 A 
HETATM    9  C13 UNL     1      24.360  -0.506  53.914  1.00  0.00     0.030 A 
HETATM   10  C14 UNL     1      22.997  -0.268  53.703  1.00  0.00     0.019 A 
BRANCH   8  11
HETATM   11  N2  UNL     1      26.663   0.053  53.415  1.00  0.00    -0.355 N 
BRANCH  11  12
HETATM   12  C11 UNL     1      27.391  -0.998  52.755  1.00  0.00     0.239 C 
HETATM   13 CL1  UNL     1      29.069  -1.143  53.322  1.00  0.00    -0.109 Cl
ENDBRANCH  11  12
BRANCH  11  14
HETATM   14  C12 UNL     1      27.388   0.953  54.324  1.00  0.00     0.239 C 
HETATM   15 CL2  UNL     1      28.121   2.305  53.437  1.00  0.00    -0.109 Cl
ENDBRANCH  11  14
ENDBRANCH   8  11
ENDBRANCH   2   5
BRANCH   1  16
HETATM   16  C5  UNL     1      18.884  -0.265  51.969  1.00  0.00     0.035 A 
HETATM   17  C4  UNL     1      18.319   0.297  50.857  1.00  0.00     0.032 A 
HETATM   18  C3  UNL     1      16.957   0.273  50.639  1.00  0.00     0.039 A 
HETATM   19  C2  UNL     1      16.140  -0.334  51.570  1.00  0.00     0.068 A 
HETATM   20  C16 UNL     1      16.703  -0.911  52.712  1.00  0.00     0.039 A 
HETATM   21  C15 UNL     1      18.078  -0.886  52.930  1.00  0.00     0.032 A 
BRANCH  19  22
HETATM   22  O1  UNL     1      14.762  -0.492  51.594  1.00  0.00    -0.356 OA
HETATM   23  C1  UNL     1      14.236  -1.803  51.622  1.00  0.00     0.210 C 
ENDBRANCH  19  22
ENDBRANCH   1  16
TORSDOF 6
ENDMDL
MODEL 7
REMARK VINA RESULT:      -6.3      4.336      8.657
REMARK  6 active torsions:
REMARK  status: ('A' for Active; 'I' for Inactive)
REMARK    1  A    between atoms: O1_2  and  C2_3 
REMARK    2  A    between atoms: C5_6  and  N1_7 
REMARK       I    between atoms: N1_7  and  C6_8 
REMARK    3  A    between atoms: C6_8  and  C7_10 
REMARK    4  A    between atoms: C10_13  and  N2_14 
REMARK    5  A    between atoms: N2_14  and  C11_15 
REMARK    6  A    between atoms: N2_14  and  C12_17 
ROOT
HETATM    1  N1  UNL     1      26.012   5.691  50.219  1.00  0.00    -0.323 N 
HETATM    2  C6  UNL     1      25.117   4.586  50.177  1.00  0.00     0.256 C 
HETATM    3  O2  UNL     1      24.197   4.624  49.306  1.00  0.00    -0.267 OA
HETATM    4  H6  UNL     1      26.803   5.761  50.897  1.00  0.00     0.169 HD
ENDROOT
BRANCH   2   5
HETATM    5  C7  UNL     1      25.277   3.474  51.111  1.00  0.00     0.032 A 
HETATM    6  C8  UNL     1      24.403   3.104  52.111  1.00  0.00     0.019 A 
HETATM    7  C9  UNL     1      24.674   2.031  52.925  1.00  0.00     0.030 A 
HETATM    8  C10 UNL     1      25.833   1.263  52.789  1.00  0.00     0.032 A 
HETATM    9  C13 UNL     1      26.728   1.606  51.797  1.00  0.00     0.030 A 
HETATM   10  C14 UNL     1      26.436   2.702  50.977  1.00  0.00     0.019 A 
BRANCH   8  11
HETATM   11  N2  UNL     1      26.091   0.166  53.636  1.00  0.00    -0.355 N 
BRANCH  11  12
HETATM   12  C11 UNL     1      26.764   0.294  54.901  1.00  0.00     0.239 C 
HETATM   13 CL1  UNL     1      28.533   0.194  54.760  1.00  0.00    -0.109 Cl
ENDBRANCH  11  12
BRANCH  11  14
HETATM   14  C12 UNL     1      25.648  -1.169  53.203  1.00  0.00     0.239 C 
HETATM   15 CL2  UNL     1      26.986  -2.085  52.482  1.00  0.00    -0.109 Cl
ENDBRANCH  11  14
ENDBRANCH   8  11
ENDBRANCH   2   5
BRANCH   1  16
HETATM   16  C5  UNL     1      26.004   6.850  49.392  1.00  0.00     0.035 A 
HETATM   17  C4  UNL     1      26.687   6.850  48.207  1.00  0.00     0.032 A 
HETATM   18  C3  UNL     1      26.706   7.951  47.376  1.00  0.00     0.039 A 
HETATM   19  C2  UNL     1      26.016   9.085  47.750  1.00  0.00     0.068 A 
HETATM   20  C16 UNL     1      25.314   9.100  48.959  1.00  0.00     0.039 A 
HETATM   21  C15 UNL     1      25.297   7.988  49.797  1.00  0.00     0.032 A 
BRANCH  19  22
HETATM   22  O1  UNL     1      25.875  10.308  47.110  1.00  0.00    -0.356 OA
HETATM   23  C1  UNL     1      25.266  11.369  47.815  1.00  0.00     0.210 C 
ENDBRANCH  19  22
ENDBRANCH   1  16
TORSDOF 6
ENDMDL
MODEL 8
REMARK VINA RESULT:      -6.2      4.447      8.976
REMARK  6 active torsions:
REMARK  status: ('A' for Active; 'I' for Inactive)
REMARK    1  A    between atoms: O1_2  and  C2_3 
REMARK    2  A    between atoms: C5_6  and  N1_7 
REMARK       I    between atoms: N1_7  and  C6_8 
REMARK    3  A    between atoms: C6_8  and  C7_10 
REMARK    4  A    between atoms: C10_13  and  N2_14 
REMARK    5  A    between atoms: N2_14  and  C11_15 
REMARK    6  A    between atoms: N2_14  and  C12_17 
ROOT
HETATM    1  N1  UNL     1      26.037   5.243  50.164  1.00  0.00    -0.323 N 
HETATM    2  C6  UNL     1      24.889   4.427  49.962  1.00  0.00     0.256 C 
HETATM    3  O2  UNL     1      24.089   4.777  49.044  1.00  0.00    -0.267 OA
HETATM    4  H6  UNL     1      26.759   5.045  50.892  1.00  0.00     0.169 HD
ENDROOT
BRANCH   2   5
HETATM    5  C7  UNL     1      24.671   3.246  50.793  1.00  0.00     0.032 A 
HETATM    6  C8  UNL     1      23.459   2.766  51.244  1.00  0.00     0.019 A 
HETATM    7  C9  UNL     1      23.392   1.637  52.024  1.00  0.00     0.030 A 
HETATM    8  C10 UNL     1      24.530   0.920  52.400  1.00  0.00     0.032 A 
HETATM    9  C13 UNL     1      25.758   1.372  51.965  1.00  0.00     0.030 A 
HETATM   10  C14 UNL     1      25.808   2.524  51.171  1.00  0.00     0.019 A 
BRANCH   8  11
HETATM   11  N2  UNL     1      24.437  -0.237  53.202  1.00  0.00    -0.355 N 
BRANCH  11  12
HETATM   12  C11 UNL     1      23.183  -0.858  53.537  1.00  0.00     0.239 C 
HETATM   13 CL1  UNL     1      23.035  -1.234  55.268  1.00  0.00    -0.109 Cl
ENDBRANCH  11  12
BRANCH  11  14
HETATM   14  C12 UNL     1      25.681  -0.832  53.714  1.00  0.00     0.239 C 
HETATM   15 CL2  UNL     1      26.295   0.072  55.113  1.00  0.00    -0.109 Cl
ENDBRANCH  11  14
ENDBRANCH   8  11
ENDBRANCH   2   5
BRANCH   1  16
HETATM   16  C5  UNL     1      26.405   6.420  49.453  1.00  0.00     0.035 A 
HETATM   17  C4  UNL     1      27.224   6.332  48.360  1.00  0.00     0.032 A 
HETATM   18  C3  UNL     1      27.605   7.447  47.643  1.00  0.00     0.039 A 
HETATM   19  C2  UNL     1      27.146   8.687  48.037  1.00  0.00     0.068 A 
HETATM   20  C16 UNL     1      26.309   8.791  49.152  1.00  0.00     0.039 A 
HETATM   21  C15 UNL     1      25.926   7.665  49.875  1.00  0.00     0.032 A 
BRANCH  19  22
HETATM   22  O1  UNL     1      27.375   9.945  47.501  1.00  0.00    -0.356 OA
HETATM   23  C1  UNL     1      27.465  11.046  48.382  1.00  0.00     0.210 C 
ENDBRANCH  19  22
ENDBRANCH   1  16
TORSDOF 6
ENDMDL
MODEL 9
REMARK VINA RESULT:      -6.2      4.437      9.086
REMARK  6 active torsions:
REMARK  status: ('A' for Active; 'I' for Inactive)
REMARK    1  A    between atoms: O1_2  and  C2_3 
REMARK    2  A    between atoms: C5_6  and  N1_7 
REMARK       I    between atoms: N1_7  and  C6_8 
REMARK    3  A    between atoms: C6_8  and  C7_10 
REMARK    4  A    between atoms: C10_13  and  N2_14 
REMARK    5  A    between atoms: N2_14  and  C11_15 
REMARK    6  A    between atoms: N2_14  and  C12_17 
ROOT
HETATM    1  N1  UNL     1      27.028   4.901  49.377  1.00  0.00    -0.323 N 
HETATM    2  C6  UNL     1      25.766   4.264  49.538  1.00  0.00     0.256 C 
HETATM    3  O2  UNL     1      24.798   4.725  48.863  1.00  0.00    -0.267 OA
HETATM    4  H6  UNL     1      27.889   4.601  49.885  1.00  0.00     0.169 HD
ENDROOT
BRANCH   2   5
HETATM    5  C7  UNL     1      25.625   3.131  50.450  1.00  0.00     0.032 A 
HETATM    6  C8  UNL     1      26.644   2.432  51.061  1.00  0.00     0.019 A 
HETATM    7  C9  UNL     1      26.374   1.379  51.901  1.00  0.00     0.030 A 
HETATM    8  C10 UNL     1      25.071   0.963  52.183  1.00  0.00     0.032 A 
HETATM    9  C13 UNL     1      24.028   1.642  51.589  1.00  0.00     0.030 A 
HETATM   10  C14 UNL     1      24.321   2.711  50.735  1.00  0.00     0.019 A 
BRANCH   8  11
HETATM   11  N2  UNL     1      24.817  -0.120  53.050  1.00  0.00    -0.355 N 
BRANCH  11  12
HETATM   12  C11 UNL     1      25.864  -0.893  53.663  1.00  0.00     0.239 C 
HETATM   13 CL1  UNL     1      26.696  -1.969  52.518  1.00  0.00    -0.109 Cl
ENDBRANCH  11  12
BRANCH  11  14
HETATM   14  C12 UNL     1      23.418  -0.470  53.338  1.00  0.00     0.239 C 
HETATM   15 CL2  UNL     1      23.244  -1.115  54.983  1.00  0.00    -0.109 Cl
ENDBRANCH  11  14
ENDBRANCH   8  11
ENDBRANCH   2   5
BRANCH   1  16
HETATM   16  C5  UNL     1      27.343   6.008  48.539  1.00  0.00     0.035 A 
HETATM   17  C4  UNL     1      26.381   6.933  48.235  1.00  0.00     0.032 A 
HETATM   18  C3  UNL     1      26.644   8.019  47.428  1.00  0.00     0.039 A 
HETATM   19  C2  UNL     1      27.913   8.180  46.911  1.00  0.00     0.068 A 
HETATM   20  C16 UNL     1      28.905   7.242  47.212  1.00  0.00     0.039 A 
HETATM   21  C15 UNL     1      28.638   6.146  48.027  1.00  0.00     0.032 A 
BRANCH  19  22
HETATM   22  O1  UNL     1      28.432   9.166  46.085  1.00  0.00    -0.356 OA
HETATM   23  C1  UNL     1      27.698  10.360  45.920  1.00  0.00     0.210 C 
ENDBRANCH  19  22
ENDBRANCH   1  16
TORSDOF 6
ENDMDL
