MODEL 1
REMARK VINA RESULT:      -8.3      0.000      0.000
REMARK  9 active torsions:
REMARK  status: ('A' for Active; 'I' for Inactive)
REMARK    1  A    between atoms: C2_2  and  C3_3 
REMARK    2  A    between atoms: C4_5  and  C5_6 
REMARK    3  A    between atoms: C6_7  and  N1_8 
REMARK    4  A    between atoms: C6_7  and  C7_9 
REMARK    5  A    between atoms: C7_9  and  C8_10 
REMARK    6  A    between atoms: C7_9  and  C15_19 
REMARK    7  A    between atoms: C8_10  and  C9_11 
REMARK    8  A    between atoms: C14_17  and  O1_18 
REMARK       I    between atoms: C15_19  and  N2_21 
REMARK    9  A    between atoms: N2_21  and  C16_22 
ROOT
HETATM    1  C7  UNL     1      24.773   1.930  52.819  1.00  0.00     0.131 C 
ENDROOT
BRANCH   1   2
HETATM    2  C6  UNL     1      26.251   1.970  52.926  1.00  0.00     0.016 C 
HETATM    3  C5  UNL     1      26.962   1.259  53.786  1.00  0.00     0.028 C 
BRANCH   3   4
HETATM    4  C4  UNL     1      28.411   1.384  53.794  1.00  0.00     0.044 C 
HETATM    5  C3  UNL     1      29.223   0.366  53.601  1.00  0.00     0.115 C 
HETATM    6  F1  UNL     1      30.554   0.476  53.607  1.00  0.00    -0.206 F 
BRANCH   5   7
HETATM    7  C2  UNL     1      28.657  -0.952  53.367  1.00  0.00     0.032 C 
HETATM    8  C1  UNL     1      29.377  -2.041  53.293  1.00  0.00     0.014 C 
ENDBRANCH   5   7
ENDBRANCH   3   4
BRANCH   2   9
HETATM    9  N1  UNL     1      27.054   2.799  52.086  1.00  0.00    -0.402 N 
HETATM   10  H6  UNL     1      27.850   3.381  52.408  1.00  0.00     0.156 HD
HETATM   11  H7  UNL     1      27.160   3.094  51.083  1.00  0.00     0.156 HD
ENDBRANCH   2   9
ENDBRANCH   1   2
BRANCH   1  12
HETATM   12  C8  UNL     1      24.249   0.642  52.312  1.00  0.00     0.061 C 
BRANCH  12  13
HETATM   13  C9  UNL     1      23.043   0.105  52.927  1.00  0.00    -0.022 A 
HETATM   14  C10 UNL     1      23.293  -0.624  54.100  1.00  0.00     0.010 A 
HETATM   15  C11 UNL     1      22.319  -1.241  54.858  1.00  0.00     0.002 A 
HETATM   16  C12 UNL     1      21.018  -1.156  54.472  1.00  0.00     0.026 A 
HETATM   17  C13 UNL     1      20.719  -0.452  53.327  1.00  0.00     0.067 A 
HETATM   18 CL1  UNL     1      19.090  -0.268  52.723  1.00  0.00    -0.081 Cl
HETATM   19  C14 UNL     1      21.714   0.153  52.593  1.00  0.00     0.093 A 
BRANCH  19  20
HETATM   20  O1  UNL     1      21.437   0.865  51.443  1.00  0.00    -0.358 OA
HETATM   21  H14 UNL     1      21.504   0.534  50.512  1.00  0.00     0.217 HD
ENDBRANCH  19  20
ENDBRANCH  12  13
ENDBRANCH   1  12
BRANCH   1  22
HETATM   22  C15 UNL     1      24.220   3.113  52.143  1.00  0.00     0.232 C 
HETATM   23  O2  UNL     1      24.004   2.774  50.953  1.00  0.00    -0.272 OA
HETATM   24  N2  UNL     1      23.935   4.422  52.584  1.00  0.00    -0.327 N 
HETATM   25  H15 UNL     1      24.182   4.503  53.594  1.00  0.00     0.169 HD
BRANCH  24  26
HETATM   26  C16 UNL     1      23.411   5.484  51.852  1.00  0.00     0.034 A 
HETATM   27  C17 UNL     1      22.121   5.687  51.490  1.00  0.00     0.029 A 
HETATM   28  C18 UNL     1      21.662   6.775  50.751  1.00  0.00     0.002 A 
HETATM   29  C19 UNL     1      22.569   7.726  50.351  1.00  0.00     0.000 A 
HETATM   30  C20 UNL     1      23.891   7.545  50.706  1.00  0.00     0.002 A 
HETATM   31  C21 UNL     1      24.283   6.461  51.429  1.00  0.00     0.029 A 
ENDBRANCH  24  26
ENDBRANCH   1  22
TORSDOF 9
ENDMDL
MODEL 2
REMARK VINA RESULT:      -8.3      3.945      6.214
REMARK  9 active torsions:
REMARK  status: ('A' for Active; 'I' for Inactive)
REMARK    1  A    between atoms: C2_2  and  C3_3 
REMARK    2  A    between atoms: C4_5  and  C5_6 
REMARK    3  A    between atoms: C6_7  and  N1_8 
REMARK    4  A    between atoms: C6_7  and  C7_9 
REMARK    5  A    between atoms: C7_9  and  C8_10 
REMARK    6  A    between atoms: C7_9  and  C15_19 
REMARK    7  A    between atoms: C8_10  and  C9_11 
REMARK    8  A    between atoms: C14_17  and  O1_18 
REMARK       I    between atoms: C15_19  and  N2_21 
REMARK    9  A    between atoms: N2_21  and  C16_22 
ROOT
HETATM    1  C7  UNL     1      24.008   1.582  51.604  1.00  0.00     0.131 C 
ENDROOT
BRANCH   1   2
HETATM    2  C6  UNL     1      22.534   1.550  51.446  1.00  0.00     0.016 C 
HETATM    3  C5  UNL     1      21.820   0.450  51.269  1.00  0.00     0.028 C 
BRANCH   3   4
HETATM    4  C4  UNL     1      20.375   0.548  51.128  1.00  0.00     0.044 C 
HETATM    5  C3  UNL     1      19.533   0.157  52.061  1.00  0.00     0.115 C 
HETATM    6  F1  UNL     1      18.206   0.245  51.936  1.00  0.00    -0.206 F 
BRANCH   5   7
HETATM    7  C2  UNL     1      20.057  -0.400  53.297  1.00  0.00     0.032 C 
HETATM    8  C1  UNL     1      20.486   0.332  54.291  1.00  0.00     0.014 C 
ENDBRANCH   5   7
ENDBRANCH   3   4
BRANCH   2   9
HETATM    9  N1  UNL     1      21.738   2.735  51.475  1.00  0.00    -0.402 N 
HETATM   10  H6  UNL     1      20.702   2.760  51.414  1.00  0.00     0.156 HD
HETATM   11  H7  UNL     1      21.824   3.780  51.548  1.00  0.00     0.156 HD
ENDBRANCH   2   9
ENDBRANCH   1   2
BRANCH   1  12
HETATM   12  C8  UNL     1      24.464   1.281  52.979  1.00  0.00     0.061 C 
BRANCH  12  13
HETATM   13  C9  UNL     1      25.842   0.847  53.163  1.00  0.00    -0.022 A 
HETATM   14  C10 UNL     1      26.064  -0.483  52.773  1.00  0.00     0.010 A 
HETATM   15  C11 UNL     1      27.279  -1.129  52.860  1.00  0.00     0.002 A 
HETATM   16  C12 UNL     1      28.358  -0.462  53.351  1.00  0.00     0.026 A 
HETATM   17  C13 UNL     1      28.194   0.846  53.748  1.00  0.00     0.067 A 
HETATM   18 CL1  UNL     1      29.496   1.814  54.395  1.00  0.00    -0.081 Cl
HETATM   19  C14 UNL     1      26.967   1.463  53.647  1.00  0.00     0.093 A 
BRANCH  19  20
HETATM   20  O1  UNL     1      26.780   2.774  54.037  1.00  0.00    -0.358 OA
HETATM   21  H14 UNL     1      26.541   3.092  54.944  1.00  0.00     0.217 HD
ENDBRANCH  19  20
ENDBRANCH  12  13
ENDBRANCH   1  12
BRANCH   1  22
HETATM   22  C15 UNL     1      24.616   2.784  51.016  1.00  0.00     0.232 C 
HETATM   23  O2  UNL     1      24.557   3.679  51.896  1.00  0.00    -0.272 OA
HETATM   24  N2  UNL     1      25.185   3.050  49.754  1.00  0.00    -0.327 N 
HETATM   25  H15 UNL     1      25.140   2.187  49.170  1.00  0.00     0.169 HD
BRANCH  24  26
HETATM   26  C16 UNL     1      25.736   4.241  49.289  1.00  0.00     0.034 A 
HETATM   27  C17 UNL     1      25.098   5.407  49.028  1.00  0.00     0.029 A 
HETATM   28  C18 UNL     1      25.712   6.566  48.560  1.00  0.00     0.002 A 
HETATM   29  C19 UNL     1      27.068   6.546  48.339  1.00  0.00     0.000 A 
HETATM   30  C20 UNL     1      27.746   5.371  48.596  1.00  0.00     0.002 A 
HETATM   31  C21 UNL     1      27.093   4.268  49.053  1.00  0.00     0.029 A 
ENDBRANCH  24  26
ENDBRANCH   1  22
TORSDOF 9
ENDMDL
MODEL 3
REMARK VINA RESULT:      -8.1      3.742      7.824
REMARK  9 active torsions:
REMARK  status: ('A' for Active; 'I' for Inactive)
REMARK    1  A    between atoms: C2_2  and  C3_3 
REMARK    2  A    between atoms: C4_5  and  C5_6 
REMARK    3  A    between atoms: C6_7  and  N1_8 
REMARK    4  A    between atoms: C6_7  and  C7_9 
REMARK    5  A    between atoms: C7_9  and  C8_10 
REMARK    6  A    between atoms: C7_9  and  C15_19 
REMARK    7  A    between atoms: C8_10  and  C9_11 
REMARK    8  A    between atoms: C14_17  and  O1_18 
REMARK       I    between atoms: C15_19  and  N2_21 
REMARK    9  A    between atoms: N2_21  and  C16_22 
ROOT
HETATM    1  C7  UNL     1      25.147   3.246  51.188  1.00  0.00     0.131 C 
ENDROOT
BRANCH   1   2
HETATM    2  C6  UNL     1      23.850   2.952  51.844  1.00  0.00     0.016 C 
HETATM    3  C5  UNL     1      23.379   1.736  52.068  1.00  0.00     0.028 C 
BRANCH   3   4
HETATM    4  C4  UNL     1      22.090   1.575  52.723  1.00  0.00     0.044 C 
HETATM    5  C3  UNL     1      21.829   0.601  53.568  1.00  0.00     0.115 C 
HETATM    6  F1  UNL     1      20.647   0.449  54.172  1.00  0.00    -0.206 F 
BRANCH   5   7
HETATM    7  C2  UNL     1      22.869  -0.369  53.871  1.00  0.00     0.032 C 
HETATM    8  C1  UNL     1      22.805  -1.200  54.878  1.00  0.00     0.014 C 
ENDBRANCH   5   7
ENDBRANCH   3   4
BRANCH   2   9
HETATM    9  N1  UNL     1      22.977   3.983  52.303  1.00  0.00    -0.402 N 
HETATM   10  H6  UNL     1      22.278   4.479  51.717  1.00  0.00     0.156 HD
HETATM   11  H7  UNL     1      22.731   4.528  53.169  1.00  0.00     0.156 HD
ENDBRANCH   2   9
ENDBRANCH   1   2
BRANCH   1  12
HETATM   12  C8  UNL     1      25.039   3.455  49.727  1.00  0.00     0.061 C 
BRANCH  12  13
HETATM   13  C9  UNL     1      25.461   4.739  49.187  1.00  0.00    -0.022 A 
HETATM   14  C10 UNL     1      24.389   5.588  48.868  1.00  0.00     0.010 A 
HETATM   15  C11 UNL     1      24.528   6.851  48.331  1.00  0.00     0.002 A 
HETATM   16  C12 UNL     1      25.773   7.340  48.083  1.00  0.00     0.026 A 
HETATM   17  C13 UNL     1      26.858   6.547  48.378  1.00  0.00     0.067 A 
HETATM   18 CL1  UNL     1      28.508   7.054  48.109  1.00  0.00    -0.081 Cl
HETATM   19  C14 UNL     1      26.686   5.290  48.914  1.00  0.00     0.093 A 
BRANCH  19  20
HETATM   20  O1  UNL     1      27.760   4.478  49.220  1.00  0.00    -0.358 OA
HETATM   21  H14 UNL     1      27.908   3.551  48.905  1.00  0.00     0.217 HD
ENDBRANCH  19  20
ENDBRANCH  12  13
ENDBRANCH   1  12
BRANCH   1  22
HETATM   22  C15 UNL     1      26.210   2.312  51.587  1.00  0.00     0.232 C 
HETATM   23  O2  UNL     1      26.837   2.019  50.540  1.00  0.00    -0.272 OA
HETATM   24  N2  UNL     1      26.582   1.760  52.830  1.00  0.00    -0.327 N 
HETATM   25  H15 UNL     1      25.945   2.124  53.571  1.00  0.00     0.169 HD
BRANCH  24  26
HETATM   26  C16 UNL     1      27.616   0.868  53.103  1.00  0.00     0.034 A 
HETATM   27  C17 UNL     1      28.869   1.154  53.530  1.00  0.00     0.029 A 
HETATM   28  C18 UNL     1      29.861   0.210  53.783  1.00  0.00     0.002 A 
HETATM   29  C19 UNL     1      29.567  -1.118  53.591  1.00  0.00     0.000 A 
HETATM   30  C20 UNL     1      28.297  -1.440  53.156  1.00  0.00     0.002 A 
HETATM   31  C21 UNL     1      27.366  -0.474  52.925  1.00  0.00     0.029 A 
ENDBRANCH  24  26
ENDBRANCH   1  22
TORSDOF 9
ENDMDL
MODEL 4
REMARK VINA RESULT:      -8.0      3.618      6.361
REMARK  9 active torsions:
REMARK  status: ('A' for Active; 'I' for Inactive)
REMARK    1  A    between atoms: C2_2  and  C3_3 
REMARK    2  A    between atoms: C4_5  and  C5_6 
REMARK    3  A    between atoms: C6_7  and  N1_8 
REMARK    4  A    between atoms: C6_7  and  C7_9 
REMARK    5  A    between atoms: C7_9  and  C8_10 
REMARK    6  A    between atoms: C7_9  and  C15_19 
REMARK    7  A    between atoms: C8_10  and  C9_11 
REMARK    8  A    between atoms: C14_17  and  O1_18 
REMARK       I    between atoms: C15_19  and  N2_21 
REMARK    9  A    between atoms: N2_21  and  C16_22 
ROOT
HETATM    1  C7  UNL     1      25.325   3.907  49.983  1.00  0.00     0.131 C 
ENDROOT
BRANCH   1   2
HETATM    2  C6  UNL     1      25.943   5.219  49.673  1.00  0.00     0.016 C 
HETATM    3  C5  UNL     1      26.776   5.440  48.669  1.00  0.00     0.028 C 
BRANCH   3   4
HETATM    4  C4  UNL     1      27.317   6.775  48.466  1.00  0.00     0.044 C 
HETATM    5  C3  UNL     1      28.578   7.003  48.164  1.00  0.00     0.115 C 
HETATM    6  F1  UNL     1      29.079   8.226  47.977  1.00  0.00    -0.206 F 
BRANCH   5   7
HETATM    7  C2  UNL     1      29.485   5.875  48.025  1.00  0.00     0.032 C 
HETATM    8  C1  UNL     1      30.786   5.997  48.003  1.00  0.00     0.014 C 
ENDBRANCH   5   7
ENDBRANCH   3   4
BRANCH   2   9
HETATM    9  N1  UNL     1      25.682   6.387  50.451  1.00  0.00    -0.402 N 
HETATM   10  H6  UNL     1      26.294   7.225  50.493  1.00  0.00     0.156 HD
HETATM   11  H7  UNL     1      24.977   6.790  51.118  1.00  0.00     0.156 HD
ENDBRANCH   2   9
ENDBRANCH   1   2
BRANCH   1  12
HETATM   12  C8  UNL     1      23.953   4.012  50.527  1.00  0.00     0.061 C 
BRANCH  12  13
HETATM   13  C9  UNL     1      23.115   2.821  50.503  1.00  0.00    -0.022 A 
HETATM   14  C10 UNL     1      22.528   2.577  49.251  1.00  0.00     0.010 A 
HETATM   15  C11 UNL     1      21.685   1.520  48.977  1.00  0.00     0.002 A 
HETATM   16  C12 UNL     1      21.382   0.633  49.963  1.00  0.00     0.026 A 
HETATM   17  C13 UNL     1      21.933   0.827  51.210  1.00  0.00     0.067 A 
HETATM   18 CL1  UNL     1      21.625  -0.237  52.561  1.00  0.00    -0.081 Cl
HETATM   19  C14 UNL     1      22.771   1.892  51.451  1.00  0.00     0.093 A 
BRANCH  19  20
HETATM   20  O1  UNL     1      23.335   2.105  52.693  1.00  0.00    -0.358 OA
HETATM   21  H14 UNL     1      22.900   1.966  53.572  1.00  0.00     0.217 HD
ENDBRANCH  19  20
ENDBRANCH  12  13
ENDBRANCH   1  12
BRANCH   1  22
HETATM   22  C15 UNL     1      26.214   3.030  50.757  1.00  0.00     0.232 C 
HETATM   23  O2  UNL     1      26.944   2.438  49.923  1.00  0.00    -0.272 OA
HETATM   24  N2  UNL     1      26.349   2.781  52.138  1.00  0.00    -0.327 N 
HETATM   25  H15 UNL     1      25.661   3.365  52.660  1.00  0.00     0.169 HD
BRANCH  24  26
HETATM   26  C16 UNL     1      27.233   1.915  52.777  1.00  0.00     0.034 A 
HETATM   27  C17 UNL     1      28.332   2.234  53.502  1.00  0.00     0.029 A 
HETATM   28  C18 UNL     1      29.178   1.313  54.115  1.00  0.00     0.002 A 
HETATM   29  C19 UNL     1      28.895  -0.025  53.987  1.00  0.00     0.000 A 
HETATM   30  C20 UNL     1      27.780  -0.380  53.254  1.00  0.00     0.002 A 
HETATM   31  C21 UNL     1      26.988   0.564  52.676  1.00  0.00     0.029 A 
ENDBRANCH  24  26
ENDBRANCH   1  22
TORSDOF 9
ENDMDL
MODEL 5
REMARK VINA RESULT:      -7.9      2.622      5.995
REMARK  9 active torsions:
REMARK  status: ('A' for Active; 'I' for Inactive)
REMARK    1  A    between atoms: C2_2  and  C3_3 
REMARK    2  A    between atoms: C4_5  and  C5_6 
REMARK    3  A    between atoms: C6_7  and  N1_8 
REMARK    4  A    between atoms: C6_7  and  C7_9 
REMARK    5  A    between atoms: C7_9  and  C8_10 
REMARK    6  A    between atoms: C7_9  and  C15_19 
REMARK    7  A    between atoms: C8_10  and  C9_11 
REMARK    8  A    between atoms: C14_17  and  O1_18 
REMARK       I    between atoms: C15_19  and  N2_21 
REMARK    9  A    between atoms: N2_21  and  C16_22 
ROOT
HETATM    1  C7  UNL     1      23.998   1.421  51.788  1.00  0.00     0.131 C 
ENDROOT
BRANCH   1   2
HETATM    2  C6  UNL     1      23.902   2.535  50.814  1.00  0.00     0.016 C 
HETATM    3  C5  UNL     1      24.434   3.734  50.987  1.00  0.00     0.028 C 
BRANCH   3   4
HETATM    4  C4  UNL     1      24.272   4.747  49.955  1.00  0.00     0.044 C 
HETATM    5  C3  UNL     1      25.255   5.145  49.177  1.00  0.00     0.115 C 
HETATM    6  F1  UNL     1      25.111   6.074  48.228  1.00  0.00    -0.206 F 
BRANCH   5   7
HETATM    7  C2  UNL     1      26.572   4.554  49.345  1.00  0.00     0.032 C 
HETATM    8  C1  UNL     1      27.614   4.903  48.636  1.00  0.00     0.014 C 
ENDBRANCH   5   7
ENDBRANCH   3   4
BRANCH   2   9
HETATM    9  N1  UNL     1      23.209   2.405  49.573  1.00  0.00    -0.402 N 
HETATM   10  H6  UNL     1      22.178   2.343  49.469  1.00  0.00     0.156 HD
HETATM   11  H7  UNL     1      23.382   2.334  48.538  1.00  0.00     0.156 HD
ENDBRANCH   2   9
ENDBRANCH   1   2
BRANCH   1  12
HETATM   12  C8  UNL     1      23.177   1.623  53.003  1.00  0.00     0.061 C 
BRANCH  12  13
HETATM   13  C9  UNL     1      22.168   0.622  53.320  1.00  0.00    -0.022 A 
HETATM   14  C10 UNL     1      22.643  -0.405  54.150  1.00  0.00     0.010 A 
HETATM   15  C11 UNL     1      21.885  -1.474  54.581  1.00  0.00     0.002 A 
HETATM   16  C12 UNL     1      20.584  -1.569  54.196  1.00  0.00     0.026 A 
HETATM   17  C13 UNL     1      20.068  -0.586  53.381  1.00  0.00     0.067 A 
HETATM   18 CL1  UNL     1      18.415  -0.590  52.816  1.00  0.00    -0.081 Cl
HETATM   19  C14 UNL     1      20.852   0.468  52.969  1.00  0.00     0.093 A 
BRANCH  19  20
HETATM   20  O1  UNL     1      20.355   1.466  52.154  1.00  0.00    -0.358 OA
HETATM   21  H14 UNL     1      19.438   1.526  51.784  1.00  0.00     0.217 HD
ENDBRANCH  19  20
ENDBRANCH  12  13
ENDBRANCH   1  12
BRANCH   1  22
HETATM   22  C15 UNL     1      25.387   1.022  52.058  1.00  0.00     0.232 C 
HETATM   23  O2  UNL     1      26.056   1.355  51.049  1.00  0.00    -0.272 OA
HETATM   24  N2  UNL     1      26.004   0.390  53.157  1.00  0.00    -0.327 N 
HETATM   25  H15 UNL     1      25.287   0.197  53.889  1.00  0.00     0.169 HD
BRANCH  24  26
HETATM   26  C16 UNL     1      27.345   0.048  53.314  1.00  0.00     0.034 A 
HETATM   27  C17 UNL     1      28.370   0.850  53.689  1.00  0.00     0.029 A 
HETATM   28  C18 UNL     1      29.695   0.443  53.825  1.00  0.00     0.002 A 
HETATM   29  C19 UNL     1      30.007  -0.869  53.563  1.00  0.00     0.000 A 
HETATM   30  C20 UNL     1      28.982  -1.711  53.179  1.00  0.00     0.002 A 
HETATM   31  C21 UNL     1      27.705  -1.257  53.063  1.00  0.00     0.029 A 
ENDBRANCH  24  26
ENDBRANCH   1  22
TORSDOF 9
ENDMDL
MODEL 6
REMARK VINA RESULT:      -7.8      2.930      6.548
REMARK  9 active torsions:
REMARK  status: ('A' for Active; 'I' for Inactive)
REMARK    1  A    between atoms: C2_2  and  C3_3 
REMARK    2  A    between atoms: C4_5  and  C5_6 
REMARK    3  A    between atoms: C6_7  and  N1_8 
REMARK    4  A    between atoms: C6_7  and  C7_9 
REMARK    5  A    between atoms: C7_9  and  C8_10 
REMARK    6  A    between atoms: C7_9  and  C15_19 
REMARK    7  A    between atoms: C8_10  and  C9_11 
REMARK    8  A    between atoms: C14_17  and  O1_18 
REMARK       I    between atoms: C15_19  and  N2_21 
REMARK    9  A    between atoms: N2_21  and  C16_22 
ROOT
HETATM    1  C7  UNL     1      24.208   1.617  51.811  1.00  0.00     0.131 C 
ENDROOT
BRANCH   1   2
HETATM    2  C6  UNL     1      24.307   2.857  51.004  1.00  0.00     0.016 C 
HETATM    3  C5  UNL     1      23.765   3.021  49.808  1.00  0.00     0.028 C 
BRANCH   3   4
HETATM    4  C4  UNL     1      23.930   4.288  49.113  1.00  0.00     0.044 C 
HETATM    5  C3  UNL     1      23.113   4.704  48.169  1.00  0.00     0.115 C 
HETATM    6  F1  UNL     1      23.260   5.866  47.529  1.00  0.00    -0.206 F 
BRANCH   5   7
HETATM    7  C2  UNL     1      21.986   3.866  47.792  1.00  0.00     0.032 C 
HETATM    8  C1  UNL     1      21.842   3.348  46.600  1.00  0.00     0.014 C 
ENDBRANCH   5   7
ENDBRANCH   3   4
BRANCH   2   9
HETATM    9  N1  UNL     1      25.012   4.010  51.461  1.00  0.00    -0.402 N 
HETATM   10  H6  UNL     1      24.674   4.988  51.380  1.00  0.00     0.156 HD
HETATM   11  H7  UNL     1      25.907   4.292  51.935  1.00  0.00     0.156 HD
ENDBRANCH   2   9
ENDBRANCH   1   2
BRANCH   1  12
HETATM   12  C8  UNL     1      23.356   1.757  53.012  1.00  0.00     0.061 C 
BRANCH  12  13
HETATM   13  C9  UNL     1      22.255   0.819  53.183  1.00  0.00    -0.022 A 
HETATM   14  C10 UNL     1      22.538  -0.212  54.094  1.00  0.00     0.010 A 
HETATM   15  C11 UNL     1      21.664  -1.229  54.417  1.00  0.00     0.002 A 
HETATM   16  C12 UNL     1      20.436  -1.265  53.835  1.00  0.00     0.026 A 
HETATM   17  C13 UNL     1      20.108  -0.276  52.935  1.00  0.00     0.067 A 
HETATM   18 CL1  UNL     1      18.565  -0.208  52.118  1.00  0.00    -0.081 Cl
HETATM   19  C14 UNL     1      21.003   0.725  52.633  1.00  0.00     0.093 A 
BRANCH  19  20
HETATM   20  O1  UNL     1      20.696   1.727  51.735  1.00  0.00    -0.358 OA
HETATM   21  H14 UNL     1      20.571   1.627  50.757  1.00  0.00     0.217 HD
ENDBRANCH  19  20
ENDBRANCH  12  13
ENDBRANCH   1  12
BRANCH   1  22
HETATM   22  C15 UNL     1      25.519   1.003  52.070  1.00  0.00     0.232 C 
HETATM   23  O2  UNL     1      26.316   1.500  51.237  1.00  0.00    -0.272 OA
HETATM   24  N2  UNL     1      25.959   0.046  53.008  1.00  0.00    -0.327 N 
HETATM   25  H15 UNL     1      25.155  -0.241  53.607  1.00  0.00     0.169 HD
BRANCH  24  26
HETATM   26  C16 UNL     1      27.238  -0.479  53.169  1.00  0.00     0.034 A 
HETATM   27  C17 UNL     1      27.667  -1.731  52.877  1.00  0.00     0.029 A 
HETATM   28  C18 UNL     1      28.966  -2.195  53.068  1.00  0.00     0.002 A 
HETATM   29  C19 UNL     1      29.900  -1.333  53.590  1.00  0.00     0.000 A 
HETATM   30  C20 UNL     1      29.492  -0.050  53.897  1.00  0.00     0.002 A 
HETATM   31  C21 UNL     1      28.208   0.348  53.690  1.00  0.00     0.029 A 
ENDBRANCH  24  26
ENDBRANCH   1  22
TORSDOF 9
ENDMDL
MODEL 7
REMARK VINA RESULT:      -7.7      3.721      6.919
REMARK  9 active torsions:
REMARK  status: ('A' for Active; 'I' for Inactive)
REMARK    1  A    between atoms: C2_2  and  C3_3 
REMARK    2  A    between atoms: C4_5  and  C5_6 
REMARK    3  A    between atoms: C6_7  and  N1_8 
REMARK    4  A    between atoms: C6_7  and  C7_9 
REMARK    5  A    between atoms: C7_9  and  C8_10 
REMARK    6  A    between atoms: C7_9  and  C15_19 
REMARK    7  A    between atoms: C8_10  and  C9_11 
REMARK    8  A    between atoms: C14_17  and  O1_18 
REMARK       I    between atoms: C15_19  and  N2_21 
REMARK    9  A    between atoms: N2_21  and  C16_22 
ROOT
HETATM    1  C7  UNL     1      25.173   2.688  51.576  1.00  0.00     0.131 C 
ENDROOT
BRANCH   1   2
HETATM    2  C6  UNL     1      24.767   3.628  50.502  1.00  0.00     0.016 C 
HETATM    3  C5  UNL     1      25.535   4.588  50.014  1.00  0.00     0.028 C 
BRANCH   3   4
HETATM    4  C4  UNL     1      25.024   5.448  48.958  1.00  0.00     0.044 C 
HETATM    5  C3  UNL     1      25.733   6.408  48.404  1.00  0.00     0.115 C 
HETATM    6  F1  UNL     1      25.268   7.200  47.435  1.00  0.00    -0.206 F 
BRANCH   5   7
HETATM    7  C2  UNL     1      27.095   6.632  48.861  1.00  0.00     0.032 C 
HETATM    8  C1  UNL     1      28.149   6.212  48.212  1.00  0.00     0.014 C 
ENDBRANCH   5   7
ENDBRANCH   3   4
BRANCH   2   9
HETATM    9  N1  UNL     1      23.480   3.573  49.888  1.00  0.00    -0.402 N 
HETATM   10  H6  UNL     1      23.092   4.294  49.250  1.00  0.00     0.156 HD
HETATM   11  H7  UNL     1      22.622   2.968  49.830  1.00  0.00     0.156 HD
ENDBRANCH   2   9
ENDBRANCH   1   2
BRANCH   1  12
HETATM   12  C8  UNL     1      26.294   1.801  51.195  1.00  0.00     0.061 C 
BRANCH  12  13
HETATM   13  C9  UNL     1      27.151   1.287  52.255  1.00  0.00    -0.022 A 
HETATM   14  C10 UNL     1      26.968  -0.082  52.505  1.00  0.00     0.010 A 
HETATM   15  C11 UNL     1      27.651  -0.797  53.466  1.00  0.00     0.002 A 
HETATM   16  C12 UNL     1      28.573  -0.165  54.241  1.00  0.00     0.026 A 
HETATM   17  C13 UNL     1      28.791   1.179  54.035  1.00  0.00     0.067 A 
HETATM   18 CL1  UNL     1      29.945   2.107  54.961  1.00  0.00    -0.081 Cl
HETATM   19  C14 UNL     1      28.092   1.864  53.067  1.00  0.00     0.093 A 
BRANCH  19  20
HETATM   20  O1  UNL     1      28.295   3.211  52.842  1.00  0.00    -0.358 OA
HETATM   21  H14 UNL     1      29.159   3.654  52.646  1.00  0.00     0.217 HD
ENDBRANCH  19  20
ENDBRANCH  12  13
ENDBRANCH   1  12
BRANCH   1  22
HETATM   22  C15 UNL     1      24.030   1.989  52.180  1.00  0.00     0.232 C 
HETATM   23  O2  UNL     1      23.415   2.841  52.869  1.00  0.00    -0.272 OA
HETATM   24  N2  UNL     1      23.578   0.655  52.111  1.00  0.00    -0.327 N 
HETATM   25  H15 UNL     1      24.216   0.109  51.494  1.00  0.00     0.169 HD
BRANCH  24  26
HETATM   26  C16 UNL     1      22.470   0.086  52.734  1.00  0.00     0.034 A 
HETATM   27  C17 UNL     1      22.452  -0.727  53.818  1.00  0.00     0.029 A 
HETATM   28  C18 UNL     1      21.304  -1.268  54.391  1.00  0.00     0.002 A 
HETATM   29  C19 UNL     1      20.086  -0.965  53.831  1.00  0.00     0.000 A 
HETATM   30  C20 UNL     1      20.073  -0.138  52.726  1.00  0.00     0.002 A 
HETATM   31  C21 UNL     1      21.228   0.362  52.207  1.00  0.00     0.029 A 
ENDBRANCH  24  26
ENDBRANCH   1  22
TORSDOF 9
ENDMDL
MODEL 8
REMARK VINA RESULT:      -7.7      2.974      6.075
REMARK  9 active torsions:
REMARK  status: ('A' for Active; 'I' for Inactive)
REMARK    1  A    between atoms: C2_2  and  C3_3 
REMARK    2  A    between atoms: C4_5  and  C5_6 
REMARK    3  A    between atoms: C6_7  and  N1_8 
REMARK    4  A    between atoms: C6_7  and  C7_9 
REMARK    5  A    between atoms: C7_9  and  C8_10 
REMARK    6  A    between atoms: C7_9  and  C15_19 
REMARK    7  A    between atoms: C8_10  and  C9_11 
REMARK    8  A    between atoms: C14_17  and  O1_18 
REMARK       I    between atoms: C15_19  and  N2_21 
REMARK    9  A    between atoms: N2_21  and  C16_22 
ROOT
HETATM    1  C7  UNL     1      22.681   0.702  52.159  1.00  0.00     0.131 C 
ENDROOT
BRANCH   1   2
HETATM    2  C6  UNL     1      22.730   1.723  51.084  1.00  0.00     0.016 C 
HETATM    3  C5  UNL     1      23.214   2.946  51.229  1.00  0.00     0.028 C 
BRANCH   3   4
HETATM    4  C4  UNL     1      23.208   3.859  50.097  1.00  0.00     0.044 C 
HETATM    5  C3  UNL     1      24.287   4.153  49.403  1.00  0.00     0.115 C 
HETATM    6  F1  UNL     1      24.286   4.990  48.363  1.00  0.00    -0.206 F 
BRANCH   5   7
HETATM    7  C2  UNL     1      25.553   3.544  49.776  1.00  0.00     0.032 C 
HETATM    8  C1  UNL     1      26.714   4.008  49.395  1.00  0.00     0.014 C 
ENDBRANCH   5   7
ENDBRANCH   3   4
BRANCH   2   9
HETATM    9  N1  UNL     1      22.246   1.466  49.766  1.00  0.00    -0.402 N 
HETATM   10  H6  UNL     1      22.697   1.792  48.890  1.00  0.00     0.156 HD
HETATM   11  H7  UNL     1      21.462   0.982  49.258  1.00  0.00     0.156 HD
ENDBRANCH   2   9
ENDBRANCH   1   2
BRANCH   1  12
HETATM   12  C8  UNL     1      21.622   0.948  53.163  1.00  0.00     0.061 C 
BRANCH  12  13
HETATM   13  C9  UNL     1      20.328   0.310  52.962  1.00  0.00    -0.022 A 
HETATM   14  C10 UNL     1      19.506   0.993  52.052  1.00  0.00     0.010 A 
HETATM   15  C11 UNL     1      18.231   0.597  51.704  1.00  0.00     0.002 A 
HETATM   16  C12 UNL     1      17.705  -0.528  52.258  1.00  0.00     0.026 A 
HETATM   17  C13 UNL     1      18.472  -1.235  53.157  1.00  0.00     0.067 A 
HETATM   18 CL1  UNL     1      17.915  -2.694  53.939  1.00  0.00    -0.081 Cl
HETATM   19  C14 UNL     1      19.741  -0.813  53.483  1.00  0.00     0.093 A 
BRANCH  19  20
HETATM   20  O1  UNL     1      20.528  -1.507  54.381  1.00  0.00    -0.358 OA
HETATM   21  H14 UNL     1      21.175  -2.226  54.167  1.00  0.00     0.217 HD
ENDBRANCH  19  20
ENDBRANCH  12  13
ENDBRANCH   1  12
BRANCH   1  22
HETATM   22  C15 UNL     1      24.004   0.421  52.735  1.00  0.00     0.232 C 
HETATM   23  O2  UNL     1      23.800  -0.182  53.817  1.00  0.00    -0.272 OA
HETATM   24  N2  UNL     1      25.316   0.701  52.301  1.00  0.00    -0.327 N 
HETATM   25  H15 UNL     1      25.275   1.201  51.387  1.00  0.00     0.169 HD
BRANCH  24  26
HETATM   26  C16 UNL     1      26.518   0.391  52.931  1.00  0.00     0.034 A 
HETATM   27  C17 UNL     1      27.216   1.150  53.810  1.00  0.00     0.029 A 
HETATM   28  C18 UNL     1      28.420   0.780  54.405  1.00  0.00     0.002 A 
HETATM   29  C19 UNL     1      28.958  -0.444  54.089  1.00  0.00     0.000 A 
HETATM   30  C20 UNL     1      28.269  -1.240  53.196  1.00  0.00     0.002 A 
HETATM   31  C21 UNL     1      27.095  -0.826  52.646  1.00  0.00     0.029 A 
ENDBRANCH  24  26
ENDBRANCH   1  22
TORSDOF 9
ENDMDL
MODEL 9
REMARK VINA RESULT:      -7.5      3.785      6.406
REMARK  9 active torsions:
REMARK  status: ('A' for Active; 'I' for Inactive)
REMARK    1  A    between atoms: C2_2  and  C3_3 
REMARK    2  A    between atoms: C4_5  and  C5_6 
REMARK    3  A    between atoms: C6_7  and  N1_8 
REMARK    4  A    between atoms: C6_7  and  C7_9 
REMARK    5  A    between atoms: C7_9  and  C8_10 
REMARK    6  A    between atoms: C7_9  and  C15_19 
REMARK    7  A    between atoms: C8_10  and  C9_11 
REMARK    8  A    between atoms: C14_17  and  O1_18 
REMARK       I    between atoms: C15_19  and  N2_21 
REMARK    9  A    between atoms: N2_21  and  C16_22 
ROOT
HETATM    1  C7  UNL     1      23.722   2.673  51.347  1.00  0.00     0.131 C 
ENDROOT
BRANCH   1   2
HETATM    2  C6  UNL     1      23.915   3.786  50.386  1.00  0.00     0.016 C 
HETATM    3  C5  UNL     1      24.884   4.683  50.460  1.00  0.00     0.028 C 
BRANCH   3   4
HETATM    4  C4  UNL     1      24.970   5.730  49.453  1.00  0.00     0.044 C 
HETATM    5  C3  UNL     1      26.017   5.894  48.672  1.00  0.00     0.115 C 
HETATM    6  F1  UNL     1      26.100   6.853  47.747  1.00  0.00    -0.206 F 
BRANCH   5   7
HETATM    7  C2  UNL     1      27.149   4.993  48.812  1.00  0.00     0.032 C 
HETATM    8  C1  UNL     1      28.360   5.294  48.422  1.00  0.00     0.014 C 
ENDBRANCH   5   7
ENDBRANCH   3   4
BRANCH   2   9
HETATM    9  N1  UNL     1      23.049   3.987  49.269  1.00  0.00    -0.402 N 
HETATM   10  H6  UNL     1      22.812   4.909  48.856  1.00  0.00     0.156 HD
HETATM   11  H7  UNL     1      22.454   3.456  48.585  1.00  0.00     0.156 HD
ENDBRANCH   2   9
ENDBRANCH   1   2
BRANCH   1  12
HETATM   12  C8  UNL     1      24.723   1.592  51.212  1.00  0.00     0.061 C 
BRANCH  12  13
HETATM   13  C9  UNL     1      25.639   1.365  52.321  1.00  0.00    -0.022 A 
HETATM   14  C10 UNL     1      25.176   0.411  53.240  1.00  0.00     0.010 A 
HETATM   15  C11 UNL     1      25.855   0.031  54.379  1.00  0.00     0.002 A 
HETATM   16  C12 UNL     1      27.059   0.597  54.660  1.00  0.00     0.026 A 
HETATM   17  C13 UNL     1      27.559   1.539  53.789  1.00  0.00     0.067 A 
HETATM   18 CL1  UNL     1      29.092   2.341  54.034  1.00  0.00    -0.081 Cl
HETATM   19  C14 UNL     1      26.856   1.896  52.661  1.00  0.00     0.093 A 
BRANCH  19  20
HETATM   20  O1  UNL     1      27.339   2.837  51.773  1.00  0.00    -0.358 OA
HETATM   21  H14 UNL     1      27.635   2.674  50.842  1.00  0.00     0.217 HD
ENDBRANCH  19  20
ENDBRANCH  12  13
ENDBRANCH   1  12
BRANCH   1  22
HETATM   22  C15 UNL     1      22.330   2.203  51.399  1.00  0.00     0.232 C 
HETATM   23  O2  UNL     1      21.644   3.167  51.820  1.00  0.00    -0.272 OA
HETATM   24  N2  UNL     1      21.724   0.969  51.085  1.00  0.00    -0.327 N 
HETATM   25  H15 UNL     1      22.456   0.303  50.755  1.00  0.00     0.169 HD
BRANCH  24  26
HETATM   26  C16 UNL     1      20.379   0.620  51.175  1.00  0.00     0.034 A 
HETATM   27  C17 UNL     1      19.405   0.820  50.255  1.00  0.00     0.029 A 
HETATM   28  C18 UNL     1      18.072   0.448  50.410  1.00  0.00     0.002 A 
HETATM   29  C19 UNL     1      17.696  -0.172  51.577  1.00  0.00     0.000 A 
HETATM   30  C20 UNL     1      18.668  -0.390  52.533  1.00  0.00     0.002 A 
HETATM   31  C21 UNL     1      19.956  -0.004  52.327  1.00  0.00     0.029 A 
ENDBRANCH  24  26
ENDBRANCH   1  22
TORSDOF 9
ENDMDL
