MODEL 1
REMARK VINA RESULT:      -7.2      0.000      0.000
REMARK  6 active torsions:
REMARK  status: ('A' for Active; 'I' for Inactive)
REMARK    1  A    between atoms: C2_2  and  C4_4 
REMARK    2  A    between atoms: C6_9  and  C7_10 
REMARK    3  A    between atoms: C6_9  and  C9_13 
REMARK    4  A    between atoms: C8_11  and  N4_12 
REMARK    5  A    between atoms: C9_13  and  N5_14 
REMARK    6  A    between atoms: C12_17  and  N6_18 
ROOT
HETATM    1  C4  UNL     1      26.915   1.624  52.636  1.00  0.00     0.052 C 
HETATM    2  N1  UNL     1      27.881   2.483  52.679  1.00  0.00    -0.246 NA
HETATM    3  C5  UNL     1      28.912   2.522  53.644  1.00  0.00     0.254 C 
HETATM    4  N2  UNL     1      28.933   1.619  54.597  1.00  0.00    -0.171 NA
HETATM    5  N3  UNL     1      27.890   0.656  54.561  1.00  0.00    -0.291 N 
HETATM    6  C6  UNL     1      26.752   0.578  53.683  1.00  0.00     0.134 C 
HETATM    7  H9  UNL     1      28.128  -0.038  55.334  1.00  0.00     0.184 HD
ENDROOT
BRANCH   6   8
HETATM    8  C7  UNL     1      26.875  -0.750  52.951  1.00  0.00     0.030 C 
HETATM    9  C8  UNL     1      27.695  -1.758  53.205  1.00  0.00     0.079 C 
BRANCH   9  10
HETATM   10  N4  UNL     1      28.085  -3.063  52.786  1.00  0.00    -0.408 N 
HETATM   11  H12 UNL     1      29.000  -3.472  53.022  1.00  0.00     0.155 HD
HETATM   12  H13 UNL     1      27.459  -3.689  52.206  1.00  0.00     0.155 HD
ENDBRANCH   9  10
ENDBRANCH   6   8
BRANCH   6  13
HETATM   13  C9  UNL     1      25.427   0.652  54.389  1.00  0.00     0.315 C 
BRANCH  13  14
HETATM   14  N5  UNL     1      24.518  -0.409  54.195  1.00  0.00     0.091 N 
HETATM   15  C10 UNL     1      24.227  -1.297  55.251  1.00  0.00     0.274 C 
HETATM   16  C11 UNL     1      22.732  -1.496  55.470  1.00  0.00     0.065 C 
HETATM   17  C12 UNL     1      21.962  -1.767  54.225  1.00  0.00     0.221 C 
HETATM   18  C13 UNL     1      22.464  -1.036  53.022  1.00  0.00     0.065 C 
HETATM   19  C14 UNL     1      23.349   0.092  53.511  1.00  0.00     0.274 C 
BRANCH  17  20
HETATM   20  N6  UNL     1      20.591  -1.294  54.483  1.00  0.00     0.083 N 
HETATM   21  H21 UNL     1      20.458  -1.248  55.537  1.00  0.00     0.313 HD
HETATM   22  H22 UNL     1      19.944  -2.056  54.186  1.00  0.00     0.313 HD
ENDBRANCH  17  20
ENDBRANCH  13  14
ENDBRANCH   6  13
BRANCH   1  23
HETATM   23  C2  UNL     1      25.981   1.820  51.504  1.00  0.00     0.028 C 
HETATM   24  C1  UNL     1      24.776   2.659  51.783  1.00  0.00     0.016 C 
HETATM   25  C3  UNL     1      26.697   2.432  50.322  1.00  0.00     0.016 C 
ENDBRANCH   1  23
TORSDOF 6
ENDMDL
MODEL 2
REMARK VINA RESULT:      -6.6      2.374      4.373
REMARK  6 active torsions:
REMARK  status: ('A' for Active; 'I' for Inactive)
REMARK    1  A    between atoms: C2_2  and  C4_4 
REMARK    2  A    between atoms: C6_9  and  C7_10 
REMARK    3  A    between atoms: C6_9  and  C9_13 
REMARK    4  A    between atoms: C8_11  and  N4_12 
REMARK    5  A    between atoms: C9_13  and  N5_14 
REMARK    6  A    between atoms: C12_17  and  N6_18 
ROOT
HETATM    1  C4  UNL     1      26.003   2.008  51.756  1.00  0.00     0.052 C 
HETATM    2  N1  UNL     1      26.803   2.401  50.818  1.00  0.00    -0.246 NA
HETATM    3  C5  UNL     1      26.434   3.133  49.668  1.00  0.00     0.254 C 
HETATM    4  N2  UNL     1      25.176   3.474  49.501  1.00  0.00    -0.171 NA
HETATM    5  N3  UNL     1      24.283   3.067  50.527  1.00  0.00    -0.291 N 
HETATM    6  C6  UNL     1      24.536   2.251  51.686  1.00  0.00     0.134 C 
HETATM    7  H9  UNL     1      23.349   3.514  50.273  1.00  0.00     0.184 HD
ENDROOT
BRANCH   6   8
HETATM    8  C7  UNL     1      24.210   3.119  52.891  1.00  0.00     0.030 C 
HETATM    9  C8  UNL     1      24.036   4.430  52.940  1.00  0.00     0.079 C 
BRANCH   9  10
HETATM   10  N4  UNL     1      23.742   5.525  53.805  1.00  0.00    -0.408 N 
HETATM   11  H12 UNL     1      24.467   6.164  54.157  1.00  0.00     0.155 HD
HETATM   12  H13 UNL     1      22.762   5.743  54.138  1.00  0.00     0.155 HD
ENDBRANCH   9  10
ENDBRANCH   6   8
BRANCH   6  13
HETATM   13  C9  UNL     1      23.727   0.985  51.731  1.00  0.00     0.315 C 
BRANCH  13  14
HETATM   14  N5  UNL     1      22.635   0.935  52.623  1.00  0.00     0.091 N 
HETATM   15  C10 UNL     1      21.331   1.217  52.165  1.00  0.00     0.274 C 
HETATM   16  C11 UNL     1      20.314   0.158  52.573  1.00  0.00     0.065 C 
HETATM   17  C12 UNL     1      20.378  -0.232  54.008  1.00  0.00     0.221 C 
HETATM   18  C13 UNL     1      21.758  -0.244  54.579  1.00  0.00     0.065 C 
HETATM   19  C14 UNL     1      22.731  -0.267  53.419  1.00  0.00     0.274 C 
BRANCH  17  20
HETATM   20  N6  UNL     1      19.863  -1.611  54.079  1.00  0.00     0.083 N 
HETATM   21  H21 UNL     1      18.801  -1.557  54.110  1.00  0.00     0.313 HD
HETATM   22  H22 UNL     1      20.118  -1.984  55.020  1.00  0.00     0.313 HD
ENDBRANCH  17  20
ENDBRANCH  13  14
ENDBRANCH   6  13
BRANCH   1  23
HETATM   23  C2  UNL     1      26.672   1.264  52.849  1.00  0.00     0.028 C 
HETATM   24  C1  UNL     1      27.114  -0.126  52.522  1.00  0.00     0.016 C 
HETATM   25  C3  UNL     1      27.881   2.021  53.347  1.00  0.00     0.016 C 
ENDBRANCH   1  23
TORSDOF 6
ENDMDL
MODEL 3
REMARK VINA RESULT:      -6.4      2.993      5.541
REMARK  6 active torsions:
REMARK  status: ('A' for Active; 'I' for Inactive)
REMARK    1  A    between atoms: C2_2  and  C4_4 
REMARK    2  A    between atoms: C6_9  and  C7_10 
REMARK    3  A    between atoms: C6_9  and  C9_13 
REMARK    4  A    between atoms: C8_11  and  N4_12 
REMARK    5  A    between atoms: C9_13  and  N5_14 
REMARK    6  A    between atoms: C12_17  and  N6_18 
ROOT
HETATM    1  C4  UNL     1      23.030   3.010  50.382  1.00  0.00     0.052 C 
HETATM    2  N1  UNL     1      22.073   3.659  50.962  1.00  0.00    -0.246 NA
HETATM    3  C5  UNL     1      22.214   4.536  52.061  1.00  0.00     0.254 C 
HETATM    4  N2  UNL     1      23.409   4.745  52.565  1.00  0.00    -0.171 NA
HETATM    5  N3  UNL     1      24.478   4.055  51.934  1.00  0.00    -0.291 N 
HETATM    6  C6  UNL     1      24.434   3.080  50.875  1.00  0.00     0.134 C 
HETATM    7  H9  UNL     1      25.360   4.423  52.405  1.00  0.00     0.184 HD
ENDROOT
BRANCH   6   8
HETATM    8  C7  UNL     1      25.237   3.670  49.727  1.00  0.00     0.030 C 
HETATM    9  C8  UNL     1      26.475   4.140  49.743  1.00  0.00     0.079 C 
BRANCH   9  10
HETATM   10  N4  UNL     1      27.498   4.728  48.942  1.00  0.00    -0.408 N 
HETATM   11  H12 UNL     1      28.277   4.182  48.549  1.00  0.00     0.155 HD
HETATM   12  H13 UNL     1      27.519   5.759  48.707  1.00  0.00     0.155 HD
ENDBRANCH   9  10
ENDBRANCH   6   8
BRANCH   6  13
HETATM   13  C9  UNL     1      24.993   1.738  51.255  1.00  0.00     0.315 C 
BRANCH  13  14
HETATM   14  N5  UNL     1      25.601   1.613  52.522  1.00  0.00     0.091 N 
HETATM   15  C10 UNL     1      25.056   0.741  53.487  1.00  0.00     0.274 C 
HETATM   16  C11 UNL     1      26.094  -0.188  54.104  1.00  0.00     0.065 C 
HETATM   17  C12 UNL     1      27.344   0.493  54.542  1.00  0.00     0.221 C 
HETATM   18  C13 UNL     1      27.764   1.626  53.664  1.00  0.00     0.065 C 
HETATM   19  C14 UNL     1      27.029   1.481  52.348  1.00  0.00     0.274 C 
BRANCH  17  20
HETATM   20  N6  UNL     1      28.407  -0.525  54.481  1.00  0.00     0.083 N 
HETATM   21  H21 UNL     1      27.942  -1.467  54.314  1.00  0.00     0.313 HD
HETATM   22  H22 UNL     1      28.802  -0.612  55.442  1.00  0.00     0.313 HD
ENDBRANCH  17  20
ENDBRANCH  13  14
ENDBRANCH   6  13
BRANCH   1  23
HETATM   23  C2  UNL     1      22.589   2.168  49.246  1.00  0.00     0.028 C 
HETATM   24  C1  UNL     1      21.594   1.100  49.568  1.00  0.00     0.016 C 
HETATM   25  C3  UNL     1      21.999   3.023  48.148  1.00  0.00     0.016 C 
ENDBRANCH   1  23
TORSDOF 6
ENDMDL
MODEL 4
REMARK VINA RESULT:      -6.3      3.569      6.118
REMARK  6 active torsions:
REMARK  status: ('A' for Active; 'I' for Inactive)
REMARK    1  A    between atoms: C2_2  and  C4_4 
REMARK    2  A    between atoms: C6_9  and  C7_10 
REMARK    3  A    between atoms: C6_9  and  C9_13 
REMARK    4  A    between atoms: C8_11  and  N4_12 
REMARK    5  A    between atoms: C9_13  and  N5_14 
REMARK    6  A    between atoms: C12_17  and  N6_18 
ROOT
HETATM    1  C4  UNL     1      22.290   3.368  49.946  1.00  0.00     0.052 C 
HETATM    2  N1  UNL     1      21.003   3.508  49.955  1.00  0.00    -0.246 NA
HETATM    3  C5  UNL     1      20.189   3.603  51.105  1.00  0.00     0.254 C 
HETATM    4  N2  UNL     1      20.748   3.557  52.293  1.00  0.00    -0.171 NA
HETATM    5  N3  UNL     1      22.161   3.419  52.307  1.00  0.00    -0.291 N 
HETATM    6  C6  UNL     1      23.070   3.227  51.206  1.00  0.00     0.134 C 
HETATM    7  H9  UNL     1      22.436   3.503  53.333  1.00  0.00     0.184 HD
ENDROOT
BRANCH   6   8
HETATM    8  C7  UNL     1      24.018   4.416  51.232  1.00  0.00     0.030 C 
HETATM    9  C8  UNL     1      23.793   5.640  51.683  1.00  0.00     0.079 C 
BRANCH   9  10
HETATM   10  N4  UNL     1      24.376   6.928  51.869  1.00  0.00    -0.408 N 
HETATM   11  H12 UNL     1      24.893   7.185  52.721  1.00  0.00     0.155 HD
HETATM   12  H13 UNL     1      24.311   7.696  51.144  1.00  0.00     0.155 HD
ENDBRANCH   9  10
ENDBRANCH   6   8
BRANCH   6  13
HETATM   13  C9  UNL     1      23.853   1.946  51.276  1.00  0.00     0.315 C 
BRANCH  13  14
HETATM   14  N5  UNL     1      24.330   1.534  52.538  1.00  0.00     0.091 N 
HETATM   15  C10 UNL     1      23.878   0.325  53.106  1.00  0.00     0.274 C 
HETATM   16  C11 UNL     1      25.014  -0.564  53.598  1.00  0.00     0.065 C 
HETATM   17  C12 UNL     1      26.036   0.144  54.417  1.00  0.00     0.221 C 
HETATM   18  C13 UNL     1      26.302   1.549  53.985  1.00  0.00     0.065 C 
HETATM   19  C14 UNL     1      25.764   1.703  52.577  1.00  0.00     0.274 C 
BRANCH  17  20
HETATM   20  N6  UNL     1      27.289  -0.611  54.248  1.00  0.00     0.083 N 
HETATM   21  H21 UNL     1      27.806  -0.195  53.416  1.00  0.00     0.313 HD
HETATM   22  H22 UNL     1      27.028  -1.567  53.922  1.00  0.00     0.313 HD
ENDBRANCH  17  20
ENDBRANCH  13  14
ENDBRANCH   6  13
BRANCH   1  23
HETATM   23  C2  UNL     1      22.882   3.305  48.590  1.00  0.00     0.028 C 
HETATM   24  C1  UNL     1      22.473   2.140  47.748  1.00  0.00     0.016 C 
HETATM   25  C3  UNL     1      22.567   4.562  47.812  1.00  0.00     0.016 C 
ENDBRANCH   1  23
TORSDOF 6
ENDMDL
MODEL 5
REMARK VINA RESULT:      -6.2      2.087      4.182
REMARK  6 active torsions:
REMARK  status: ('A' for Active; 'I' for Inactive)
REMARK    1  A    between atoms: C2_2  and  C4_4 
REMARK    2  A    between atoms: C6_9  and  C7_10 
REMARK    3  A    between atoms: C6_9  and  C9_13 
REMARK    4  A    between atoms: C8_11  and  N4_12 
REMARK    5  A    between atoms: C9_13  and  N5_14 
REMARK    6  A    between atoms: C12_17  and  N6_18 
ROOT
HETATM    1  C4  UNL     1      27.845  -0.115  53.562  1.00  0.00     0.052 C 
HETATM    2  N1  UNL     1      29.047   0.364  53.568  1.00  0.00    -0.246 NA
HETATM    3  C5  UNL     1      29.406   1.696  53.867  1.00  0.00     0.254 C 
HETATM    4  N2  UNL     1      28.467   2.559  54.181  1.00  0.00    -0.171 NA
HETATM    5  N3  UNL     1      27.140   2.052  54.198  1.00  0.00    -0.291 N 
HETATM    6  C6  UNL     1      26.659   0.746  53.827  1.00  0.00     0.134 C 
HETATM    7  H9  UNL     1      26.544   2.854  54.567  1.00  0.00     0.184 HD
ENDROOT
BRANCH   6   8
HETATM    8  C7  UNL     1      26.008   0.169  55.074  1.00  0.00     0.030 C 
HETATM    9  C8  UNL     1      25.147  -0.833  55.166  1.00  0.00     0.079 C 
BRANCH   9  10
HETATM   10  N4  UNL     1      24.372  -1.609  56.076  1.00  0.00    -0.408 N 
HETATM   11  H12 UNL     1      23.814  -2.421  55.777  1.00  0.00     0.155 HD
HETATM   12  H13 UNL     1      24.322  -1.397  57.111  1.00  0.00     0.155 HD
ENDBRANCH   9  10
ENDBRANCH   6   8
BRANCH   6  13
HETATM   13  C9  UNL     1      25.673   0.757  52.693  1.00  0.00     0.315 C 
BRANCH  13  14
HETATM   14  N5  UNL     1      25.166   2.005  52.274  1.00  0.00     0.091 N 
HETATM   15  C10 UNL     1      25.516   2.525  51.011  1.00  0.00     0.274 C 
HETATM   16  C11 UNL     1      24.311   2.988  50.201  1.00  0.00     0.065 C 
HETATM   17  C12 UNL     1      23.354   3.839  50.960  1.00  0.00     0.221 C 
HETATM   18  C13 UNL     1      23.205   3.462  52.398  1.00  0.00     0.065 C 
HETATM   19  C14 UNL     1      23.751   2.058  52.560  1.00  0.00     0.274 C 
BRANCH  17  20
HETATM   20  N6  UNL     1      22.041   3.647  50.319  1.00  0.00     0.083 N 
HETATM   21  H21 UNL     1      21.311   3.594  51.090  1.00  0.00     0.313 HD
HETATM   22  H22 UNL     1      22.038   2.687  49.910  1.00  0.00     0.313 HD
ENDBRANCH  17  20
ENDBRANCH  13  14
ENDBRANCH   6  13
BRANCH   1  23
HETATM   23  C2  UNL     1      27.767  -1.553  53.219  1.00  0.00     0.028 C 
HETATM   24  C1  UNL     1      27.020  -1.891  51.969  1.00  0.00     0.016 C 
HETATM   25  C3  UNL     1      29.152  -2.147  53.095  1.00  0.00     0.016 C 
ENDBRANCH   1  23
TORSDOF 6
ENDMDL
MODEL 6
REMARK VINA RESULT:      -6.2      3.226      4.646
REMARK  6 active torsions:
REMARK  status: ('A' for Active; 'I' for Inactive)
REMARK    1  A    between atoms: C2_2  and  C4_4 
REMARK    2  A    between atoms: C6_9  and  C7_10 
REMARK    3  A    between atoms: C6_9  and  C9_13 
REMARK    4  A    between atoms: C8_11  and  N4_12 
REMARK    5  A    between atoms: C9_13  and  N5_14 
REMARK    6  A    between atoms: C12_17  and  N6_18 
ROOT
HETATM    1  C4  UNL     1      23.178   3.221  50.479  1.00  0.00     0.052 C 
HETATM    2  N1  UNL     1      22.445   4.247  50.772  1.00  0.00    -0.246 NA
HETATM    3  C5  UNL     1      22.552   5.033  51.941  1.00  0.00     0.254 C 
HETATM    4  N2  UNL     1      23.468   4.735  52.833  1.00  0.00    -0.171 NA
HETATM    5  N3  UNL     1      24.294   3.622  52.525  1.00  0.00    -0.291 N 
HETATM    6  C6  UNL     1      24.215   2.708  51.415  1.00  0.00     0.134 C 
HETATM    7  H9  UNL     1      25.027   3.599  53.299  1.00  0.00     0.184 HD
ENDROOT
BRANCH   6   8
HETATM    8  C7  UNL     1      25.534   2.837  50.669  1.00  0.00     0.030 C 
HETATM    9  C8  UNL     1      26.073   3.918  50.128  1.00  0.00     0.079 C 
BRANCH   9  10
HETATM   10  N4  UNL     1      27.199   4.409  49.405  1.00  0.00    -0.408 N 
HETATM   11  H12 UNL     1      27.741   3.822  48.756  1.00  0.00     0.155 HD
HETATM   12  H13 UNL     1      27.546   5.405  49.493  1.00  0.00     0.155 HD
ENDBRANCH   9  10
ENDBRANCH   6   8
BRANCH   6  13
HETATM   13  C9  UNL     1      23.991   1.277  51.816  1.00  0.00     0.315 C 
BRANCH  13  14
HETATM   14  N5  UNL     1      23.151   1.027  52.921  1.00  0.00     0.091 N 
HETATM   15  C10 UNL     1      21.806   1.451  52.898  1.00  0.00     0.274 C 
HETATM   16  C11 UNL     1      20.827   0.350  53.288  1.00  0.00     0.065 C 
HETATM   17  C12 UNL     1      21.204  -0.398  54.519  1.00  0.00     0.221 C 
HETATM   18  C13 UNL     1      22.675  -0.592  54.692  1.00  0.00     0.065 C 
HETATM   19  C14 UNL     1      23.329  -0.341  53.349  1.00  0.00     0.274 C 
BRANCH  17  20
HETATM   20  N6  UNL     1      20.599  -1.734  54.386  1.00  0.00     0.083 N 
HETATM   21  H21 UNL     1      20.053  -1.931  55.278  1.00  0.00     0.313 HD
HETATM   22  H22 UNL     1      21.379  -2.427  54.418  1.00  0.00     0.313 HD
ENDBRANCH  17  20
ENDBRANCH  13  14
ENDBRANCH   6  13
BRANCH   1  23
HETATM   23  C2  UNL     1      22.847   2.594  49.179  1.00  0.00     0.028 C 
HETATM   24  C1  UNL     1      21.653   1.694  49.168  1.00  0.00     0.016 C 
HETATM   25  C3  UNL     1      22.631   3.648  48.117  1.00  0.00     0.016 C 
ENDBRANCH   1  23
TORSDOF 6
ENDMDL
MODEL 7
REMARK VINA RESULT:      -6.1      3.588      6.018
REMARK  6 active torsions:
REMARK  status: ('A' for Active; 'I' for Inactive)
REMARK    1  A    between atoms: C2_2  and  C4_4 
REMARK    2  A    between atoms: C6_9  and  C7_10 
REMARK    3  A    between atoms: C6_9  and  C9_13 
REMARK    4  A    between atoms: C8_11  and  N4_12 
REMARK    5  A    between atoms: C9_13  and  N5_14 
REMARK    6  A    between atoms: C12_17  and  N6_18 
ROOT
HETATM    1  C4  UNL     1      24.295   4.044  49.901  1.00  0.00     0.052 C 
HETATM    2  N1  UNL     1      23.870   3.482  48.816  1.00  0.00    -0.246 NA
HETATM    3  C5  UNL     1      22.686   2.723  48.686  1.00  0.00     0.254 C 
HETATM    4  N2  UNL     1      21.914   2.554  49.734  1.00  0.00    -0.171 NA
HETATM    5  N3  UNL     1      22.352   3.176  50.934  1.00  0.00    -0.291 N 
HETATM    6  C6  UNL     1      23.574   3.891  51.195  1.00  0.00     0.134 C 
HETATM    7  H9  UNL     1      21.562   3.017  51.631  1.00  0.00     0.184 HD
ENDROOT
BRANCH   6   8
HETATM    8  C7  UNL     1      23.161   5.297  51.599  1.00  0.00     0.030 C 
HETATM    9  C8  UNL     1      22.228   6.068  51.062  1.00  0.00     0.079 C 
BRANCH   9  10
HETATM   10  N4  UNL     1      21.591   7.341  51.147  1.00  0.00    -0.408 N 
HETATM   11  H12 UNL     1      21.191   7.703  52.023  1.00  0.00     0.155 HD
HETATM   12  H13 UNL     1      21.490   7.987  50.316  1.00  0.00     0.155 HD
ENDBRANCH   9  10
ENDBRANCH   6   8
BRANCH   6  13
HETATM   13  C9  UNL     1      24.423   3.277  52.274  1.00  0.00     0.315 C 
BRANCH  13  14
HETATM   14  N5  UNL     1      24.665   1.889  52.210  1.00  0.00     0.091 N 
HETATM   15  C10 UNL     1      25.938   1.407  51.840  1.00  0.00     0.274 C 
HETATM   16  C11 UNL     1      26.481   0.357  52.801  1.00  0.00     0.065 C 
HETATM   17  C12 UNL     1      25.508  -0.714  53.152  1.00  0.00     0.221 C 
HETATM   18  C13 UNL     1      24.093  -0.247  53.256  1.00  0.00     0.065 C 
HETATM   19  C14 UNL     1      24.120   1.261  53.391  1.00  0.00     0.274 C 
BRANCH  17  20
HETATM   20  N6  UNL     1      25.905  -1.207  54.482  1.00  0.00     0.083 N 
HETATM   21  H21 UNL     1      26.871  -0.816  54.696  1.00  0.00     0.313 HD
HETATM   22  H22 UNL     1      26.070  -2.233  54.391  1.00  0.00     0.313 HD
ENDBRANCH  17  20
ENDBRANCH  13  14
ENDBRANCH   6  13
BRANCH   1  23
HETATM   23  C2  UNL     1      25.567   4.786  49.741  1.00  0.00     0.028 C 
HETATM   24  C1  UNL     1      26.755   3.974  49.340  1.00  0.00     0.016 C 
HETATM   25  C3  UNL     1      25.411   5.896  48.727  1.00  0.00     0.016 C 
ENDBRANCH   1  23
TORSDOF 6
ENDMDL
MODEL 8
REMARK VINA RESULT:      -6.0     10.140     11.594
REMARK  6 active torsions:
REMARK  status: ('A' for Active; 'I' for Inactive)
REMARK    1  A    between atoms: C2_2  and  C4_4 
REMARK    2  A    between atoms: C6_9  and  C7_10 
REMARK    3  A    between atoms: C6_9  and  C9_13 
REMARK    4  A    between atoms: C8_11  and  N4_12 
REMARK    5  A    between atoms: C9_13  and  N5_14 
REMARK    6  A    between atoms: C12_17  and  N6_18 
ROOT
HETATM    1  C4  UNL     1      33.352   4.886  46.661  1.00  0.00     0.052 C 
HETATM    2  N1  UNL     1      33.320   5.104  45.386  1.00  0.00    -0.246 NA
HETATM    3  C5  UNL     1      33.633   6.324  44.747  1.00  0.00     0.254 C 
HETATM    4  N2  UNL     1      34.002   7.353  45.474  1.00  0.00    -0.171 NA
HETATM    5  N3  UNL     1      34.059   7.132  46.876  1.00  0.00    -0.291 N 
HETATM    6  C6  UNL     1      33.681   5.966  47.631  1.00  0.00     0.134 C 
HETATM    7  H9  UNL     1      34.468   8.029  47.280  1.00  0.00     0.184 HD
ENDROOT
BRANCH   6   8
HETATM    8  C7  UNL     1      34.940   5.500  48.345  1.00  0.00     0.030 C 
HETATM    9  C8  UNL     1      35.745   6.194  49.134  1.00  0.00     0.079 C 
BRANCH   9  10
HETATM   10  N4  UNL     1      36.927   6.124  49.928  1.00  0.00    -0.408 N 
HETATM   11  H12 UNL     1      37.561   6.926  50.053  1.00  0.00     0.155 HD
HETATM   12  H13 UNL     1      37.225   5.244  50.434  1.00  0.00     0.155 HD
ENDBRANCH   9  10
ENDBRANCH   6   8
BRANCH   6  13
HETATM   13  C9  UNL     1      32.586   6.213  48.631  1.00  0.00     0.315 C 
BRANCH  13  14
HETATM   14  N5  UNL     1      31.711   7.294  48.395  1.00  0.00     0.091 N 
HETATM   15  C10 UNL     1      30.469   7.076  47.764  1.00  0.00     0.274 C 
HETATM   16  C11 UNL     1      29.301   7.708  48.512  1.00  0.00     0.065 C 
HETATM   17  C12 UNL     1      29.530   9.120  48.924  1.00  0.00     0.221 C 
HETATM   18  C13 UNL     1      30.939   9.424  49.317  1.00  0.00     0.065 C 
HETATM   19  C14 UNL     1      31.631   8.104  49.588  1.00  0.00     0.274 C 
BRANCH  17  20
HETATM   20  N6  UNL     1      28.687   9.341  50.111  1.00  0.00     0.083 N 
HETATM   21  H21 UNL     1      29.288   9.163  50.971  1.00  0.00     0.313 HD
HETATM   22  H22 UNL     1      27.987   8.567  50.137  1.00  0.00     0.313 HD
ENDBRANCH  17  20
ENDBRANCH  13  14
ENDBRANCH   6  13
BRANCH   1  23
HETATM   23  C2  UNL     1      32.981   3.505  47.048  1.00  0.00     0.028 C 
HETATM   24  C1  UNL     1      31.641   3.030  46.586  1.00  0.00     0.016 C 
HETATM   25  C3  UNL     1      34.010   2.517  46.547  1.00  0.00     0.016 C 
ENDBRANCH   1  23
TORSDOF 6
ENDMDL
MODEL 9
REMARK VINA RESULT:      -6.0      3.379      6.198
REMARK  6 active torsions:
REMARK  status: ('A' for Active; 'I' for Inactive)
REMARK    1  A    between atoms: C2_2  and  C4_4 
REMARK    2  A    between atoms: C6_9  and  C7_10 
REMARK    3  A    between atoms: C6_9  and  C9_13 
REMARK    4  A    between atoms: C8_11  and  N4_12 
REMARK    5  A    between atoms: C9_13  and  N5_14 
REMARK    6  A    between atoms: C12_17  and  N6_18 
ROOT
HETATM    1  C4  UNL     1      21.226   1.852  52.434  1.00  0.00     0.052 C 
HETATM    2  N1  UNL     1      20.208   2.633  52.599  1.00  0.00    -0.246 NA
HETATM    3  C5  UNL     1      20.135   3.990  52.212  1.00  0.00     0.254 C 
HETATM    4  N2  UNL     1      21.168   4.545  51.622  1.00  0.00    -0.171 NA
HETATM    5  N3  UNL     1      22.291   3.701  51.416  1.00  0.00    -0.291 N 
HETATM    6  C6  UNL     1      22.502   2.343  51.845  1.00  0.00     0.134 C 
HETATM    7  H9  UNL     1      22.975   4.287  50.844  1.00  0.00     0.184 HD
ENDROOT
BRANCH   6   8
HETATM    8  C7  UNL     1      22.705   1.528  50.578  1.00  0.00     0.030 C 
HETATM    9  C8  UNL     1      22.076   1.637  49.418  1.00  0.00     0.079 C 
BRANCH   9  10
HETATM   10  N4  UNL     1      21.986   1.105  48.099  1.00  0.00    -0.408 N 
HETATM   11  H12 UNL     1      22.086   0.101  47.897  1.00  0.00     0.155 HD
HETATM   12  H13 UNL     1      21.813   1.711  47.248  1.00  0.00     0.155 HD
ENDBRANCH   9  10
ENDBRANCH   6   8
BRANCH   6  13
HETATM   13  C9  UNL     1      23.681   2.167  52.761  1.00  0.00     0.315 C 
BRANCH  13  14
HETATM   14  N5  UNL     1      24.665   1.226  52.393  1.00  0.00     0.091 N 
HETATM   15  C10 UNL     1      25.890   1.658  51.845  1.00  0.00     0.274 C 
HETATM   16  C11 UNL     1      27.102   1.035  52.527  1.00  0.00     0.065 C 
HETATM   17  C12 UNL     1      27.010  -0.440  52.712  1.00  0.00     0.221 C 
HETATM   18  C13 UNL     1      25.632  -0.936  53.008  1.00  0.00     0.065 C 
HETATM   19  C14 UNL     1      24.805   0.253  53.452  1.00  0.00     0.274 C 
BRANCH  17  20
HETATM   20  N6  UNL     1      27.849  -0.757  53.881  1.00  0.00     0.083 N 
HETATM   21  H21 UNL     1      28.847  -0.887  53.536  1.00  0.00     0.313 HD
HETATM   22  H22 UNL     1      27.574  -1.711  54.204  1.00  0.00     0.313 HD
ENDBRANCH  17  20
ENDBRANCH  13  14
ENDBRANCH   6  13
BRANCH   1  23
HETATM   23  C2  UNL     1      21.017   0.472  52.931  1.00  0.00     0.028 C 
HETATM   24  C1  UNL     1      20.947   0.312  54.416  1.00  0.00     0.016 C 
HETATM   25  C3  UNL     1      19.752  -0.117  52.350  1.00  0.00     0.016 C 
ENDBRANCH   1  23
TORSDOF 6
ENDMDL
