MODEL 1
REMARK VINA RESULT:      -7.5      0.000      0.000
REMARK  12 active torsions:
REMARK  status: ('A' for Active; 'I' for Inactive)
REMARK    1  A    between atoms: N1_2  and  C2_3 
REMARK    2  A    between atoms: C2_3  and  C3_4 
REMARK    3  A    between atoms: C3_4  and  N2_5 
REMARK    4  A    between atoms: N2_5  and  C4_6 
REMARK    5  A    between atoms: C4_6  and  N4_20 
REMARK    6  A    between atoms: C5_7  and  N3_8 
REMARK    7  A    between atoms: N3_8  and  C6_9 
REMARK    8  A    between atoms: C6_9  and  C7_10 
REMARK    9  A    between atoms: C9_12  and  C10_13 
REMARK   10  A    between atoms: C10_13  and  O2_15 
REMARK   11  A    between atoms: C13_18  and  O3_19 
REMARK   12  A    between atoms: N4_20  and  C14_21 
ROOT
HETATM    1  C4  UNL     1      26.958   1.825  51.932  1.00  0.00     0.152 C 
HETATM    2  C5  UNL     1      26.450   2.592  51.002  1.00  0.00     0.135 C 
ENDROOT
BRANCH   1   3
HETATM    3  N2  UNL     1      28.046   2.345  52.685  1.00  0.00    -0.185 NA
BRANCH   3   4
HETATM    4  C3  UNL     1      28.466   1.614  53.650  1.00  0.00     0.002 C 
BRANCH   4   5
HETATM    5  C2  UNL     1      28.937   0.735  54.517  1.00  0.00     0.154 C 
BRANCH   5   6
HETATM    6  N1  UNL     1      28.557  -0.608  54.247  1.00  0.00    -0.399 NA
HETATM    7  C1  UNL     1      29.141  -1.381  53.413  1.00  0.00     0.314 C 
ENDBRANCH   5   6
ENDBRANCH   4   5
ENDBRANCH   3   4
ENDBRANCH   1   3
BRANCH   1   8
HETATM    8  N4  UNL     1      26.320   0.557  52.042  1.00  0.00    -0.339 N 
HETATM    9  H13 UNL     1      26.920  -0.218  51.659  1.00  0.00     0.167 HD
BRANCH   8  10
HETATM   10  C14 UNL     1      25.026   0.391  52.608  1.00  0.00     0.035 A 
HETATM   11  C15 UNL     1      23.940   1.016  52.031  1.00  0.00     0.032 A 
HETATM   12  C16 UNL     1      22.686   0.872  52.557  1.00  0.00     0.046 A 
HETATM   13  C17 UNL     1      22.564   0.070  53.687  1.00  0.00     0.138 A 
HETATM   14  F1  UNL     1      21.336  -0.120  54.265  1.00  0.00    -0.204 F 
HETATM   15  C18 UNL     1      23.629  -0.569  54.286  1.00  0.00     0.074 A 
HETATM   16 CL1  UNL     1      23.411  -1.562  55.706  1.00  0.00    -0.081 Cl
HETATM   17  C19 UNL     1      24.895  -0.402  53.729  1.00  0.00     0.056 A 
ENDBRANCH   8  10
ENDBRANCH   1   8
BRANCH   2  18
HETATM   18  N3  UNL     1      26.675   3.885  50.478  1.00  0.00    -0.391 N 
HETATM   19  H5  UNL     1      27.420   4.580  50.767  1.00  0.00     0.159 HD
BRANCH  18  20
HETATM   20  C6  UNL     1      25.796   4.347  49.411  1.00  0.00     0.160 C 
BRANCH  20  21
HETATM   21  C7  UNL     1      24.383   4.014  49.621  1.00  0.00    -0.006 A 
HETATM   22  C8  UNL     1      23.621   3.102  48.932  1.00  0.00     0.029 A 
HETATM   23  C9  UNL     1      22.314   2.912  49.255  1.00  0.00     0.038 A 
HETATM   24  C11 UNL     1      21.691   3.619  50.282  1.00  0.00     0.021 A 
HETATM   25  C12 UNL     1      22.453   4.537  50.979  1.00  0.00     0.038 A 
HETATM   26  C13 UNL     1      23.783   4.730  50.651  1.00  0.00     0.073 A 
BRANCH  23  27
HETATM   27  C10 UNL     1      21.509   1.943  48.520  1.00  0.00     0.176 C 
HETATM   28  O1  UNL     1      22.026   1.078  47.764  1.00  0.00    -0.646 OA
BRANCH  27  29
HETATM   29  O2  UNL     1      20.131   1.919  48.608  1.00  0.00    -0.773 OA
HETATM   30  H9  UNL     1      19.579   2.555  49.192  1.00  0.00     0.167 HD
ENDBRANCH  27  29
ENDBRANCH  23  27
BRANCH  26  31
HETATM   31  O3  UNL     1      24.422   5.694  51.447  1.00  0.00    -0.360 OA
HETATM   32  H12 UNL     1      24.586   6.590  51.006  1.00  0.00     0.217 HD
ENDBRANCH  26  31
ENDBRANCH  20  21
ENDBRANCH  18  20
ENDBRANCH   2  18
TORSDOF 12
ENDMDL
MODEL 2
REMARK VINA RESULT:      -7.4      3.338      5.779
REMARK  12 active torsions:
REMARK  status: ('A' for Active; 'I' for Inactive)
REMARK    1  A    between atoms: N1_2  and  C2_3 
REMARK    2  A    between atoms: C2_3  and  C3_4 
REMARK    3  A    between atoms: C3_4  and  N2_5 
REMARK    4  A    between atoms: N2_5  and  C4_6 
REMARK    5  A    between atoms: C4_6  and  N4_20 
REMARK    6  A    between atoms: C5_7  and  N3_8 
REMARK    7  A    between atoms: N3_8  and  C6_9 
REMARK    8  A    between atoms: C6_9  and  C7_10 
REMARK    9  A    between atoms: C9_12  and  C10_13 
REMARK   10  A    between atoms: C10_13  and  O2_15 
REMARK   11  A    between atoms: C13_18  and  O3_19 
REMARK   12  A    between atoms: N4_20  and  C14_21 
ROOT
HETATM    1  C4  UNL     1      25.531   2.743  51.427  1.00  0.00     0.152 C 
HETATM    2  C5  UNL     1      24.269   2.774  51.766  1.00  0.00     0.135 C 
ENDROOT
BRANCH   1   3
HETATM    3  N2  UNL     1      25.833   2.665  50.040  1.00  0.00    -0.185 NA
BRANCH   3   4
HETATM    4  C3  UNL     1      26.202   3.757  49.480  1.00  0.00     0.002 C 
BRANCH   4   5
HETATM    5  C2  UNL     1      26.730   4.875  49.010  1.00  0.00     0.154 C 
BRANCH   5   6
HETATM    6  N1  UNL     1      28.087   4.751  48.607  1.00  0.00    -0.399 NA
HETATM    7  C1  UNL     1      28.853   5.729  48.304  1.00  0.00     0.314 C 
ENDBRANCH   5   6
ENDBRANCH   4   5
ENDBRANCH   3   4
ENDBRANCH   1   3
BRANCH   1   8
HETATM    8  N4  UNL     1      26.425   2.794  52.534  1.00  0.00    -0.339 N 
HETATM    9  H13 UNL     1      26.376   3.718  53.036  1.00  0.00     0.167 HD
BRANCH   8  10
HETATM   10  C14 UNL     1      27.270   1.708  52.894  1.00  0.00     0.035 A 
HETATM   11  C15 UNL     1      28.469   1.955  53.531  1.00  0.00     0.032 A 
HETATM   12  C16 UNL     1      29.299   0.928  53.887  1.00  0.00     0.046 A 
HETATM   13  C17 UNL     1      28.876  -0.361  53.579  1.00  0.00     0.138 A 
HETATM   14  F1  UNL     1      29.658  -1.437  53.909  1.00  0.00    -0.204 F 
HETATM   15  C18 UNL     1      27.684  -0.641  52.945  1.00  0.00     0.074 A 
HETATM   16 CL1  UNL     1      27.209  -2.282  52.584  1.00  0.00    -0.081 Cl
HETATM   17  C19 UNL     1      26.860   0.426  52.592  1.00  0.00     0.056 A 
ENDBRANCH   8  10
ENDBRANCH   1   8
BRANCH   2  18
HETATM   18  N3  UNL     1      23.014   2.750  51.119  1.00  0.00    -0.391 N 
HETATM   19  H5  UNL     1      22.443   3.576  50.782  1.00  0.00     0.159 HD
BRANCH  18  20
HETATM   20  C6  UNL     1      22.404   1.450  50.869  1.00  0.00     0.160 C 
BRANCH  20  21
HETATM   21  C7  UNL     1      22.094   0.695  52.088  1.00  0.00    -0.006 A 
HETATM   22  C8  UNL     1      22.975   0.107  52.962  1.00  0.00     0.029 A 
HETATM   23  C9  UNL     1      22.520  -0.561  54.054  1.00  0.00     0.038 A 
HETATM   24  C11 UNL     1      21.162  -0.683  54.340  1.00  0.00     0.021 A 
HETATM   25  C12 UNL     1      20.270  -0.092  53.465  1.00  0.00     0.038 A 
HETATM   26  C13 UNL     1      20.733   0.589  52.353  1.00  0.00     0.073 A 
BRANCH  23  27
HETATM   27  C10 UNL     1      23.460  -1.185  54.979  1.00  0.00     0.176 C 
HETATM   28  O1  UNL     1      24.703  -0.996  54.900  1.00  0.00    -0.646 OA
BRANCH  27  29
HETATM   29  O2  UNL     1      23.042  -2.022  55.995  1.00  0.00    -0.773 OA
HETATM   30  H9  UNL     1      22.179  -2.575  55.969  1.00  0.00     0.167 HD
ENDBRANCH  27  29
ENDBRANCH  23  27
BRANCH  26  31
HETATM   31  O3  UNL     1      19.708   1.132  51.562  1.00  0.00    -0.360 OA
HETATM   32  H12 UNL     1      19.595   2.136  51.618  1.00  0.00     0.217 HD
ENDBRANCH  26  31
ENDBRANCH  20  21
ENDBRANCH  18  20
ENDBRANCH   2  18
TORSDOF 12
ENDMDL
MODEL 3
REMARK VINA RESULT:      -7.3      4.432      7.409
REMARK  12 active torsions:
REMARK  status: ('A' for Active; 'I' for Inactive)
REMARK    1  A    between atoms: N1_2  and  C2_3 
REMARK    2  A    between atoms: C2_3  and  C3_4 
REMARK    3  A    between atoms: C3_4  and  N2_5 
REMARK    4  A    between atoms: N2_5  and  C4_6 
REMARK    5  A    between atoms: C4_6  and  N4_20 
REMARK    6  A    between atoms: C5_7  and  N3_8 
REMARK    7  A    between atoms: N3_8  and  C6_9 
REMARK    8  A    between atoms: C6_9  and  C7_10 
REMARK    9  A    between atoms: C9_12  and  C10_13 
REMARK   10  A    between atoms: C10_13  and  O2_15 
REMARK   11  A    between atoms: C13_18  and  O3_19 
REMARK   12  A    between atoms: N4_20  and  C14_21 
ROOT
HETATM    1  C4  UNL     1      24.780   2.920  50.693  1.00  0.00     0.152 C 
HETATM    2  C5  UNL     1      25.583   2.595  51.673  1.00  0.00     0.135 C 
ENDROOT
BRANCH   1   3
HETATM    3  N2  UNL     1      23.382   2.843  50.942  1.00  0.00    -0.185 NA
BRANCH   3   4
HETATM    4  C3  UNL     1      22.957   1.744  51.442  1.00  0.00     0.002 C 
BRANCH   4   5
HETATM    5  C2  UNL     1      22.349   0.669  51.917  1.00  0.00     0.154 C 
BRANCH   5   6
HETATM    6  N1  UNL     1      22.717   0.335  53.248  1.00  0.00    -0.399 NA
HETATM    7  C1  UNL     1      23.432  -0.672  53.580  1.00  0.00     0.314 C 
ENDBRANCH   5   6
ENDBRANCH   4   5
ENDBRANCH   3   4
ENDBRANCH   1   3
BRANCH   1   8
HETATM    8  N4  UNL     1      25.455   3.309  49.502  1.00  0.00    -0.339 N 
HETATM    9  H13 UNL     1      25.477   2.533  48.792  1.00  0.00     0.167 HD
BRANCH   8  10
HETATM   10  C14 UNL     1      26.020   4.602  49.322  1.00  0.00     0.035 A 
HETATM   11  C15 UNL     1      27.249   4.733  48.710  1.00  0.00     0.032 A 
HETATM   12  C16 UNL     1      27.813   5.966  48.526  1.00  0.00     0.046 A 
HETATM   13  C17 UNL     1      27.092   7.065  48.980  1.00  0.00     0.138 A 
HETATM   14  F1  UNL     1      27.598   8.329  48.826  1.00  0.00    -0.204 F 
HETATM   15  C18 UNL     1      25.861   6.967  49.594  1.00  0.00     0.074 A 
HETATM   16 CL1  UNL     1      25.004   8.385  50.143  1.00  0.00    -0.081 Cl
HETATM   17  C19 UNL     1      25.312   5.699  49.769  1.00  0.00     0.056 A 
ENDBRANCH   8  10
ENDBRANCH   1   8
BRANCH   2  18
HETATM   18  N3  UNL     1      25.472   2.155  53.010  1.00  0.00    -0.391 N 
HETATM   19  H5  UNL     1      24.609   1.786  53.501  1.00  0.00     0.159 HD
BRANCH  18  20
HETATM   20  C6  UNL     1      26.669   2.199  53.841  1.00  0.00     0.160 C 
BRANCH  20  21
HETATM   21  C7  UNL     1      27.558   1.046  53.662  1.00  0.00    -0.006 A 
HETATM   22  C8  UNL     1      27.220  -0.226  53.267  1.00  0.00     0.029 A 
HETATM   23  C9  UNL     1      28.174  -1.187  53.149  1.00  0.00     0.038 A 
HETATM   24  C11 UNL     1      29.518  -0.939  53.419  1.00  0.00     0.021 A 
HETATM   25  C12 UNL     1      29.864   0.339  53.816  1.00  0.00     0.038 A 
HETATM   26  C13 UNL     1      28.894   1.318  53.936  1.00  0.00     0.073 A 
BRANCH  23  27
HETATM   27  C10 UNL     1      27.809  -2.536  52.730  1.00  0.00     0.176 C 
HETATM   28  O1  UNL     1      26.803  -2.764  52.008  1.00  0.00    -0.646 OA
BRANCH  27  29
HETATM   29  O2  UNL     1      28.547  -3.643  53.102  1.00  0.00    -0.773 OA
HETATM   30  H9  UNL     1      29.469  -3.877  52.722  1.00  0.00     0.167 HD
ENDBRANCH  27  29
ENDBRANCH  23  27
BRANCH  26  31
HETATM   31  O3  UNL     1      29.401   2.560  54.348  1.00  0.00    -0.360 OA
HETATM   32  H12 UNL     1      29.513   3.253  53.618  1.00  0.00     0.217 HD
ENDBRANCH  26  31
ENDBRANCH  20  21
ENDBRANCH  18  20
ENDBRANCH   2  18
TORSDOF 12
ENDMDL
MODEL 4
REMARK VINA RESULT:      -7.3      3.064      5.850
REMARK  12 active torsions:
REMARK  status: ('A' for Active; 'I' for Inactive)
REMARK    1  A    between atoms: N1_2  and  C2_3 
REMARK    2  A    between atoms: C2_3  and  C3_4 
REMARK    3  A    between atoms: C3_4  and  N2_5 
REMARK    4  A    between atoms: N2_5  and  C4_6 
REMARK    5  A    between atoms: C4_6  and  N4_20 
REMARK    6  A    between atoms: C5_7  and  N3_8 
REMARK    7  A    between atoms: N3_8  and  C6_9 
REMARK    8  A    between atoms: C6_9  and  C7_10 
REMARK    9  A    between atoms: C9_12  and  C10_13 
REMARK   10  A    between atoms: C10_13  and  O2_15 
REMARK   11  A    between atoms: C13_18  and  O3_19 
REMARK   12  A    between atoms: N4_20  and  C14_21 
ROOT
HETATM    1  C4  UNL     1      23.323   2.354  51.249  1.00  0.00     0.152 C 
HETATM    2  C5  UNL     1      24.228   2.546  52.173  1.00  0.00     0.135 C 
ENDROOT
BRANCH   1   3
HETATM    3  N2  UNL     1      23.645   2.761  49.925  1.00  0.00    -0.185 NA
BRANCH   3   4
HETATM    4  C3  UNL     1      23.714   4.024  49.724  1.00  0.00     0.002 C 
BRANCH   4   5
HETATM    5  C2  UNL     1      23.955   5.317  49.585  1.00  0.00     0.154 C 
BRANCH   5   6
HETATM    6  N1  UNL     1      25.078   5.781  50.323  1.00  0.00    -0.399 NA
HETATM    7  C1  UNL     1      25.639   6.919  50.166  1.00  0.00     0.314 C 
ENDBRANCH   5   6
ENDBRANCH   4   5
ENDBRANCH   3   4
ENDBRANCH   1   3
BRANCH   1   8
HETATM    8  N4  UNL     1      22.128   1.750  51.732  1.00  0.00    -0.339 N 
HETATM    9  H13 UNL     1      21.269   2.184  51.305  1.00  0.00     0.167 HD
BRANCH   8  10
HETATM   10  C14 UNL     1      22.127   0.688  52.678  1.00  0.00     0.035 A 
HETATM   11  C15 UNL     1      20.958   0.002  52.936  1.00  0.00     0.032 A 
HETATM   12  C16 UNL     1      20.932  -1.023  53.842  1.00  0.00     0.046 A 
HETATM   13  C17 UNL     1      22.129  -1.334  54.478  1.00  0.00     0.138 A 
HETATM   14  F1  UNL     1      22.175  -2.351  55.396  1.00  0.00    -0.204 F 
HETATM   15  C18 UNL     1      23.313  -0.669  54.241  1.00  0.00     0.074 A 
HETATM   16 CL1  UNL     1      24.785  -1.106  55.073  1.00  0.00    -0.081 Cl
HETATM   17  C19 UNL     1      23.309   0.372  53.314  1.00  0.00     0.056 A 
ENDBRANCH   8  10
ENDBRANCH   1   8
BRANCH   2  18
HETATM   18  N3  UNL     1      25.533   3.080  52.261  1.00  0.00    -0.391 N 
HETATM   19  H5  UNL     1      25.838   3.965  52.757  1.00  0.00     0.159 HD
BRANCH  18  20
HETATM   20  C6  UNL     1      26.610   2.352  51.602  1.00  0.00     0.160 C 
BRANCH  20  21
HETATM   21  C7  UNL     1      27.159   1.253  52.402  1.00  0.00    -0.006 A 
HETATM   22  C8  UNL     1      27.110  -0.093  52.132  1.00  0.00     0.029 A 
HETATM   23  C9  UNL     1      27.674  -0.988  52.985  1.00  0.00     0.038 A 
HETATM   24  C11 UNL     1      28.320  -0.596  54.156  1.00  0.00     0.021 A 
HETATM   25  C12 UNL     1      28.373   0.757  54.433  1.00  0.00     0.038 A 
HETATM   26  C13 UNL     1      27.800   1.669  53.565  1.00  0.00     0.073 A 
BRANCH  23  27
HETATM   27  C10 UNL     1      27.617  -2.417  52.693  1.00  0.00     0.176 C 
HETATM   28  O1  UNL     1      26.761  -2.907  51.911  1.00  0.00    -0.646 OA
BRANCH  27  29
HETATM   29  O2  UNL     1      28.500  -3.315  53.260  1.00  0.00    -0.773 OA
HETATM   30  H9  UNL     1      28.792  -3.296  54.242  1.00  0.00     0.167 HD
ENDBRANCH  27  29
ENDBRANCH  23  27
BRANCH  26  31
HETATM   31  O3  UNL     1      27.936   3.002  53.983  1.00  0.00    -0.360 OA
HETATM   32  H12 UNL     1      27.072   3.513  54.110  1.00  0.00     0.217 HD
ENDBRANCH  26  31
ENDBRANCH  20  21
ENDBRANCH  18  20
ENDBRANCH   2  18
TORSDOF 12
ENDMDL
MODEL 5
REMARK VINA RESULT:      -7.2      3.479      6.427
REMARK  12 active torsions:
REMARK  status: ('A' for Active; 'I' for Inactive)
REMARK    1  A    between atoms: N1_2  and  C2_3 
REMARK    2  A    between atoms: C2_3  and  C3_4 
REMARK    3  A    between atoms: C3_4  and  N2_5 
REMARK    4  A    between atoms: N2_5  and  C4_6 
REMARK    5  A    between atoms: C4_6  and  N4_20 
REMARK    6  A    between atoms: C5_7  and  N3_8 
REMARK    7  A    between atoms: N3_8  and  C6_9 
REMARK    8  A    between atoms: C6_9  and  C7_10 
REMARK    9  A    between atoms: C9_12  and  C10_13 
REMARK   10  A    between atoms: C10_13  and  O2_15 
REMARK   11  A    between atoms: C13_18  and  O3_19 
REMARK   12  A    between atoms: N4_20  and  C14_21 
ROOT
HETATM    1  C4  UNL     1      23.485   2.499  51.735  1.00  0.00     0.152 C 
HETATM    2  C5  UNL     1      24.517   2.504  52.537  1.00  0.00     0.135 C 
ENDROOT
BRANCH   1   3
HETATM    3  N2  UNL     1      23.744   2.482  50.337  1.00  0.00    -0.185 NA
BRANCH   3   4
HETATM    4  C3  UNL     1      23.956   3.619  49.788  1.00  0.00     0.002 C 
BRANCH   4   5
HETATM    5  C2  UNL     1      24.178   4.861  49.391  1.00  0.00     0.154 C 
BRANCH   5   6
HETATM    6  N1  UNL     1      23.460   5.843  50.127  1.00  0.00    -0.399 NA
HETATM    7  C1  UNL     1      23.281   5.823  51.393  1.00  0.00     0.314 C 
ENDBRANCH   5   6
ENDBRANCH   4   5
ENDBRANCH   3   4
ENDBRANCH   1   3
BRANCH   1   8
HETATM    8  N4  UNL     1      22.232   2.512  52.411  1.00  0.00    -0.339 N 
HETATM    9  H13 UNL     1      21.868   3.491  52.544  1.00  0.00     0.167 HD
BRANCH   8  10
HETATM   10  C14 UNL     1      21.575   1.327  52.843  1.00  0.00     0.035 A 
HETATM   11  C15 UNL     1      22.217   0.463  53.705  1.00  0.00     0.032 A 
HETATM   12  C16 UNL     1      21.606  -0.684  54.133  1.00  0.00     0.046 A 
HETATM   13  C17 UNL     1      20.320  -0.928  53.662  1.00  0.00     0.138 A 
HETATM   14  F1  UNL     1      19.648  -2.057  54.052  1.00  0.00    -0.204 F 
HETATM   15  C18 UNL     1      19.651  -0.083  52.801  1.00  0.00     0.074 A 
HETATM   16 CL1  UNL     1      18.037  -0.445  52.244  1.00  0.00    -0.081 Cl
HETATM   17  C19 UNL     1      20.299   1.076  52.380  1.00  0.00     0.056 A 
ENDBRANCH   8  10
ENDBRANCH   1   8
BRANCH   2  18
HETATM   18  N3  UNL     1      25.926   2.498  52.425  1.00  0.00    -0.391 N 
HETATM   19  H5  UNL     1      26.507   2.666  51.556  1.00  0.00     0.159 HD
BRANCH  18  20
HETATM   20  C6  UNL     1      26.701   2.232  53.630  1.00  0.00     0.160 C 
BRANCH  20  21
HETATM   21  C7  UNL     1      27.580   1.062  53.525  1.00  0.00    -0.006 A 
HETATM   22  C8  UNL     1      27.242  -0.214  53.144  1.00  0.00     0.029 A 
HETATM   23  C9  UNL     1      28.186  -1.191  53.098  1.00  0.00     0.038 A 
HETATM   24  C11 UNL     1      29.519  -0.955  53.428  1.00  0.00     0.021 A 
HETATM   25  C12 UNL     1      29.864   0.327  53.811  1.00  0.00     0.038 A 
HETATM   26  C13 UNL     1      28.905   1.323  53.857  1.00  0.00     0.073 A 
BRANCH  23  27
HETATM   27  C10 UNL     1      27.822  -2.545  52.695  1.00  0.00     0.176 C 
HETATM   28  O1  UNL     1      26.821  -2.781  51.967  1.00  0.00    -0.646 OA
BRANCH  27  29
HETATM   29  O2  UNL     1      28.553  -3.648  53.089  1.00  0.00    -0.773 OA
HETATM   30  H9  UNL     1      29.178  -4.177  52.473  1.00  0.00     0.167 HD
ENDBRANCH  27  29
ENDBRANCH  23  27
BRANCH  26  31
HETATM   31  O3  UNL     1      29.409   2.568  54.264  1.00  0.00    -0.360 OA
HETATM   32  H12 UNL     1      29.641   3.213  53.518  1.00  0.00     0.217 HD
ENDBRANCH  26  31
ENDBRANCH  20  21
ENDBRANCH  18  20
ENDBRANCH   2  18
TORSDOF 12
ENDMDL
MODEL 6
REMARK VINA RESULT:      -7.2      4.260      7.651
REMARK  12 active torsions:
REMARK  status: ('A' for Active; 'I' for Inactive)
REMARK    1  A    between atoms: N1_2  and  C2_3 
REMARK    2  A    between atoms: C2_3  and  C3_4 
REMARK    3  A    between atoms: C3_4  and  N2_5 
REMARK    4  A    between atoms: N2_5  and  C4_6 
REMARK    5  A    between atoms: C4_6  and  N4_20 
REMARK    6  A    between atoms: C5_7  and  N3_8 
REMARK    7  A    between atoms: N3_8  and  C6_9 
REMARK    8  A    between atoms: C6_9  and  C7_10 
REMARK    9  A    between atoms: C9_12  and  C10_13 
REMARK   10  A    between atoms: C10_13  and  O2_15 
REMARK   11  A    between atoms: C13_18  and  O3_19 
REMARK   12  A    between atoms: N4_20  and  C14_21 
ROOT
HETATM    1  C4  UNL     1      23.767   1.517  52.472  1.00  0.00     0.152 C 
HETATM    2  C5  UNL     1      24.656   0.715  52.996  1.00  0.00     0.135 C 
ENDROOT
BRANCH   1   3
HETATM    3  N2  UNL     1      22.568   0.932  51.981  1.00  0.00    -0.185 NA
BRANCH   3   4
HETATM    4  C3  UNL     1      22.291   1.157  50.751  1.00  0.00     0.002 C 
BRANCH   4   5
HETATM    5  C2  UNL     1      21.896   1.243  49.491  1.00  0.00     0.154 C 
BRANCH   5   6
HETATM    6  N1  UNL     1      22.578   2.234  48.735  1.00  0.00    -0.399 NA
HETATM    7  C1  UNL     1      22.189   2.692  47.607  1.00  0.00     0.314 C 
ENDBRANCH   5   6
ENDBRANCH   4   5
ENDBRANCH   3   4
ENDBRANCH   1   3
BRANCH   1   8
HETATM    8  N4  UNL     1      24.154   2.887  52.478  1.00  0.00    -0.339 N 
HETATM    9  H13 UNL     1      23.860   3.374  53.363  1.00  0.00     0.167 HD
BRANCH   8  10
HETATM   10  C14 UNL     1      24.856   3.495  51.400  1.00  0.00     0.035 A 
HETATM   11  C15 UNL     1      25.977   2.882  50.880  1.00  0.00     0.032 A 
HETATM   12  C16 UNL     1      26.669   3.448  49.844  1.00  0.00     0.046 A 
HETATM   13  C17 UNL     1      26.189   4.656  49.349  1.00  0.00     0.138 A 
HETATM   14  F1  UNL     1      26.833   5.277  48.311  1.00  0.00    -0.204 F 
HETATM   15  C18 UNL     1      25.072   5.293  49.847  1.00  0.00     0.074 A 
HETATM   16 CL1  UNL     1      24.519   6.810  49.183  1.00  0.00    -0.081 Cl
HETATM   17  C19 UNL     1      24.388   4.694  50.903  1.00  0.00     0.056 A 
ENDBRANCH   8  10
ENDBRANCH   1   8
BRANCH   2  18
HETATM   18  N3  UNL     1      24.797  -0.669  53.241  1.00  0.00    -0.391 N 
HETATM   19  H5  UNL     1      24.190  -1.284  53.854  1.00  0.00     0.159 HD
BRANCH  18  20
HETATM   20  C6  UNL     1      25.898  -1.365  52.588  1.00  0.00     0.160 C 
BRANCH  20  21
HETATM   21  C7  UNL     1      27.224  -0.865  52.966  1.00  0.00    -0.006 A 
HETATM   22  C8  UNL     1      27.583   0.426  53.268  1.00  0.00     0.029 A 
HETATM   23  C9  UNL     1      28.867   0.724  53.603  1.00  0.00     0.038 A 
HETATM   24  C11 UNL     1      29.866  -0.245  53.655  1.00  0.00     0.021 A 
HETATM   25  C12 UNL     1      29.511  -1.546  53.352  1.00  0.00     0.038 A 
HETATM   26  C13 UNL     1      28.205  -1.850  53.013  1.00  0.00     0.073 A 
BRANCH  23  27
HETATM   27  C10 UNL     1      29.242   2.097  53.922  1.00  0.00     0.176 C 
HETATM   28  O1  UNL     1      29.684   2.425  55.055  1.00  0.00    -0.646 OA
BRANCH  27  29
HETATM   29  O2  UNL     1      29.134   3.119  52.999  1.00  0.00    -0.773 OA
HETATM   30  H9  UNL     1      29.910   3.728  52.717  1.00  0.00     0.167 HD
ENDBRANCH  27  29
ENDBRANCH  23  27
BRANCH  26  31
HETATM   31  O3  UNL     1      28.001  -3.210  52.733  1.00  0.00    -0.360 OA
HETATM   32  H12 UNL     1      28.441  -3.556  51.889  1.00  0.00     0.217 HD
ENDBRANCH  26  31
ENDBRANCH  20  21
ENDBRANCH  18  20
ENDBRANCH   2  18
TORSDOF 12
ENDMDL
MODEL 7
REMARK VINA RESULT:      -7.1      3.121      4.839
REMARK  12 active torsions:
REMARK  status: ('A' for Active; 'I' for Inactive)
REMARK    1  A    between atoms: N1_2  and  C2_3 
REMARK    2  A    between atoms: C2_3  and  C3_4 
REMARK    3  A    between atoms: C3_4  and  N2_5 
REMARK    4  A    between atoms: N2_5  and  C4_6 
REMARK    5  A    between atoms: C4_6  and  N4_20 
REMARK    6  A    between atoms: C5_7  and  N3_8 
REMARK    7  A    between atoms: N3_8  and  C6_9 
REMARK    8  A    between atoms: C6_9  and  C7_10 
REMARK    9  A    between atoms: C9_12  and  C10_13 
REMARK   10  A    between atoms: C10_13  and  O2_15 
REMARK   11  A    between atoms: C13_18  and  O3_19 
REMARK   12  A    between atoms: N4_20  and  C14_21 
ROOT
HETATM    1  C4  UNL     1      26.911   1.887  51.881  1.00  0.00     0.152 C 
HETATM    2  C5  UNL     1      26.522   2.673  50.911  1.00  0.00     0.135 C 
ENDROOT
BRANCH   1   3
HETATM    3  N2  UNL     1      27.945   2.364  52.734  1.00  0.00    -0.185 NA
BRANCH   3   4
HETATM    4  C3  UNL     1      28.471   1.501  53.521  1.00  0.00     0.002 C 
BRANCH   4   5
HETATM    5  C2  UNL     1      28.921   0.695  54.468  1.00  0.00     0.154 C 
BRANCH   5   6
HETATM    6  N1  UNL     1      28.607  -0.675  54.262  1.00  0.00    -0.399 NA
HETATM    7  C1  UNL     1      29.161  -1.430  53.391  1.00  0.00     0.314 C 
ENDBRANCH   5   6
ENDBRANCH   4   5
ENDBRANCH   3   4
ENDBRANCH   1   3
BRANCH   1   8
HETATM    8  N4  UNL     1      26.217   0.645  51.928  1.00  0.00    -0.339 N 
HETATM    9  H13 UNL     1      26.769  -0.130  51.478  1.00  0.00     0.167 HD
BRANCH   8  10
HETATM   10  C14 UNL     1      24.932   0.500  52.520  1.00  0.00     0.035 A 
HETATM   11  C15 UNL     1      23.852   1.171  51.985  1.00  0.00     0.032 A 
HETATM   12  C16 UNL     1      22.606   1.048  52.538  1.00  0.00     0.046 A 
HETATM   13  C17 UNL     1      22.488   0.222  53.650  1.00  0.00     0.138 A 
HETATM   14  F1  UNL     1      21.269   0.052  54.252  1.00  0.00    -0.204 F 
HETATM   15  C18 UNL     1      23.548  -0.462  54.208  1.00  0.00     0.074 A 
HETATM   16 CL1  UNL     1      23.335  -1.484  55.607  1.00  0.00    -0.081 Cl
HETATM   17  C19 UNL     1      24.805  -0.316  53.625  1.00  0.00     0.056 A 
ENDBRANCH   8  10
ENDBRANCH   1   8
BRANCH   2  18
HETATM   18  N3  UNL     1      26.846   3.955  50.414  1.00  0.00    -0.391 N 
HETATM   19  H5  UNL     1      27.008   4.843  50.969  1.00  0.00     0.159 HD
BRANCH  18  20
HETATM   20  C6  UNL     1      26.978   4.110  48.971  1.00  0.00     0.160 C 
BRANCH  20  21
HETATM   21  C7  UNL     1      27.680   5.334  48.568  1.00  0.00    -0.006 A 
HETATM   22  C8  UNL     1      29.000   5.470  48.215  1.00  0.00     0.029 A 
HETATM   23  C9  UNL     1      29.497   6.686  47.863  1.00  0.00     0.038 A 
HETATM   24  C11 UNL     1      28.709   7.834  47.842  1.00  0.00     0.021 A 
HETATM   25  C12 UNL     1      27.379   7.703  48.195  1.00  0.00     0.038 A 
HETATM   26  C13 UNL     1      26.873   6.466  48.553  1.00  0.00     0.073 A 
BRANCH  23  27
HETATM   27  C10 UNL     1      30.900   6.825  47.490  1.00  0.00     0.176 C 
HETATM   28  O1  UNL     1      31.582   5.853  47.070  1.00  0.00    -0.646 OA
BRANCH  27  29
HETATM   29  O2  UNL     1      31.564   8.033  47.577  1.00  0.00    -0.773 OA
HETATM   30  H9  UNL     1      31.546   8.756  46.851  1.00  0.00     0.167 HD
ENDBRANCH  27  29
ENDBRANCH  23  27
BRANCH  26  31
HETATM   31  O3  UNL     1      25.509   6.494  48.886  1.00  0.00    -0.360 OA
HETATM   32  H12 UNL     1      24.874   6.179  48.163  1.00  0.00     0.217 HD
ENDBRANCH  26  31
ENDBRANCH  20  21
ENDBRANCH  18  20
ENDBRANCH   2  18
TORSDOF 12
ENDMDL
MODEL 8
REMARK VINA RESULT:      -7.0      4.268      7.056
REMARK  12 active torsions:
REMARK  status: ('A' for Active; 'I' for Inactive)
REMARK    1  A    between atoms: N1_2  and  C2_3 
REMARK    2  A    between atoms: C2_3  and  C3_4 
REMARK    3  A    between atoms: C3_4  and  N2_5 
REMARK    4  A    between atoms: N2_5  and  C4_6 
REMARK    5  A    between atoms: C4_6  and  N4_20 
REMARK    6  A    between atoms: C5_7  and  N3_8 
REMARK    7  A    between atoms: N3_8  and  C6_9 
REMARK    8  A    between atoms: C6_9  and  C7_10 
REMARK    9  A    between atoms: C9_12  and  C10_13 
REMARK   10  A    between atoms: C10_13  and  O2_15 
REMARK   11  A    between atoms: C13_18  and  O3_19 
REMARK   12  A    between atoms: N4_20  and  C14_21 
ROOT
HETATM    1  C4  UNL     1      23.015   2.958  52.205  1.00  0.00     0.152 C 
HETATM    2  C5  UNL     1      24.156   3.372  52.691  1.00  0.00     0.135 C 
ENDROOT
BRANCH   1   3
HETATM    3  N2  UNL     1      22.815   1.553  52.115  1.00  0.00    -0.185 NA
BRANCH   3   4
HETATM    4  C3  UNL     1      21.841   1.076  52.797  1.00  0.00     0.002 C 
BRANCH   4   5
HETATM    5  C2  UNL     1      20.920   0.655  53.648  1.00  0.00     0.154 C 
BRANCH   5   6
HETATM    6  N1  UNL     1      21.431  -0.135  54.713  1.00  0.00    -0.399 NA
HETATM    7  C1  UNL     1      21.658  -1.392  54.649  1.00  0.00     0.314 C 
ENDBRANCH   5   6
ENDBRANCH   4   5
ENDBRANCH   3   4
ENDBRANCH   1   3
BRANCH   1   8
HETATM    8  N4  UNL     1      22.133   4.011  51.834  1.00  0.00    -0.339 N 
HETATM    9  H13 UNL     1      21.509   4.300  52.630  1.00  0.00     0.167 HD
BRANCH   8  10
HETATM   10  C14 UNL     1      22.120   4.585  50.532  1.00  0.00     0.035 A 
HETATM   11  C15 UNL     1      22.156   5.957  50.389  1.00  0.00     0.032 A 
HETATM   12  C16 UNL     1      22.144   6.532  49.147  1.00  0.00     0.046 A 
HETATM   13  C17 UNL     1      22.097   5.674  48.053  1.00  0.00     0.138 A 
HETATM   14  F1  UNL     1      22.084   6.184  46.782  1.00  0.00    -0.204 F 
HETATM   15  C18 UNL     1      22.061   4.300  48.164  1.00  0.00     0.074 A 
HETATM   16 CL1  UNL     1      22.001   3.275  46.752  1.00  0.00    -0.081 Cl
HETATM   17  C19 UNL     1      22.073   3.742  49.441  1.00  0.00     0.056 A 
ENDBRANCH   8  10
ENDBRANCH   1   8
BRANCH   2  18
HETATM   18  N3  UNL     1      25.346   2.799  53.193  1.00  0.00    -0.391 N 
HETATM   19  H5  UNL     1      25.637   2.694  54.206  1.00  0.00     0.159 HD
BRANCH  18  20
HETATM   20  C6  UNL     1      26.309   2.281  52.229  1.00  0.00     0.160 C 
BRANCH  20  21
HETATM   21  C7  UNL     1      27.122   1.172  52.739  1.00  0.00    -0.006 A 
HETATM   22  C8  UNL     1      26.994  -0.166  52.457  1.00  0.00     0.029 A 
HETATM   23  C9  UNL     1      27.837  -1.072  53.018  1.00  0.00     0.038 A 
HETATM   24  C11 UNL     1      28.856  -0.699  53.893  1.00  0.00     0.021 A 
HETATM   25  C12 UNL     1      28.990   0.646  54.180  1.00  0.00     0.038 A 
HETATM   26  C13 UNL     1      28.132   1.569  53.609  1.00  0.00     0.073 A 
BRANCH  23  27
HETATM   27  C10 UNL     1      27.697  -2.492  52.715  1.00  0.00     0.176 C 
HETATM   28  O1  UNL     1      26.835  -2.922  51.903  1.00  0.00    -0.646 OA
BRANCH  27  29
HETATM   29  O2  UNL     1      28.500  -3.450  53.303  1.00  0.00    -0.773 OA
HETATM   30  H9  UNL     1      29.506  -3.543  53.133  1.00  0.00     0.167 HD
ENDBRANCH  27  29
ENDBRANCH  23  27
BRANCH  26  31
HETATM   31  O3  UNL     1      28.394   2.892  53.998  1.00  0.00    -0.360 OA
HETATM   32  H12 UNL     1      28.413   3.574  53.250  1.00  0.00     0.217 HD
ENDBRANCH  26  31
ENDBRANCH  20  21
ENDBRANCH  18  20
ENDBRANCH   2  18
TORSDOF 12
ENDMDL
MODEL 9
REMARK VINA RESULT:      -7.0      3.374      5.624
REMARK  12 active torsions:
REMARK  status: ('A' for Active; 'I' for Inactive)
REMARK    1  A    between atoms: N1_2  and  C2_3 
REMARK    2  A    between atoms: C2_3  and  C3_4 
REMARK    3  A    between atoms: C3_4  and  N2_5 
REMARK    4  A    between atoms: N2_5  and  C4_6 
REMARK    5  A    between atoms: C4_6  and  N4_20 
REMARK    6  A    between atoms: C5_7  and  N3_8 
REMARK    7  A    between atoms: N3_8  and  C6_9 
REMARK    8  A    between atoms: C6_9  and  C7_10 
REMARK    9  A    between atoms: C9_12  and  C10_13 
REMARK   10  A    between atoms: C10_13  and  O2_15 
REMARK   11  A    between atoms: C13_18  and  O3_19 
REMARK   12  A    between atoms: N4_20  and  C14_21 
ROOT
HETATM    1  C4  UNL     1      24.725   2.668  52.921  1.00  0.00     0.152 C 
HETATM    2  C5  UNL     1      25.076   3.265  51.811  1.00  0.00     0.135 C 
ENDROOT
BRANCH   1   3
HETATM    3  N2  UNL     1      23.359   2.300  53.061  1.00  0.00    -0.185 NA
BRANCH   3   4
HETATM    4  C3  UNL     1      23.115   1.044  53.120  1.00  0.00     0.002 C 
BRANCH   4   5
HETATM    5  C2  UNL     1      22.706  -0.214  53.095  1.00  0.00     0.154 C 
BRANCH   5   6
HETATM    6  N1  UNL     1      21.769  -0.539  54.112  1.00  0.00    -0.399 NA
HETATM    7  C1  UNL     1      21.362  -1.721  54.382  1.00  0.00     0.314 C 
ENDBRANCH   5   6
ENDBRANCH   4   5
ENDBRANCH   3   4
ENDBRANCH   1   3
BRANCH   1   8
HETATM    8  N4  UNL     1      25.799   2.479  53.836  1.00  0.00    -0.339 N 
HETATM    9  H13 UNL     1      25.728   3.126  54.663  1.00  0.00     0.167 HD
BRANCH   8  10
HETATM   10  C14 UNL     1      26.829   1.521  53.630  1.00  0.00     0.035 A 
HETATM   11  C15 UNL     1      28.148   1.882  53.817  1.00  0.00     0.032 A 
HETATM   12  C16 UNL     1      29.156   0.977  53.624  1.00  0.00     0.046 A 
HETATM   13  C17 UNL     1      28.788  -0.307  53.237  1.00  0.00     0.138 A 
HETATM   14  F1  UNL     1      29.747  -1.263  53.028  1.00  0.00    -0.204 F 
HETATM   15  C18 UNL     1      27.480  -0.698  53.043  1.00  0.00     0.074 A 
HETATM   16 CL1  UNL     1      27.081  -2.326  52.555  1.00  0.00    -0.081 Cl
HETATM   17  C19 UNL     1      26.474   0.244  53.245  1.00  0.00     0.056 A 
ENDBRANCH   8  10
ENDBRANCH   1   8
BRANCH   2  18
HETATM   18  N3  UNL     1      24.457   3.689  50.614  1.00  0.00    -0.391 N 
HETATM   19  H5  UNL     1      23.513   4.156  50.503  1.00  0.00     0.159 HD
BRANCH  18  20
HETATM   20  C6  UNL     1      25.176   3.472  49.365  1.00  0.00     0.160 C 
BRANCH  20  21
HETATM   21  C7  UNL     1      26.044   4.589  48.978  1.00  0.00    -0.006 A 
HETATM   22  C8  UNL     1      27.414   4.597  48.877  1.00  0.00     0.029 A 
HETATM   23  C9  UNL     1      28.071   5.726  48.502  1.00  0.00     0.038 A 
HETATM   24  C11 UNL     1      27.404   6.912  48.206  1.00  0.00     0.021 A 
HETATM   25  C12 UNL     1      26.025   6.910  48.305  1.00  0.00     0.038 A 
HETATM   26  C13 UNL     1      25.355   5.761  48.687  1.00  0.00     0.073 A 
BRANCH  23  27
HETATM   27  C10 UNL     1      29.526   5.728  48.397  1.00  0.00     0.176 C 
HETATM   28  O1  UNL     1      30.155   4.826  47.783  1.00  0.00    -0.646 OA
BRANCH  27  29
HETATM   29  O2  UNL     1      30.300   6.720  48.968  1.00  0.00    -0.773 OA
HETATM   30  H9  UNL     1      31.154   6.547  49.508  1.00  0.00     0.167 HD
ENDBRANCH  27  29
ENDBRANCH  23  27
BRANCH  26  31
HETATM   31  O3  UNL     1      23.961   5.918  48.741  1.00  0.00    -0.360 OA
HETATM   32  H12 UNL     1      23.607   6.423  49.544  1.00  0.00     0.217 HD
ENDBRANCH  26  31
ENDBRANCH  20  21
ENDBRANCH  18  20
ENDBRANCH   2  18
TORSDOF 12
ENDMDL
