MODEL 1
REMARK VINA RESULT:      -8.4      0.000      0.000
REMARK  5 active torsions:
REMARK  status: ('A' for Active; 'I' for Inactive)
REMARK    1  A    between atoms: N1_1  and  C1_2 
REMARK    2  A    between atoms: N2_5  and  C4_6 
REMARK    3  A    between atoms: C4_6  and  C5_7 
REMARK    4  A    between atoms: C9_14  and  N6_15 
REMARK    5  A    between atoms: N6_15  and  C10_16 
ROOT
HETATM    1  C5  UNL     1      22.046   0.659  52.028  1.00  0.00     0.004 A 
HETATM    2  C6  UNL     1      20.671   0.475  52.051  1.00  0.00     0.030 A 
HETATM    3  C7  UNL     1      20.357  -0.313  53.142  1.00  0.00     0.119 A 
HETATM    4  N3  UNL     1      21.515  -0.598  53.764  1.00  0.00    -0.240 N 
HETATM    5  N4  UNL     1      21.590  -1.343  54.862  1.00  0.00    -0.161 NA
HETATM    6  C8  UNL     1      22.814  -1.541  55.367  1.00  0.00     0.258 A 
HETATM    7  N5  UNL     1      23.874  -0.997  54.763  1.00  0.00    -0.220 NA
HETATM    8  C9  UNL     1      23.778  -0.251  53.658  1.00  0.00     0.159 A 
HETATM    9  C15 UNL     1      22.546  -0.019  53.105  1.00  0.00     0.112 A 
ENDROOT
BRANCH   1  10
HETATM   10  C4  UNL     1      22.803   1.430  51.041  1.00  0.00     0.313 C 
BRANCH  10  11
HETATM   11  N2  UNL     1      22.390   2.851  51.011  1.00  0.00     0.092 N 
HETATM   12  C3  UNL     1      23.379   3.497  50.167  1.00  0.00     0.275 C 
HETATM   13  C2  UNL     1      23.457   4.976  50.300  1.00  0.00     0.065 C 
HETATM   14  C1  UNL     1      23.418   5.449  51.726  1.00  0.00     0.221 C 
HETATM   15  C17 UNL     1      23.663   4.224  52.598  1.00  0.00     0.065 C 
HETATM   16  C16 UNL     1      22.468   3.319  52.378  1.00  0.00     0.275 C 
BRANCH  14  17
HETATM   17  N1  UNL     1      24.355   6.509  51.982  1.00  0.00     0.083 N 
HETATM   18  H1  UNL     1      25.207   6.113  52.416  1.00  0.00     0.313 HD
HETATM   19  H2  UNL     1      23.930   7.151  52.667  1.00  0.00     0.313 HD
ENDBRANCH  14  17
ENDBRANCH  10  11
ENDBRANCH   1  10
BRANCH   8  20
HETATM   20  N6  UNL     1      24.934   0.298  53.053  1.00  0.00    -0.338 N 
HETATM   21  H13 UNL     1      25.031   0.942  52.256  1.00  0.00     0.167 HD
BRANCH  20  22
HETATM   22  C10 UNL     1      26.289   0.076  53.423  1.00  0.00     0.051 A 
HETATM   23  C11 UNL     1      27.216  -0.822  52.878  1.00  0.00     0.032 A 
HETATM   24  C12 UNL     1      28.502  -0.933  53.313  1.00  0.00     0.021 A 
HETATM   25  C13 UNL     1      28.982  -0.167  54.321  1.00  0.00     0.116 A 
HETATM   26  N7  UNL     1      28.124   0.710  54.872  1.00  0.00    -0.271 NA
HETATM   27  C14 UNL     1      26.854   0.822  54.444  1.00  0.00     0.145 A 
ENDBRANCH  20  22
ENDBRANCH   8  20
TORSDOF 5
ENDMDL
MODEL 2
REMARK VINA RESULT:      -8.2      1.643      1.838
REMARK  5 active torsions:
REMARK  status: ('A' for Active; 'I' for Inactive)
REMARK    1  A    between atoms: N1_1  and  C1_2 
REMARK    2  A    between atoms: N2_5  and  C4_6 
REMARK    3  A    between atoms: C4_6  and  C5_7 
REMARK    4  A    between atoms: C9_14  and  N6_15 
REMARK    5  A    between atoms: N6_15  and  C10_16 
ROOT
HETATM    1  C5  UNL     1      22.504   1.428  51.797  1.00  0.00     0.004 A 
HETATM    2  C6  UNL     1      21.249   2.014  51.880  1.00  0.00     0.030 A 
HETATM    3  C7  UNL     1      20.613   1.519  53.002  1.00  0.00     0.119 A 
HETATM    4  N3  UNL     1      21.463   0.654  53.584  1.00  0.00    -0.240 N 
HETATM    5  N4  UNL     1      21.176  -0.014  54.696  1.00  0.00    -0.161 NA
HETATM    6  C8  UNL     1      22.124  -0.841  55.157  1.00  0.00     0.258 A 
HETATM    7  N5  UNL     1      23.279  -0.954  54.497  1.00  0.00    -0.220 NA
HETATM    8  C9  UNL     1      23.548  -0.273  53.379  1.00  0.00     0.159 A 
HETATM    9  C15 UNL     1      22.611   0.586  52.870  1.00  0.00     0.112 A 
ENDROOT
BRANCH   1  10
HETATM   10  C4  UNL     1      23.510   1.669  50.761  1.00  0.00     0.313 C 
BRANCH  10  11
HETATM   11  N2  UNL     1      24.089   3.028  50.856  1.00  0.00     0.092 N 
HETATM   12  C3  UNL     1      24.040   3.537  49.498  1.00  0.00     0.275 C 
HETATM   13  C2  UNL     1      24.928   4.698  49.223  1.00  0.00     0.065 C 
HETATM   14  C1  UNL     1      26.304   4.546  49.806  1.00  0.00     0.221 C 
HETATM   15  C17 UNL     1      26.452   3.081  50.198  1.00  0.00     0.065 C 
HETATM   16  C16 UNL     1      25.451   2.852  51.312  1.00  0.00     0.275 C 
BRANCH  14  17
HETATM   17  N1  UNL     1      27.337   4.986  48.908  1.00  0.00     0.083 N 
HETATM   18  H1  UNL     1      28.152   5.310  49.458  1.00  0.00     0.313 HD
HETATM   19  H2  UNL     1      26.978   5.796  48.382  1.00  0.00     0.313 HD
ENDBRANCH  14  17
ENDBRANCH  10  11
ENDBRANCH   1  10
BRANCH   8  20
HETATM   20  N6  UNL     1      24.787  -0.434  52.714  1.00  0.00    -0.338 N 
HETATM   21  H13 UNL     1      24.996  -0.656  51.730  1.00  0.00     0.167 HD
BRANCH  20  22
HETATM   22  C10 UNL     1      26.088  -0.321  53.276  1.00  0.00     0.051 A 
HETATM   23  C11 UNL     1      27.259  -1.014  52.937  1.00  0.00     0.032 A 
HETATM   24  C12 UNL     1      28.460  -0.806  53.545  1.00  0.00     0.021 A 
HETATM   25  C13 UNL     1      28.608   0.104  54.537  1.00  0.00     0.116 A 
HETATM   26  N7  UNL     1      27.509   0.792  54.893  1.00  0.00    -0.271 NA
HETATM   27  C14 UNL     1      26.322   0.588  54.294  1.00  0.00     0.145 A 
ENDBRANCH  20  22
ENDBRANCH   8  20
TORSDOF 5
ENDMDL
MODEL 3
REMARK VINA RESULT:      -8.2      2.050      5.241
REMARK  5 active torsions:
REMARK  status: ('A' for Active; 'I' for Inactive)
REMARK    1  A    between atoms: N1_1  and  C1_2 
REMARK    2  A    between atoms: N2_5  and  C4_6 
REMARK    3  A    between atoms: C4_6  and  C5_7 
REMARK    4  A    between atoms: C9_14  and  N6_15 
REMARK    5  A    between atoms: N6_15  and  C10_16 
ROOT
HETATM    1  C5  UNL     1      24.211   3.249  52.264  1.00  0.00     0.004 A 
HETATM    2  C6  UNL     1      23.417   4.386  52.223  1.00  0.00     0.030 A 
HETATM    3  C7  UNL     1      23.882   5.203  51.211  1.00  0.00     0.119 A 
HETATM    4  N3  UNL     1      24.933   4.575  50.653  1.00  0.00    -0.240 N 
HETATM    5  N4  UNL     1      25.630   5.078  49.640  1.00  0.00    -0.161 NA
HETATM    6  C8  UNL     1      26.650   4.336  49.191  1.00  0.00     0.258 A 
HETATM    7  N5  UNL     1      26.914   3.159  49.764  1.00  0.00    -0.220 NA
HETATM    8  C9  UNL     1      26.201   2.671  50.783  1.00  0.00     0.159 A 
HETATM    9  C15 UNL     1      25.146   3.393  51.277  1.00  0.00     0.112 A 
ENDROOT
BRANCH   1  10
HETATM   10  C4  UNL     1      24.068   2.121  53.187  1.00  0.00     0.313 C 
BRANCH  10  11
HETATM   11  N2  UNL     1      23.231   1.041  52.618  1.00  0.00     0.092 N 
HETATM   12  C3  UNL     1      21.872   1.419  52.960  1.00  0.00     0.275 C 
HETATM   13  C2  UNL     1      20.871   0.322  52.885  1.00  0.00     0.065 C 
HETATM   14  C1  UNL     1      21.354  -0.967  53.488  1.00  0.00     0.221 C 
HETATM   15  C17 UNL     1      22.598  -0.629  54.300  1.00  0.00     0.065 C 
HETATM   16  C16 UNL     1      23.634  -0.174  53.292  1.00  0.00     0.275 C 
BRANCH  14  17
HETATM   17  N1  UNL     1      20.342  -1.624  54.270  1.00  0.00     0.083 N 
HETATM   18  H1  UNL     1      20.482  -2.649  54.217  1.00  0.00     0.313 HD
HETATM   19  H2  UNL     1      19.426  -1.415  53.848  1.00  0.00     0.313 HD
ENDBRANCH  14  17
ENDBRANCH  10  11
ENDBRANCH   1  10
BRANCH   8  20
HETATM   20  N6  UNL     1      26.526   1.420  51.360  1.00  0.00    -0.338 N 
HETATM   21  H13 UNL     1      26.240   0.466  51.096  1.00  0.00     0.167 HD
BRANCH  20  22
HETATM   22  C10 UNL     1      27.359   1.180  52.487  1.00  0.00     0.051 A 
HETATM   23  C11 UNL     1      27.699  -0.039  53.090  1.00  0.00     0.032 A 
HETATM   24  C12 UNL     1      28.526  -0.142  54.167  1.00  0.00     0.021 A 
HETATM   25  C13 UNL     1      29.088   0.949  54.740  1.00  0.00     0.116 A 
HETATM   26  N7  UNL     1      28.789   2.140  54.191  1.00  0.00    -0.271 NA
HETATM   27  C14 UNL     1      27.973   2.243  53.128  1.00  0.00     0.145 A 
ENDBRANCH  20  22
ENDBRANCH   8  20
TORSDOF 5
ENDMDL
MODEL 4
REMARK VINA RESULT:      -7.9      1.289      5.559
REMARK  5 active torsions:
REMARK  status: ('A' for Active; 'I' for Inactive)
REMARK    1  A    between atoms: N1_1  and  C1_2 
REMARK    2  A    between atoms: N2_5  and  C4_6 
REMARK    3  A    between atoms: C4_6  and  C5_7 
REMARK    4  A    between atoms: C9_14  and  N6_15 
REMARK    5  A    between atoms: N6_15  and  C10_16 
ROOT
HETATM    1  C5  UNL     1      23.178  -0.281  53.603  1.00  0.00     0.004 A 
HETATM    2  C6  UNL     1      22.893  -1.055  54.719  1.00  0.00     0.030 A 
HETATM    3  C7  UNL     1      21.533  -1.292  54.745  1.00  0.00     0.119 A 
HETATM    4  N3  UNL     1      21.007  -0.676  53.671  1.00  0.00    -0.240 N 
HETATM    5  N4  UNL     1      19.711  -0.695  53.380  1.00  0.00    -0.161 NA
HETATM    6  C8  UNL     1      19.337  -0.035  52.277  1.00  0.00     0.258 A 
HETATM    7  N5  UNL     1      20.256   0.594  51.540  1.00  0.00    -0.220 NA
HETATM    8  C9  UNL     1      21.556   0.603  51.851  1.00  0.00     0.159 A 
HETATM    9  C15 UNL     1      21.987  -0.060  52.969  1.00  0.00     0.112 A 
ENDROOT
BRANCH   1  10
HETATM   10  C4  UNL     1      24.499   0.199  53.192  1.00  0.00     0.313 C 
BRANCH  10  11
HETATM   11  N2  UNL     1      25.589  -0.462  53.945  1.00  0.00     0.092 N 
HETATM   12  C3  UNL     1      26.395   0.634  54.450  1.00  0.00     0.275 C 
HETATM   13  C2  UNL     1      27.770   0.265  54.879  1.00  0.00     0.065 C 
HETATM   14  C1  UNL     1      28.465  -0.658  53.919  1.00  0.00     0.221 C 
HETATM   15  C17 UNL     1      27.653  -0.639  52.630  1.00  0.00     0.065 C 
HETATM   16  C16 UNL     1      26.315  -1.258  52.980  1.00  0.00     0.275 C 
BRANCH  14  17
HETATM   17  N1  UNL     1      29.843  -0.304  53.711  1.00  0.00     0.083 N 
HETATM   18  H1  UNL     1      29.957   0.716  53.845  1.00  0.00     0.313 HD
HETATM   19  H2  UNL     1      30.082  -0.515  52.731  1.00  0.00     0.313 HD
ENDBRANCH  14  17
ENDBRANCH  10  11
ENDBRANCH   1  10
BRANCH   8  20
HETATM   20  N6  UNL     1      22.489   1.291  51.039  1.00  0.00    -0.338 N 
HETATM   21  H13 UNL     1      23.039   0.970  50.230  1.00  0.00     0.167 HD
BRANCH  20  22
HETATM   22  C10 UNL     1      22.901   2.647  51.159  1.00  0.00     0.051 A 
HETATM   23  C11 UNL     1      22.886   3.477  52.288  1.00  0.00     0.032 A 
HETATM   24  C12 UNL     1      23.325   4.767  52.280  1.00  0.00     0.021 A 
HETATM   25  C13 UNL     1      23.816   5.346  51.159  1.00  0.00     0.116 A 
HETATM   26  N7  UNL     1      23.849   4.583  50.052  1.00  0.00    -0.271 NA
HETATM   27  C14 UNL     1      23.416   3.310  50.057  1.00  0.00     0.145 A 
ENDBRANCH  20  22
ENDBRANCH   8  20
TORSDOF 5
ENDMDL
MODEL 5
REMARK VINA RESULT:      -7.8      1.812      5.759
REMARK  5 active torsions:
REMARK  status: ('A' for Active; 'I' for Inactive)
REMARK    1  A    between atoms: N1_1  and  C1_2 
REMARK    2  A    between atoms: N2_5  and  C4_6 
REMARK    3  A    between atoms: C4_6  and  C5_7 
REMARK    4  A    between atoms: C9_14  and  N6_15 
REMARK    5  A    between atoms: N6_15  and  C10_16 
ROOT
HETATM    1  C5  UNL     1      25.308   0.101  53.662  1.00  0.00     0.004 A 
HETATM    2  C6  UNL     1      25.364  -0.472  54.924  1.00  0.00     0.030 A 
HETATM    3  C7  UNL     1      26.578  -0.144  55.496  1.00  0.00     0.119 A 
HETATM    4  N3  UNL     1      27.241   0.611  54.600  1.00  0.00    -0.240 N 
HETATM    5  N4  UNL     1      28.454   1.106  54.819  1.00  0.00    -0.161 NA
HETATM    6  C8  UNL     1      28.986   1.839  53.833  1.00  0.00     0.258 A 
HETATM    7  N5  UNL     1      28.295   2.032  52.707  1.00  0.00    -0.220 NA
HETATM    8  C9  UNL     1      27.076   1.523  52.505  1.00  0.00     0.159 A 
HETATM    9  C15 UNL     1      26.489   0.769  53.486  1.00  0.00     0.112 A 
ENDROOT
BRANCH   1  10
HETATM   10  C4  UNL     1      24.199   0.005  52.712  1.00  0.00     0.313 C 
BRANCH  10  11
HETATM   11  N2  UNL     1      22.904   0.369  53.331  1.00  0.00     0.092 N 
HETATM   12  C3  UNL     1      22.262  -0.904  53.601  1.00  0.00     0.275 C 
HETATM   13  C2  UNL     1      20.795  -0.839  53.830  1.00  0.00     0.065 C 
HETATM   14  C1  UNL     1      20.079   0.051  52.853  1.00  0.00     0.221 C 
HETATM   15  C17 UNL     1      21.056   0.326  51.718  1.00  0.00     0.065 C 
HETATM   16  C16 UNL     1      22.184   1.130  52.333  1.00  0.00     0.275 C 
BRANCH  14  17
HETATM   17  N1  UNL     1      18.840  -0.517  52.393  1.00  0.00     0.083 N 
HETATM   18  H1  UNL     1      18.815  -1.523  52.637  1.00  0.00     0.313 HD
HETATM   19  H2  UNL     1      18.820  -0.448  51.366  1.00  0.00     0.313 HD
ENDBRANCH  14  17
ENDBRANCH  10  11
ENDBRANCH   1  10
BRANCH   8  20
HETATM   20  N6  UNL     1      26.388   1.753  51.290  1.00  0.00    -0.338 N 
HETATM   21  H13 UNL     1      26.099   1.098  50.549  1.00  0.00     0.167 HD
BRANCH  20  22
HETATM   22  C10 UNL     1      25.916   2.997  50.788  1.00  0.00     0.051 A 
HETATM   23  C11 UNL     1      26.420   3.772  49.735  1.00  0.00     0.032 A 
HETATM   24  C12 UNL     1      25.867   4.951  49.334  1.00  0.00     0.021 A 
HETATM   25  C13 UNL     1      24.769   5.463  49.938  1.00  0.00     0.116 A 
HETATM   26  N7  UNL     1      24.251   4.750  50.954  1.00  0.00    -0.271 NA
HETATM   27  C14 UNL     1      24.796   3.586  51.350  1.00  0.00     0.145 A 
ENDBRANCH  20  22
ENDBRANCH   8  20
TORSDOF 5
ENDMDL
MODEL 6
REMARK VINA RESULT:      -7.6      2.110      5.899
REMARK  5 active torsions:
REMARK  status: ('A' for Active; 'I' for Inactive)
REMARK    1  A    between atoms: N1_1  and  C1_2 
REMARK    2  A    between atoms: N2_5  and  C4_6 
REMARK    3  A    between atoms: C4_6  and  C5_7 
REMARK    4  A    between atoms: C9_14  and  N6_15 
REMARK    5  A    between atoms: N6_15  and  C10_16 
ROOT
HETATM    1  C5  UNL     1      23.886   0.859  52.772  1.00  0.00     0.004 A 
HETATM    2  C6  UNL     1      22.990  -0.165  53.048  1.00  0.00     0.030 A 
HETATM    3  C7  UNL     1      21.911  -0.037  52.196  1.00  0.00     0.119 A 
HETATM    4  N3  UNL     1      22.147   1.039  51.423  1.00  0.00    -0.240 N 
HETATM    5  N4  UNL     1      21.309   1.460  50.482  1.00  0.00    -0.161 NA
HETATM    6  C8  UNL     1      21.681   2.547  49.794  1.00  0.00     0.258 A 
HETATM    7  N5  UNL     1      22.843   3.141  50.076  1.00  0.00    -0.220 NA
HETATM    8  C9  UNL     1      23.673   2.702  51.028  1.00  0.00     0.159 A 
HETATM    9  C15 UNL     1      23.336   1.593  51.757  1.00  0.00     0.112 A 
ENDROOT
BRANCH   1  10
HETATM   10  C4  UNL     1      25.165   1.098  53.441  1.00  0.00     0.313 C 
BRANCH  10  11
HETATM   11  N2  UNL     1      26.299   0.501  52.700  1.00  0.00     0.092 N 
HETATM   12  C3  UNL     1      26.477  -0.806  53.304  1.00  0.00     0.275 C 
HETATM   13  C2  UNL     1      27.793  -1.450  53.049  1.00  0.00     0.065 C 
HETATM   14  C1  UNL     1      28.954  -0.508  53.197  1.00  0.00     0.221 C 
HETATM   15  C17 UNL     1      28.423   0.731  53.907  1.00  0.00     0.065 C 
HETATM   16  C16 UNL     1      27.435   1.362  52.947  1.00  0.00     0.275 C 
BRANCH  14  17
HETATM   17  N1  UNL     1      30.068  -1.106  53.883  1.00  0.00     0.083 N 
HETATM   18  H1  UNL     1      30.942  -0.638  53.585  1.00  0.00     0.313 HD
HETATM   19  H2  UNL     1      30.130  -2.092  53.590  1.00  0.00     0.313 HD
ENDBRANCH  14  17
ENDBRANCH  10  11
ENDBRANCH   1  10
BRANCH   8  20
HETATM   20  N6  UNL     1      24.891   3.372  51.291  1.00  0.00    -0.338 N 
HETATM   21  H13 UNL     1      25.455   3.424  52.152  1.00  0.00     0.167 HD
BRANCH  20  22
HETATM   22  C10 UNL     1      25.653   4.164  50.389  1.00  0.00     0.051 A 
HETATM   23  C11 UNL     1      26.739   3.790  49.586  1.00  0.00     0.032 A 
HETATM   24  C12 UNL     1      27.383   4.644  48.743  1.00  0.00     0.021 A 
HETATM   25  C13 UNL     1      27.009   5.940  48.620  1.00  0.00     0.116 A 
HETATM   26  N7  UNL     1      25.969   6.341  49.373  1.00  0.00    -0.271 NA
HETATM   27  C14 UNL     1      25.332   5.499  50.205  1.00  0.00     0.145 A 
ENDBRANCH  20  22
ENDBRANCH   8  20
TORSDOF 5
ENDMDL
MODEL 7
REMARK VINA RESULT:      -7.4      1.851      4.560
REMARK  5 active torsions:
REMARK  status: ('A' for Active; 'I' for Inactive)
REMARK    1  A    between atoms: N1_1  and  C1_2 
REMARK    2  A    between atoms: N2_5  and  C4_6 
REMARK    3  A    between atoms: C4_6  and  C5_7 
REMARK    4  A    between atoms: C9_14  and  N6_15 
REMARK    5  A    between atoms: N6_15  and  C10_16 
ROOT
HETATM    1  C5  UNL     1      22.356  -0.418  53.215  1.00  0.00     0.004 A 
HETATM    2  C6  UNL     1      21.814  -1.241  54.192  1.00  0.00     0.030 A 
HETATM    3  C7  UNL     1      22.802  -1.528  55.113  1.00  0.00     0.119 A 
HETATM    4  N3  UNL     1      23.916  -0.894  54.703  1.00  0.00    -0.240 N 
HETATM    5  N4  UNL     1      25.071  -0.950  55.357  1.00  0.00    -0.161 NA
HETATM    6  C8  UNL     1      26.092  -0.266  54.825  1.00  0.00     0.258 A 
HETATM    7  N5  UNL     1      25.909   0.421  53.695  1.00  0.00    -0.220 NA
HETATM    8  C9  UNL     1      24.739   0.464  53.051  1.00  0.00     0.159 A 
HETATM    9  C15 UNL     1      23.664  -0.219  53.557  1.00  0.00     0.112 A 
ENDROOT
BRANCH   1  10
HETATM   10  C4  UNL     1      21.656   0.124  52.049  1.00  0.00     0.313 C 
BRANCH  10  11
HETATM   11  N2  UNL     1      20.280   0.558  52.380  1.00  0.00     0.092 N 
HETATM   12  C3  UNL     1      19.566   0.493  51.118  1.00  0.00     0.275 C 
HETATM   13  C2  UNL     1      18.296   1.263  51.066  1.00  0.00     0.065 C 
HETATM   14  C1  UNL     1      18.405   2.633  51.675  1.00  0.00     0.221 C 
HETATM   15  C17 UNL     1      19.893   2.920  51.837  1.00  0.00     0.065 C 
HETATM   16  C16 UNL     1      20.394   1.919  52.858  1.00  0.00     0.275 C 
BRANCH  14  17
HETATM   17  N1  UNL     1      17.729   3.638  50.901  1.00  0.00     0.083 N 
HETATM   18  H1  UNL     1      17.022   3.183  50.295  1.00  0.00     0.313 HD
HETATM   19  H2  UNL     1      18.422   4.085  50.284  1.00  0.00     0.313 HD
ENDBRANCH  14  17
ENDBRANCH  10  11
ENDBRANCH   1  10
BRANCH   8  20
HETATM   20  N6  UNL     1      24.600   1.203  51.852  1.00  0.00    -0.338 N 
HETATM   21  H13 UNL     1      24.659   0.902  50.869  1.00  0.00     0.167 HD
BRANCH  20  22
HETATM   22  C10 UNL     1      24.334   2.593  51.721  1.00  0.00     0.051 A 
HETATM   23  C11 UNL     1      23.641   3.445  52.593  1.00  0.00     0.032 A 
HETATM   24  C12 UNL     1      23.462   4.775  52.363  1.00  0.00     0.021 A 
HETATM   25  C13 UNL     1      23.953   5.379  51.254  1.00  0.00     0.116 A 
HETATM   26  N7  UNL     1      24.625   4.597  50.391  1.00  0.00    -0.271 NA
HETATM   27  C14 UNL     1      24.803   3.284  50.616  1.00  0.00     0.145 A 
ENDBRANCH  20  22
ENDBRANCH   8  20
TORSDOF 5
ENDMDL
MODEL 8
REMARK VINA RESULT:      -7.4      2.573      7.625
REMARK  5 active torsions:
REMARK  status: ('A' for Active; 'I' for Inactive)
REMARK    1  A    between atoms: N1_1  and  C1_2 
REMARK    2  A    between atoms: N2_5  and  C4_6 
REMARK    3  A    between atoms: C4_6  and  C5_7 
REMARK    4  A    between atoms: C9_14  and  N6_15 
REMARK    5  A    between atoms: N6_15  and  C10_16 
ROOT
HETATM    1  C5  UNL     1      25.399   4.168  50.195  1.00  0.00     0.004 A 
HETATM    2  C6  UNL     1      26.451   4.209  49.291  1.00  0.00     0.030 A 
HETATM    3  C7  UNL     1      26.667   5.526  48.936  1.00  0.00     0.119 A 
HETATM    4  N3  UNL     1      25.766   6.265  49.610  1.00  0.00    -0.240 N 
HETATM    5  N4  UNL     1      25.685   7.587  49.508  1.00  0.00    -0.161 NA
HETATM    6  C8  UNL     1      24.736   8.185  50.240  1.00  0.00     0.258 A 
HETATM    7  N5  UNL     1      23.939   7.448  51.017  1.00  0.00    -0.220 NA
HETATM    8  C9  UNL     1      24.036   6.118  51.105  1.00  0.00     0.159 A 
HETATM    9  C15 UNL     1      24.992   5.461  50.376  1.00  0.00     0.112 A 
ENDROOT
BRANCH   1  10
HETATM   10  C4  UNL     1      24.842   2.971  50.828  1.00  0.00     0.313 C 
BRANCH  10  11
HETATM   11  N2  UNL     1      25.586   2.591  52.049  1.00  0.00     0.092 N 
HETATM   12  C3  UNL     1      26.385   1.448  51.645  1.00  0.00     0.275 C 
HETATM   13  C2  UNL     1      26.904   0.611  52.758  1.00  0.00     0.065 C 
HETATM   14  C1  UNL     1      25.882   0.338  53.825  1.00  0.00     0.221 C 
HETATM   15  C17 UNL     1      24.529   0.725  53.240  1.00  0.00     0.065 C 
HETATM   16  C16 UNL     1      24.587   2.224  53.029  1.00  0.00     0.275 C 
BRANCH  14  17
HETATM   17  N1  UNL     1      25.917  -1.022  54.289  1.00  0.00     0.083 N 
HETATM   18  H1  UNL     1      26.193  -1.035  55.287  1.00  0.00     0.313 HD
HETATM   19  H2  UNL     1      26.647  -1.521  53.760  1.00  0.00     0.313 HD
ENDBRANCH  14  17
ENDBRANCH  10  11
ENDBRANCH   1  10
BRANCH   8  20
HETATM   20  N6  UNL     1      23.161   5.382  51.939  1.00  0.00    -0.338 N 
HETATM   21  H13 UNL     1      23.287   5.033  52.900  1.00  0.00     0.167 HD
BRANCH  20  22
HETATM   22  C10 UNL     1      21.848   4.933  51.629  1.00  0.00     0.051 A 
HETATM   23  C11 UNL     1      21.000   5.338  50.590  1.00  0.00     0.032 A 
HETATM   24  C12 UNL     1      19.757   4.819  50.386  1.00  0.00     0.021 A 
HETATM   25  C13 UNL     1      19.246   3.856  51.191  1.00  0.00     0.116 A 
HETATM   26  N7  UNL     1      20.029   3.438  52.201  1.00  0.00    -0.271 NA
HETATM   27  C14 UNL     1      21.256   3.949  52.404  1.00  0.00     0.145 A 
ENDBRANCH  20  22
ENDBRANCH   8  20
TORSDOF 5
ENDMDL
MODEL 9
REMARK VINA RESULT:      -7.3      1.579      2.059
REMARK  5 active torsions:
REMARK  status: ('A' for Active; 'I' for Inactive)
REMARK    1  A    between atoms: N1_1  and  C1_2 
REMARK    2  A    between atoms: N2_5  and  C4_6 
REMARK    3  A    between atoms: C4_6  and  C5_7 
REMARK    4  A    between atoms: C9_14  and  N6_15 
REMARK    5  A    between atoms: N6_15  and  C10_16 
ROOT
HETATM    1  C5  UNL     1      21.869   1.556  50.564  1.00  0.00     0.004 A 
HETATM    2  C6  UNL     1      20.763   1.316  49.761  1.00  0.00     0.030 A 
HETATM    3  C7  UNL     1      19.831   0.619  50.504  1.00  0.00     0.119 A 
HETATM    4  N3  UNL     1      20.360   0.441  51.729  1.00  0.00    -0.240 N 
HETATM    5  N4  UNL     1      19.732  -0.197  52.710  1.00  0.00    -0.161 NA
HETATM    6  C8  UNL     1      20.387  -0.295  53.874  1.00  0.00     0.258 A 
HETATM    7  N5  UNL     1      21.606   0.236  53.992  1.00  0.00    -0.220 NA
HETATM    8  C9  UNL     1      22.223   0.873  52.992  1.00  0.00     0.159 A 
HETATM    9  C15 UNL     1      21.592   1.000  51.782  1.00  0.00     0.112 A 
ENDROOT
BRANCH   1  10
HETATM   10  C4  UNL     1      23.089   2.265  50.174  1.00  0.00     0.313 C 
BRANCH  10  11
HETATM   11  N2  UNL     1      22.854   3.715  49.994  1.00  0.00     0.092 N 
HETATM   12  C3  UNL     1      24.164   4.258  49.687  1.00  0.00     0.275 C 
HETATM   13  C2  UNL     1      24.301   5.727  49.869  1.00  0.00     0.065 C 
HETATM   14  C1  UNL     1      23.677   6.230  51.141  1.00  0.00     0.221 C 
HETATM   15  C17 UNL     1      23.406   5.005  52.006  1.00  0.00     0.065 C 
HETATM   16  C16 UNL     1      22.359   4.201  51.263  1.00  0.00     0.275 C 
BRANCH  14  17
HETATM   17  N1  UNL     1      24.490   7.211  51.806  1.00  0.00     0.083 N 
HETATM   18  H1  UNL     1      23.922   7.696  52.523  1.00  0.00     0.313 HD
HETATM   19  H2  UNL     1      24.775   7.914  51.110  1.00  0.00     0.313 HD
ENDBRANCH  14  17
ENDBRANCH  10  11
ENDBRANCH   1  10
BRANCH   8  20
HETATM   20  N6  UNL     1      23.519   1.413  53.167  1.00  0.00    -0.338 N 
HETATM   21  H13 UNL     1      23.820   2.365  53.419  1.00  0.00     0.167 HD
BRANCH  20  22
HETATM   22  C10 UNL     1      24.761   0.735  53.029  1.00  0.00     0.051 A 
HETATM   23  C11 UNL     1      25.052  -0.622  53.221  1.00  0.00     0.032 A 
HETATM   24  C12 UNL     1      26.291  -1.161  53.043  1.00  0.00     0.021 A 
HETATM   25  C13 UNL     1      27.347  -0.405  52.660  1.00  0.00     0.116 A 
HETATM   26  N7  UNL     1      27.111   0.905  52.463  1.00  0.00    -0.271 NA
HETATM   27  C14 UNL     1      25.889   1.437  52.638  1.00  0.00     0.145 A 
ENDBRANCH  20  22
ENDBRANCH   8  20
TORSDOF 5
ENDMDL
