MODEL 1
REMARK VINA RESULT:      -8.7      0.000      0.000
REMARK  3 active torsions:
REMARK  status: ('A' for Active; 'I' for Inactive)
REMARK    1  A    between atoms: O1_1  and  C1_2 
REMARK    2  A    between atoms: C3_5  and  N1_6 
REMARK    3  A    between atoms: C4_8  and  C5_9 
ROOT
HETATM    1  N1  UNL     1      25.700   3.149  50.896  1.00  0.00    -0.235 N 
HETATM    2  N2  UNL     1      26.571   2.068  50.982  1.00  0.00    -0.173 NA
HETATM    3  C4  UNL     1      26.408   1.400  52.055  1.00  0.00     0.067 C 
HETATM    4  C11 UNL     1      25.319   2.037  52.842  1.00  0.00     0.095 C 
HETATM    5  C12 UNL     1      24.607   2.798  51.740  1.00  0.00     0.067 C 
HETATM    6  C13 UNL     1      23.836   3.970  52.267  1.00  0.00     0.063 C 
HETATM    7  C14 UNL     1      22.393   3.737  52.429  1.00  0.00     0.013 C 
HETATM    8  C15 UNL     1      21.799   2.589  52.225  1.00  0.00     0.090 C 
HETATM    9  F2  UNL     1      20.446   2.424  52.390  1.00  0.00    -0.211 F 
HETATM   10  C16 UNL     1      22.542   1.387  51.801  1.00  0.00     0.072 C 
HETATM   11  C17 UNL     1      23.749   1.793  50.995  1.00  0.00     0.041 C 
ENDROOT
BRANCH   1  12
HETATM   12  C3  UNL     1      26.170   4.271  49.990  1.00  0.00     0.192 A 
HETATM   13  S1  UNL     1      25.451   5.830  49.433  1.00  0.00    -0.058 SA
HETATM   14  C2  UNL     1      27.036   6.196  48.404  1.00  0.00     0.111 A 
HETATM   15  C1  UNL     1      27.817   5.059  48.680  1.00  0.00     0.171 A 
HETATM   16  N3  UNL     1      27.206   4.236  49.479  1.00  0.00    -0.198 NA
BRANCH  15  17
HETATM   17  O1  UNL     1      28.898   5.433  47.904  1.00  0.00    -0.344 OA
HETATM   18  H1  UNL     1      29.673   5.998  48.191  1.00  0.00     0.219 HD
ENDBRANCH  15  17
ENDBRANCH   1  12
BRANCH   3  19
HETATM   19  C5  UNL     1      27.152   0.210  52.465  1.00  0.00    -0.010 A 
HETATM   20  C6  UNL     1      26.665  -1.050  52.251  1.00  0.00     0.016 A 
HETATM   21  C7  UNL     1      27.399  -2.143  52.652  1.00  0.00     0.043 A 
HETATM   22  C8  UNL     1      28.635  -2.009  53.275  1.00  0.00     0.116 A 
HETATM   23  F1  UNL     1      29.319  -3.135  53.651  1.00  0.00    -0.206 F 
HETATM   24  C9  UNL     1      29.119  -0.738  53.487  1.00  0.00     0.043 A 
HETATM   25  C10 UNL     1      28.383   0.357  53.085  1.00  0.00     0.016 A 
ENDBRANCH   3  19
TORSDOF 3
ENDMDL
MODEL 2
REMARK VINA RESULT:      -8.6      2.308      5.527
REMARK  3 active torsions:
REMARK  status: ('A' for Active; 'I' for Inactive)
REMARK    1  A    between atoms: O1_1  and  C1_2 
REMARK    2  A    between atoms: C3_5  and  N1_6 
REMARK    3  A    between atoms: C4_8  and  C5_9 
ROOT
HETATM    1  N1  UNL     1      25.060   2.011  51.809  1.00  0.00    -0.235 N 
HETATM    2  N2  UNL     1      23.705   1.835  52.067  1.00  0.00    -0.173 NA
HETATM    3  C4  UNL     1      23.437   0.651  52.455  1.00  0.00     0.067 C 
HETATM    4  C11 UNL     1      24.703  -0.128  52.491  1.00  0.00     0.095 C 
HETATM    5  C12 UNL     1      25.707   1.005  52.583  1.00  0.00     0.067 C 
HETATM    6  C13 UNL     1      27.058   0.608  52.069  1.00  0.00     0.063 C 
HETATM    7  C14 UNL     1      28.034   0.252  53.109  1.00  0.00     0.013 C 
HETATM    8  C15 UNL     1      27.764   0.188  54.388  1.00  0.00     0.090 C 
HETATM    9  F2  UNL     1      28.713  -0.150  55.321  1.00  0.00    -0.211 F 
HETATM   10  C16 UNL     1      26.419   0.475  54.922  1.00  0.00     0.072 C 
HETATM   11  C17 UNL     1      25.720   1.466  54.027  1.00  0.00     0.041 C 
ENDROOT
BRANCH   1  12
HETATM   12  C3  UNL     1      25.380   3.144  50.853  1.00  0.00     0.192 A 
HETATM   13  S1  UNL     1      24.434   4.513  50.153  1.00  0.00    -0.058 SA
HETATM   14  C2  UNL     1      25.990   5.097  49.185  1.00  0.00     0.111 A 
HETATM   15  C1  UNL     1      26.941   4.139  49.578  1.00  0.00     0.171 A 
HETATM   16  N3  UNL     1      26.436   3.268  50.400  1.00  0.00    -0.198 NA
BRANCH  15  17
HETATM   17  O1  UNL     1      27.986   4.656  48.835  1.00  0.00    -0.344 OA
HETATM   18  H1  UNL     1      28.627   5.371  49.121  1.00  0.00     0.219 HD
ENDBRANCH  15  17
ENDBRANCH   1  12
BRANCH   3  19
HETATM   19  C5  UNL     1      22.119   0.125  52.809  1.00  0.00    -0.010 A 
HETATM   20  C6  UNL     1      21.950  -0.749  53.848  1.00  0.00     0.016 A 
HETATM   21  C7  UNL     1      20.691  -1.219  54.147  1.00  0.00     0.043 A 
HETATM   22  C8  UNL     1      19.571  -0.832  53.421  1.00  0.00     0.116 A 
HETATM   23  F1  UNL     1      18.344  -1.334  53.766  1.00  0.00    -0.206 F 
HETATM   24  C9  UNL     1      19.748   0.048  52.376  1.00  0.00     0.043 A 
HETATM   25  C10 UNL     1      21.010   0.519  52.077  1.00  0.00     0.016 A 
ENDBRANCH   3  19
TORSDOF 3
ENDMDL
MODEL 3
REMARK VINA RESULT:      -8.4      2.494      2.926
REMARK  3 active torsions:
REMARK  status: ('A' for Active; 'I' for Inactive)
REMARK    1  A    between atoms: O1_1  and  C1_2 
REMARK    2  A    between atoms: C3_5  and  N1_6 
REMARK    3  A    between atoms: C4_8  and  C5_9 
ROOT
HETATM    1  N1  UNL     1      23.266   3.474  51.655  1.00  0.00    -0.235 N 
HETATM    2  N2  UNL     1      24.570   2.992  51.704  1.00  0.00    -0.173 NA
HETATM    3  C4  UNL     1      24.673   1.954  52.437  1.00  0.00     0.067 C 
HETATM    4  C11 UNL     1      23.328   1.630  52.984  1.00  0.00     0.095 C 
HETATM    5  C12 UNL     1      22.453   2.348  51.974  1.00  0.00     0.067 C 
HETATM    6  C13 UNL     1      21.109   2.700  52.537  1.00  0.00     0.063 C 
HETATM    7  C14 UNL     1      20.024   1.783  52.161  1.00  0.00     0.013 C 
HETATM    8  C15 UNL     1      20.186   0.687  51.464  1.00  0.00     0.090 C 
HETATM    9  F2  UNL     1      19.137  -0.137  51.138  1.00  0.00    -0.211 F 
HETATM   10  C16 UNL     1      21.511   0.256  50.978  1.00  0.00     0.072 C 
HETATM   11  C17 UNL     1      22.383   1.464  50.745  1.00  0.00     0.041 C 
ENDROOT
BRANCH   1  12
HETATM   12  C3  UNL     1      23.148   4.944  51.299  1.00  0.00     0.192 A 
HETATM   13  S1  UNL     1      21.780   6.026  50.836  1.00  0.00    -0.058 SA
HETATM   14  C2  UNL     1      22.998   7.508  50.687  1.00  0.00     0.111 A 
HETATM   15  C1  UNL     1      24.221   6.899  51.019  1.00  0.00     0.171 A 
HETATM   16  N3  UNL     1      24.075   5.635  51.286  1.00  0.00    -0.198 NA
BRANCH  15  17
HETATM   17  O1  UNL     1      24.994   8.037  50.880  1.00  0.00    -0.344 OA
HETATM   18  H1  UNL     1      25.772   8.159  50.262  1.00  0.00     0.219 HD
ENDBRANCH  15  17
ENDBRANCH   1  12
BRANCH   3  19
HETATM   19  C5  UNL     1      25.893   1.194  52.709  1.00  0.00    -0.010 A 
HETATM   20  C6  UNL     1      25.990  -0.138  52.413  1.00  0.00     0.016 A 
HETATM   21  C7  UNL     1      27.158  -0.814  52.685  1.00  0.00     0.043 A 
HETATM   22  C8  UNL     1      28.256  -0.182  53.257  1.00  0.00     0.116 A 
HETATM   23  F1  UNL     1      29.391  -0.909  53.504  1.00  0.00    -0.206 F 
HETATM   24  C9  UNL     1      28.151   1.158  53.552  1.00  0.00     0.043 A 
HETATM   25  C10 UNL     1      26.981   1.836  53.279  1.00  0.00     0.016 A 
ENDBRANCH   3  19
TORSDOF 3
ENDMDL
MODEL 4
REMARK VINA RESULT:      -8.3      3.000      5.580
REMARK  3 active torsions:
REMARK  status: ('A' for Active; 'I' for Inactive)
REMARK    1  A    between atoms: O1_1  and  C1_2 
REMARK    2  A    between atoms: C3_5  and  N1_6 
REMARK    3  A    between atoms: C4_8  and  C5_9 
ROOT
HETATM    1  N1  UNL     1      24.206   2.907  51.902  1.00  0.00    -0.235 N 
HETATM    2  N2  UNL     1      22.980   2.388  52.303  1.00  0.00    -0.173 NA
HETATM    3  C4  UNL     1      23.030   1.129  52.497  1.00  0.00     0.067 C 
HETATM    4  C11 UNL     1      24.414   0.666  52.218  1.00  0.00     0.095 C 
HETATM    5  C12 UNL     1      25.168   1.972  52.381  1.00  0.00     0.067 C 
HETATM    6  C13 UNL     1      26.462   1.979  51.625  1.00  0.00     0.063 C 
HETATM    7  C14 UNL     1      27.654   1.703  52.441  1.00  0.00     0.013 C 
HETATM    8  C15 UNL     1      27.627   1.386  53.710  1.00  0.00     0.090 C 
HETATM    9  F2  UNL     1      28.772   1.139  54.428  1.00  0.00    -0.211 F 
HETATM   10  C16 UNL     1      26.365   1.273  54.464  1.00  0.00     0.072 C 
HETATM   11  C17 UNL     1      25.334   2.200  53.871  1.00  0.00     0.041 C 
ENDROOT
BRANCH   1  12
HETATM   12  C3  UNL     1      24.120   4.215  51.138  1.00  0.00     0.192 A 
HETATM   13  S1  UNL     1      24.046   4.653  49.388  1.00  0.00    -0.058 SA
HETATM   14  C2  UNL     1      23.970   6.518  49.856  1.00  0.00     0.111 A 
HETATM   15  C1  UNL     1      24.014   6.456  51.260  1.00  0.00     0.171 A 
HETATM   16  N3  UNL     1      24.087   5.231  51.687  1.00  0.00    -0.198 NA
BRANCH  15  17
HETATM   17  O1  UNL     1      23.955   7.822  51.468  1.00  0.00    -0.344 OA
HETATM   18  H1  UNL     1      23.434   8.296  52.180  1.00  0.00     0.219 HD
ENDBRANCH  15  17
ENDBRANCH   1  12
BRANCH   3  19
HETATM   19  C5  UNL     1      21.927   0.267  52.922  1.00  0.00    -0.010 A 
HETATM   20  C6  UNL     1      20.653   0.452  52.460  1.00  0.00     0.016 A 
HETATM   21  C7  UNL     1      19.645  -0.384  52.885  1.00  0.00     0.043 A 
HETATM   22  C8  UNL     1      19.879  -1.422  53.779  1.00  0.00     0.116 A 
HETATM   23  F1  UNL     1      18.835  -2.220  54.165  1.00  0.00    -0.206 F 
HETATM   24  C9  UNL     1      21.164  -1.602  54.240  1.00  0.00     0.043 A 
HETATM   25  C10 UNL     1      22.174  -0.765  53.814  1.00  0.00     0.016 A 
ENDBRANCH   3  19
TORSDOF 3
ENDMDL
MODEL 5
REMARK VINA RESULT:      -8.1      4.133      5.521
REMARK  3 active torsions:
REMARK  status: ('A' for Active; 'I' for Inactive)
REMARK    1  A    between atoms: O1_1  and  C1_2 
REMARK    2  A    between atoms: C3_5  and  N1_6 
REMARK    3  A    between atoms: C4_8  and  C5_9 
ROOT
HETATM    1  N1  UNL     1      22.820   1.581  52.409  1.00  0.00    -0.235 N 
HETATM    2  N2  UNL     1      23.975   1.103  53.018  1.00  0.00    -0.173 NA
HETATM    3  C4  UNL     1      25.030   1.452  52.394  1.00  0.00     0.067 C 
HETATM    4  C11 UNL     1      24.630   2.262  51.214  1.00  0.00     0.095 C 
HETATM    5  C12 UNL     1      23.252   2.712  51.658  1.00  0.00     0.067 C 
HETATM    6  C13 UNL     1      22.366   3.055  50.498  1.00  0.00     0.063 C 
HETATM    7  C14 UNL     1      22.255   4.492  50.209  1.00  0.00     0.013 C 
HETATM    8  C15 UNL     1      22.925   5.427  50.832  1.00  0.00     0.090 C 
HETATM    9  F2  UNL     1      22.785   6.758  50.525  1.00  0.00    -0.211 F 
HETATM   10  C16 UNL     1      23.881   5.120  51.913  1.00  0.00     0.072 C 
HETATM   11  C17 UNL     1      23.455   3.862  52.625  1.00  0.00     0.041 C 
ENDROOT
BRANCH   1  12
HETATM   12  C3  UNL     1      21.564   0.792  52.726  1.00  0.00     0.192 A 
HETATM   13  S1  UNL     1      19.848   0.874  52.172  1.00  0.00    -0.058 SA
HETATM   14  C2  UNL     1      19.407  -0.612  53.313  1.00  0.00     0.111 A 
HETATM   15  C1  UNL     1      20.653  -0.892  53.902  1.00  0.00     0.171 A 
HETATM   16  N3  UNL     1      21.579  -0.085  53.478  1.00  0.00    -0.198 NA
BRANCH  15  17
HETATM   17  O1  UNL     1      20.213  -1.949  54.678  1.00  0.00    -0.344 OA
HETATM   18  H1  UNL     1      20.631  -2.856  54.744  1.00  0.00     0.219 HD
ENDBRANCH  15  17
ENDBRANCH   1  12
BRANCH   3  19
HETATM   19  C5  UNL     1      26.409   1.122  52.757  1.00  0.00    -0.010 A 
HETATM   20  C6  UNL     1      26.858  -0.170  52.770  1.00  0.00     0.016 A 
HETATM   21  C7  UNL     1      28.163  -0.435  53.117  1.00  0.00     0.043 A 
HETATM   22  C8  UNL     1      29.052   0.577  53.458  1.00  0.00     0.116 A 
HETATM   23  F1  UNL     1      30.340   0.250  53.795  1.00  0.00    -0.206 F 
HETATM   24  C9  UNL     1      28.594   1.875  53.443  1.00  0.00     0.043 A 
HETATM   25  C10 UNL     1      27.285   2.141  53.095  1.00  0.00     0.016 A 
ENDBRANCH   3  19
TORSDOF 3
ENDMDL
MODEL 6
REMARK VINA RESULT:      -8.1      2.427      2.948
REMARK  3 active torsions:
REMARK  status: ('A' for Active; 'I' for Inactive)
REMARK    1  A    between atoms: O1_1  and  C1_2 
REMARK    2  A    between atoms: C3_5  and  N1_6 
REMARK    3  A    between atoms: C4_8  and  C5_9 
ROOT
HETATM    1  N1  UNL     1      23.819   1.500  51.589  1.00  0.00    -0.235 N 
HETATM    2  N2  UNL     1      25.141   1.071  51.593  1.00  0.00    -0.173 NA
HETATM    3  C4  UNL     1      25.512   0.660  52.742  1.00  0.00     0.067 C 
HETATM    4  C11 UNL     1      24.366   0.793  53.680  1.00  0.00     0.095 C 
HETATM    5  C12 UNL     1      23.217   0.824  52.690  1.00  0.00     0.067 C 
HETATM    6  C13 UNL     1      22.007   1.510  53.247  1.00  0.00     0.063 C 
HETATM    7  C14 UNL     1      20.963   0.607  53.752  1.00  0.00     0.013 C 
HETATM    8  C15 UNL     1      21.074  -0.696  53.811  1.00  0.00     0.090 C 
HETATM    9  F2  UNL     1      20.067  -1.496  54.292  1.00  0.00    -0.211 F 
HETATM   10  C16 UNL     1      22.291  -1.400  53.364  1.00  0.00     0.072 C 
HETATM   11  C17 UNL     1      22.961  -0.610  52.269  1.00  0.00     0.041 C 
ENDROOT
BRANCH   1  12
HETATM   12  C3  UNL     1      23.475   2.482  50.485  1.00  0.00     0.192 A 
HETATM   13  S1  UNL     1      22.101   2.650  49.327  1.00  0.00    -0.058 SA
HETATM   14  C2  UNL     1      22.924   4.219  48.574  1.00  0.00     0.111 A 
HETATM   15  C1  UNL     1      24.093   4.320  49.350  1.00  0.00     0.171 A 
HETATM   16  N3  UNL     1      24.172   3.368  50.231  1.00  0.00    -0.198 NA
BRANCH  15  17
HETATM   17  O1  UNL     1      24.583   5.454  48.728  1.00  0.00    -0.344 OA
HETATM   18  H1  UNL     1      25.162   5.486  47.912  1.00  0.00     0.219 HD
ENDBRANCH  15  17
ENDBRANCH   1  12
BRANCH   3  19
HETATM   19  C5  UNL     1      26.833   0.143  53.100  1.00  0.00    -0.010 A 
HETATM   20  C6  UNL     1      27.239  -1.109  52.724  1.00  0.00     0.016 A 
HETATM   21  C7  UNL     1      28.491  -1.555  53.082  1.00  0.00     0.043 A 
HETATM   22  C8  UNL     1      29.368  -0.769  53.821  1.00  0.00     0.116 A 
HETATM   23  F1  UNL     1      30.601  -1.269  54.147  1.00  0.00    -0.206 F 
HETATM   24  C9  UNL     1      28.952   0.489  54.195  1.00  0.00     0.043 A 
HETATM   25  C10 UNL     1      27.698   0.936  53.836  1.00  0.00     0.016 A 
ENDBRANCH   3  19
TORSDOF 3
ENDMDL
MODEL 7
REMARK VINA RESULT:      -8.0      3.943      5.966
REMARK  3 active torsions:
REMARK  status: ('A' for Active; 'I' for Inactive)
REMARK    1  A    between atoms: O1_1  and  C1_2 
REMARK    2  A    between atoms: C3_5  and  N1_6 
REMARK    3  A    between atoms: C4_8  and  C5_9 
ROOT
HETATM    1  N1  UNL     1      24.470   1.605  52.716  1.00  0.00    -0.235 N 
HETATM    2  N2  UNL     1      23.593   0.557  52.973  1.00  0.00    -0.173 NA
HETATM    3  C4  UNL     1      22.373   0.920  52.908  1.00  0.00     0.067 C 
HETATM    4  C11 UNL     1      22.333   2.368  52.573  1.00  0.00     0.095 C 
HETATM    5  C12 UNL     1      23.707   2.533  51.951  1.00  0.00     0.067 C 
HETATM    6  C13 UNL     1      24.199   3.947  52.030  1.00  0.00     0.063 C 
HETATM    7  C14 UNL     1      24.034   4.727  50.794  1.00  0.00     0.013 C 
HETATM    8  C15 UNL     1      23.434   4.291  49.716  1.00  0.00     0.090 C 
HETATM    9  F2  UNL     1      23.307   5.061  48.586  1.00  0.00    -0.211 F 
HETATM   10  C16 UNL     1      22.849   2.940  49.637  1.00  0.00     0.072 C 
HETATM   11  C17 UNL     1      23.615   2.001  50.534  1.00  0.00     0.041 C 
ENDROOT
BRANCH   1  12
HETATM   12  C3  UNL     1      25.860   1.425  53.297  1.00  0.00     0.192 A 
HETATM   13  S1  UNL     1      26.588   0.300  54.506  1.00  0.00    -0.058 SA
HETATM   14  C2  UNL     1      28.297   1.154  54.276  1.00  0.00     0.111 A 
HETATM   15  C1  UNL     1      27.991   2.138  53.319  1.00  0.00     0.171 A 
HETATM   16  N3  UNL     1      26.739   2.101  52.972  1.00  0.00    -0.198 NA
BRANCH  15  17
HETATM   17  O1  UNL     1      29.266   2.668  53.241  1.00  0.00    -0.344 OA
HETATM   18  H1  UNL     1      29.973   2.429  52.575  1.00  0.00     0.219 HD
ENDBRANCH  15  17
ENDBRANCH   1  12
BRANCH   3  19
HETATM   19  C5  UNL     1      21.198   0.077  53.124  1.00  0.00    -0.010 A 
HETATM   20  C6  UNL     1      21.225  -0.985  53.986  1.00  0.00     0.016 A 
HETATM   21  C7  UNL     1      20.096  -1.753  54.159  1.00  0.00     0.043 A 
HETATM   22  C8  UNL     1      18.913  -1.483  53.479  1.00  0.00     0.116 A 
HETATM   23  F1  UNL     1      17.822  -2.283  53.694  1.00  0.00    -0.206 F 
HETATM   24  C9  UNL     1      18.893  -0.413  52.613  1.00  0.00     0.043 A 
HETATM   25  C10 UNL     1      20.025   0.356  52.440  1.00  0.00     0.016 A 
ENDBRANCH   3  19
TORSDOF 3
ENDMDL
MODEL 8
REMARK VINA RESULT:      -7.9      4.867      6.795
REMARK  3 active torsions:
REMARK  status: ('A' for Active; 'I' for Inactive)
REMARK    1  A    between atoms: O1_1  and  C1_2 
REMARK    2  A    between atoms: C3_5  and  N1_6 
REMARK    3  A    between atoms: C4_8  and  C5_9 
ROOT
HETATM    1  N1  UNL     1      20.707   1.870  51.708  1.00  0.00    -0.235 N 
HETATM    2  N2  UNL     1      21.648   2.370  50.814  1.00  0.00    -0.173 NA
HETATM    3  C4  UNL     1      22.800   2.494  51.345  1.00  0.00     0.067 C 
HETATM    4  C11 UNL     1      22.714   2.048  52.761  1.00  0.00     0.095 C 
HETATM    5  C12 UNL     1      21.474   1.177  52.688  1.00  0.00     0.067 C 
HETATM    6  C13 UNL     1      20.796   1.043  54.018  1.00  0.00     0.063 C 
HETATM    7  C14 UNL     1      21.089  -0.205  54.738  1.00  0.00     0.013 C 
HETATM    8  C15 UNL     1      21.935  -1.116  54.328  1.00  0.00     0.090 C 
HETATM    9  F2  UNL     1      22.173  -2.267  55.038  1.00  0.00    -0.211 F 
HETATM   10  C16 UNL     1      22.696  -0.972  53.073  1.00  0.00     0.072 C 
HETATM   11  C17 UNL     1      21.902  -0.149  52.090  1.00  0.00     0.041 C 
ENDROOT
BRANCH   1  12
HETATM   12  C3  UNL     1      19.267   2.205  51.365  1.00  0.00     0.192 A 
HETATM   13  S1  UNL     1      17.940   1.339  50.501  1.00  0.00    -0.058 SA
HETATM   14  C2  UNL     1      16.769   2.837  50.793  1.00  0.00     0.111 A 
HETATM   15  C1  UNL     1      17.611   3.717  51.497  1.00  0.00     0.171 A 
HETATM   16  N3  UNL     1      18.796   3.214  51.672  1.00  0.00    -0.198 NA
BRANCH  15  17
HETATM   17  O1  UNL     1      16.677   4.726  51.644  1.00  0.00    -0.344 OA
HETATM   18  H1  UNL     1      16.129   4.920  52.459  1.00  0.00     0.219 HD
ENDBRANCH  15  17
ENDBRANCH   1  12
BRANCH   3  19
HETATM   19  C5  UNL     1      24.013   2.989  50.694  1.00  0.00    -0.010 A 
HETATM   20  C6  UNL     1      23.969   3.985  49.757  1.00  0.00     0.016 A 
HETATM   21  C7  UNL     1      25.135   4.421  49.170  1.00  0.00     0.043 A 
HETATM   22  C8  UNL     1      26.371   3.878  49.500  1.00  0.00     0.116 A 
HETATM   23  F1  UNL     1      27.497   4.355  48.881  1.00  0.00    -0.206 F 
HETATM   24  C9  UNL     1      26.408   2.876  50.444  1.00  0.00     0.043 A 
HETATM   25  C10 UNL     1      25.239   2.439  51.032  1.00  0.00     0.016 A 
ENDBRANCH   3  19
TORSDOF 3
ENDMDL
MODEL 9
REMARK VINA RESULT:      -7.9      4.745      7.881
REMARK  3 active torsions:
REMARK  status: ('A' for Active; 'I' for Inactive)
REMARK    1  A    between atoms: O1_1  and  C1_2 
REMARK    2  A    between atoms: C3_5  and  N1_6 
REMARK    3  A    between atoms: C4_8  and  C5_9 
ROOT
HETATM    1  N1  UNL     1      21.023   1.935  52.216  1.00  0.00    -0.235 N 
HETATM    2  N2  UNL     1      19.680   1.727  51.926  1.00  0.00    -0.173 NA
HETATM    3  C4  UNL     1      19.414   0.497  51.724  1.00  0.00     0.067 C 
HETATM    4  C11 UNL     1      20.670  -0.285  51.877  1.00  0.00     0.095 C 
HETATM    5  C12 UNL     1      21.482   0.683  52.717  1.00  0.00     0.067 C 
HETATM    6  C13 UNL     1      22.957   0.463  52.567  1.00  0.00     0.063 C 
HETATM    7  C14 UNL     1      23.580  -0.308  53.653  1.00  0.00     0.013 C 
HETATM    8  C15 UNL     1      22.924  -0.852  54.646  1.00  0.00     0.090 C 
HETATM    9  F2  UNL     1      23.554  -1.563  55.638  1.00  0.00    -0.211 F 
HETATM   10  C16 UNL     1      21.459  -0.742  54.773  1.00  0.00     0.072 C 
HETATM   11  C17 UNL     1      20.991   0.546  54.145  1.00  0.00     0.041 C 
ENDROOT
BRANCH   1  12
HETATM   12  C3  UNL     1      21.524   3.337  51.923  1.00  0.00     0.192 A 
HETATM   13  S1  UNL     1      20.991   4.665  50.824  1.00  0.00    -0.058 SA
HETATM   14  C2  UNL     1      22.437   5.769  51.451  1.00  0.00     0.111 A 
HETATM   15  C1  UNL     1      23.056   4.916  52.383  1.00  0.00     0.171 A 
HETATM   16  N3  UNL     1      22.451   3.769  52.463  1.00  0.00    -0.198 NA
BRANCH  15  17
HETATM   17  O1  UNL     1      24.052   5.801  52.753  1.00  0.00    -0.344 OA
HETATM   18  H1  UNL     1      24.917   5.574  53.202  1.00  0.00     0.219 HD
ENDBRANCH  15  17
ENDBRANCH   1  12
BRANCH   3  19
HETATM   19  C5  UNL     1      18.107  -0.073  51.397  1.00  0.00    -0.010 A 
HETATM   20  C6  UNL     1      17.534   0.106  50.167  1.00  0.00     0.016 A 
HETATM   21  C7  UNL     1      16.303  -0.448  49.901  1.00  0.00     0.043 A 
HETATM   22  C8  UNL     1      15.612  -1.192  50.850  1.00  0.00     0.116 A 
HETATM   23  F1  UNL     1      14.389  -1.718  50.526  1.00  0.00    -0.206 F 
HETATM   24  C9  UNL     1      16.193  -1.368  52.086  1.00  0.00     0.043 A 
HETATM   25  C10 UNL     1      17.428  -0.812  52.352  1.00  0.00     0.016 A 
ENDBRANCH   3  19
TORSDOF 3
ENDMDL
