MODEL 1
REMARK VINA RESULT:      -8.0      0.000      0.000
REMARK  5 active torsions:
REMARK  status: ('A' for Active; 'I' for Inactive)
REMARK    1  A    between atoms: C2_2  and  C3_3 
REMARK    2  A    between atoms: C3_3  and  O1_4 
REMARK    3  A    between atoms: C6_7  and  C7_8 
REMARK    4  A    between atoms: C7_8  and  O3_10 
REMARK    5  A    between atoms: O3_10  and  C8_11 
ROOT
HETATM    1  C3  UNL     1      24.710   3.004  51.254  1.00  0.00     0.105 C 
HETATM    2  C4  UNL     1      23.396   3.613  51.478  1.00  0.00     0.260 C 
HETATM    3  C5  UNL     1      23.790   3.559  52.931  1.00  0.00     0.062 C 
HETATM    4  C6  UNL     1      24.621   2.289  52.532  1.00  0.00     0.083 C 
HETATM    5  C12 UNL     1      23.767   1.168  52.873  1.00  0.00     0.027 C 
HETATM    6  C13 UNL     1      23.166   0.274  51.922  1.00  0.00     0.036 C 
HETATM    7  C14 UNL     1      21.846   0.390  51.344  1.00  0.00    -0.070 C 
HETATM    8  C15 UNL     1      20.728   0.821  50.680  1.00  0.00     0.003 C 
HETATM    9  C16 UNL     1      20.227   1.937  49.940  1.00  0.00    -0.002 C 
HETATM   10  C17 UNL     1      20.419   3.181  49.501  1.00  0.00     0.003 C 
HETATM   11  C18 UNL     1      21.710   3.820  49.955  1.00  0.00     0.301 C 
HETATM   12  N1  UNL     1      22.201   2.922  51.088  1.00  0.00     0.102 N 
HETATM   13  C19 UNL     1      21.116   3.168  52.065  1.00  0.00     0.301 C 
HETATM   14  C20 UNL     1      20.556   2.026  52.760  1.00  0.00     0.008 C 
HETATM   15  C21 UNL     1      20.288   0.736  53.168  1.00  0.00    -0.044 C 
HETATM   16  C22 UNL     1      19.539  -0.250  54.048  1.00  0.00     0.304 C 
HETATM   17  N2  UNL     1      20.495  -1.278  54.339  1.00  0.00     0.088 N 
HETATM   18  C23 UNL     1      21.639  -1.110  53.430  1.00  0.00     0.283 C 
HETATM   19  C24 UNL     1      21.042  -0.355  52.346  1.00  0.00     0.073 C 
HETATM   20  H33 UNL     1      20.781  -1.348  55.333  1.00  0.00     0.316 HD
ENDROOT
BRANCH   4  21
HETATM   21  C7  UNL     1      25.954   2.243  53.194  1.00  0.00     0.271 C 
HETATM   22  O2  UNL     1      26.560   2.743  54.181  1.00  0.00    -0.264 OA
BRANCH  21  23
HETATM   23  O3  UNL     1      27.073   1.509  52.839  1.00  0.00    -0.311 OA
BRANCH  23  24
HETATM   24  C8  UNL     1      27.279   0.180  53.277  1.00  0.00     0.060 C 
HETATM   25  C9  UNL     1      26.777  -0.819  52.242  1.00  0.00     0.045 C 
HETATM   26  C10 UNL     1      28.756  -0.035  53.506  1.00  0.00     0.045 C 
HETATM   27  C11 UNL     1      26.555  -0.112  54.567  1.00  0.00     0.045 C 
ENDBRANCH  23  24
ENDBRANCH  21  23
ENDBRANCH   4  21
BRANCH   1  28
HETATM   28  C2  UNL     1      25.229   2.466  50.012  1.00  0.00     0.037 C 
HETATM   29  C1  UNL     1      26.498   3.206  49.556  1.00  0.00     0.008 C 
ENDBRANCH   1  28
BRANCH   1  30
HETATM   30  O1  UNL     1      25.624   4.113  51.514  1.00  0.00    -0.386 OA
HETATM   31  H6  UNL     1      25.493   4.481  52.393  1.00  0.00     0.210 HD
ENDBRANCH   1  30
TORSDOF 5
ENDMDL
MODEL 2
REMARK VINA RESULT:      -7.6      7.316      9.986
REMARK  5 active torsions:
REMARK  status: ('A' for Active; 'I' for Inactive)
REMARK    1  A    between atoms: C2_2  and  C3_3 
REMARK    2  A    between atoms: C3_3  and  O1_4 
REMARK    3  A    between atoms: C6_7  and  C7_8 
REMARK    4  A    between atoms: C7_8  and  O3_10 
REMARK    5  A    between atoms: O3_10  and  C8_11 
ROOT
HETATM    1  C3  UNL     1      32.089   7.651  47.395  1.00  0.00     0.105 C 
HETATM    2  C4  UNL     1      31.428   8.799  48.022  1.00  0.00     0.260 C 
HETATM    3  C5  UNL     1      31.663   8.039  49.302  1.00  0.00     0.062 C 
HETATM    4  C6  UNL     1      31.541   6.750  48.415  1.00  0.00     0.083 C 
HETATM    5  C12 UNL     1      30.167   6.317  48.583  1.00  0.00     0.027 C 
HETATM    6  C13 UNL     1      29.168   6.336  47.549  1.00  0.00     0.036 C 
HETATM    7  C14 UNL     1      28.221   7.394  47.284  1.00  0.00    -0.070 C 
HETATM    8  C15 UNL     1      27.628   8.594  46.988  1.00  0.00     0.003 C 
HETATM    9  C16 UNL     1      27.947   9.957  46.698  1.00  0.00    -0.002 C 
HETATM   10  C17 UNL     1      28.879  10.904  46.597  1.00  0.00     0.003 C 
HETATM   11  C18 UNL     1      30.275  10.457  46.962  1.00  0.00     0.301 C 
HETATM   12  N1  UNL     1      30.073   9.129  47.685  1.00  0.00     0.102 N 
HETATM   13  C19 UNL     1      29.347   9.622  48.878  1.00  0.00     0.301 C 
HETATM   14  C20 UNL     1      28.181   8.882  49.317  1.00  0.00     0.008 C 
HETATM   15  C21 UNL     1      27.161   7.956  49.390  1.00  0.00    -0.044 C 
HETATM   16  C22 UNL     1      25.937   7.380  50.083  1.00  0.00     0.304 C 
HETATM   17  N2  UNL     1      26.043   5.963  49.890  1.00  0.00     0.088 N 
HETATM   18  C23 UNL     1      27.071   5.716  48.867  1.00  0.00     0.283 C 
HETATM   19  C24 UNL     1      27.099   6.986  48.169  1.00  0.00     0.073 C 
HETATM   20  H33 UNL     1      26.197   5.410  50.753  1.00  0.00     0.316 HD
ENDROOT
BRANCH   4  21
HETATM   21  C7  UNL     1      32.540   5.707  48.776  1.00  0.00     0.271 C 
HETATM   22  O2  UNL     1      33.697   5.606  49.266  1.00  0.00    -0.264 OA
BRANCH  21  23
HETATM   23  O3  UNL     1      32.441   4.331  48.649  1.00  0.00    -0.311 OA
BRANCH  23  24
HETATM   24  C8  UNL     1      32.798   3.652  47.460  1.00  0.00     0.060 C 
HETATM   25  C9  UNL     1      33.980   4.331  46.780  1.00  0.00     0.045 C 
HETATM   26  C10 UNL     1      33.168   2.228  47.804  1.00  0.00     0.045 C 
HETATM   27  C11 UNL     1      31.668   3.618  46.464  1.00  0.00     0.045 C 
ENDBRANCH  23  24
ENDBRANCH  21  23
ENDBRANCH   4  21
BRANCH   1  28
HETATM   28  C2  UNL     1      32.198   7.366  45.978  1.00  0.00     0.037 C 
HETATM   29  C1  UNL     1      32.985   8.458  45.236  1.00  0.00     0.008 C 
ENDBRANCH   1  28
BRANCH   1  30
HETATM   30  O1  UNL     1      33.485   7.838  47.779  1.00  0.00    -0.386 OA
HETATM   31  H6  UNL     1      33.671   7.446  48.639  1.00  0.00     0.210 HD
ENDBRANCH   1  30
TORSDOF 5
ENDMDL
MODEL 3
REMARK VINA RESULT:      -7.5      2.266      4.540
REMARK  5 active torsions:
REMARK  status: ('A' for Active; 'I' for Inactive)
REMARK    1  A    between atoms: C2_2  and  C3_3 
REMARK    2  A    between atoms: C3_3  and  O1_4 
REMARK    3  A    between atoms: C6_7  and  C7_8 
REMARK    4  A    between atoms: C7_8  and  O3_10 
REMARK    5  A    between atoms: O3_10  and  C8_11 
ROOT
HETATM    1  C3  UNL     1      24.863   3.002  51.838  1.00  0.00     0.105 C 
HETATM    2  C4  UNL     1      24.108   4.258  51.810  1.00  0.00     0.260 C 
HETATM    3  C5  UNL     1      23.070   3.471  52.567  1.00  0.00     0.062 C 
HETATM    4  C6  UNL     1      23.619   2.227  51.783  1.00  0.00     0.083 C 
HETATM    5  C12 UNL     1      22.712   2.067  50.663  1.00  0.00     0.027 C 
HETATM    6  C13 UNL     1      23.065   2.274  49.285  1.00  0.00     0.036 C 
HETATM    7  C14 UNL     1      22.904   3.495  48.528  1.00  0.00    -0.070 C 
HETATM    8  C15 UNL     1      22.969   4.785  48.071  1.00  0.00     0.003 C 
HETATM    9  C16 UNL     1      23.526   6.060  48.400  1.00  0.00    -0.002 C 
HETATM   10  C17 UNL     1      24.199   6.810  49.273  1.00  0.00     0.003 C 
HETATM   11  C18 UNL     1      24.575   6.104  50.554  1.00  0.00     0.301 C 
HETATM   12  N1  UNL     1      23.718   4.841  50.559  1.00  0.00     0.102 N 
HETATM   13  C19 UNL     1      22.382   5.469  50.673  1.00  0.00     0.301 C 
HETATM   14  C20 UNL     1      21.321   4.968  49.821  1.00  0.00     0.008 C 
HETATM   15  C21 UNL     1      20.628   4.257  48.864  1.00  0.00    -0.044 C 
HETATM   16  C22 UNL     1      19.340   3.929  48.126  1.00  0.00     0.304 C 
HETATM   17  N2  UNL     1      19.409   2.518  47.883  1.00  0.00     0.088 N 
HETATM   18  C23 UNL     1      20.786   2.074  48.149  1.00  0.00     0.283 C 
HETATM   19  C24 UNL     1      21.525   3.313  48.005  1.00  0.00     0.073 C 
HETATM   20  H33 UNL     1      18.702   1.948  48.382  1.00  0.00     0.316 HD
ENDROOT
BRANCH   4  21
HETATM   21  C7  UNL     1      23.727   1.012  52.638  1.00  0.00     0.271 C 
HETATM   22  O2  UNL     1      24.410  -0.043  52.735  1.00  0.00    -0.264 OA
BRANCH  21  23
HETATM   23  O3  UNL     1      22.972   0.662  53.745  1.00  0.00    -0.311 OA
BRANCH  23  24
HETATM   24  C8  UNL     1      21.764  -0.066  53.640  1.00  0.00     0.060 C 
HETATM   25  C9  UNL     1      21.774  -1.275  54.567  1.00  0.00     0.045 C 
HETATM   26  C10 UNL     1      20.614   0.840  54.012  1.00  0.00     0.045 C 
HETATM   27  C11 UNL     1      21.527  -0.577  52.242  1.00  0.00     0.045 C 
ENDBRANCH  23  24
ENDBRANCH  21  23
ENDBRANCH   4  21
BRANCH   1  28
HETATM   28  C2  UNL     1      26.088   2.697  51.126  1.00  0.00     0.037 C 
HETATM   29  C1  UNL     1      27.174   2.152  52.067  1.00  0.00     0.008 C 
ENDBRANCH   1  28
BRANCH   1  30
HETATM   30  O1  UNL     1      25.289   2.918  53.232  1.00  0.00    -0.386 OA
HETATM   31  H6  UNL     1      24.538   2.839  53.828  1.00  0.00     0.210 HD
ENDBRANCH   1  30
TORSDOF 5
ENDMDL
MODEL 4
REMARK VINA RESULT:      -7.1      2.225      4.831
REMARK  5 active torsions:
REMARK  status: ('A' for Active; 'I' for Inactive)
REMARK    1  A    between atoms: C2_2  and  C3_3 
REMARK    2  A    between atoms: C3_3  and  O1_4 
REMARK    3  A    between atoms: C6_7  and  C7_8 
REMARK    4  A    between atoms: C7_8  and  O3_10 
REMARK    5  A    between atoms: O3_10  and  C8_11 
ROOT
HETATM    1  C3  UNL     1      21.909   1.349  52.203  1.00  0.00     0.105 C 
HETATM    2  C4  UNL     1      21.849   1.680  50.776  1.00  0.00     0.260 C 
HETATM    3  C5  UNL     1      23.330   1.403  50.809  1.00  0.00     0.062 C 
HETATM    4  C6  UNL     1      23.266   1.898  52.296  1.00  0.00     0.083 C 
HETATM    5  C12 UNL     1      23.676   3.288  52.240  1.00  0.00     0.027 C 
HETATM    6  C13 UNL     1      22.818   4.409  52.513  1.00  0.00     0.036 C 
HETATM    7  C14 UNL     1      22.058   5.168  51.547  1.00  0.00    -0.070 C 
HETATM    8  C15 UNL     1      21.188   5.562  50.564  1.00  0.00     0.003 C 
HETATM    9  C16 UNL     1      20.210   5.039  49.662  1.00  0.00    -0.002 C 
HETATM   10  C17 UNL     1      19.596   3.971  49.154  1.00  0.00     0.003 C 
HETATM   11  C18 UNL     1      20.103   2.646  49.671  1.00  0.00     0.301 C 
HETATM   12  N1  UNL     1      21.426   2.983  50.352  1.00  0.00     0.102 N 
HETATM   13  C19 UNL     1      22.195   3.417  49.163  1.00  0.00     0.301 C 
HETATM   14  C20 UNL     1      22.992   4.622  49.272  1.00  0.00     0.008 C 
HETATM   15  C21 UNL     1      23.574   5.776  49.756  1.00  0.00    -0.044 C 
HETATM   16  C22 UNL     1      24.500   6.968  49.586  1.00  0.00     0.304 C 
HETATM   17  N2  UNL     1      25.086   7.161  50.880  1.00  0.00     0.088 N 
HETATM   18  C23 UNL     1      24.322   6.364  51.852  1.00  0.00     0.283 C 
HETATM   19  C24 UNL     1      23.056   6.201  51.165  1.00  0.00     0.073 C 
HETATM   20  H33 UNL     1      26.106   6.987  50.935  1.00  0.00     0.316 HD
ENDROOT
BRANCH   4  21
HETATM   21  C7  UNL     1      24.098   1.070  53.213  1.00  0.00     0.271 C 
HETATM   22  O2  UNL     1      24.058  -0.032  53.824  1.00  0.00    -0.264 OA
BRANCH  21  23
HETATM   23  O3  UNL     1      25.357   1.342  53.723  1.00  0.00    -0.311 OA
BRANCH  23  24
HETATM   24  C8  UNL     1      26.544   0.999  53.033  1.00  0.00     0.060 C 
HETATM   25  C9  UNL     1      27.053   2.175  52.208  1.00  0.00     0.045 C 
HETATM   26  C10 UNL     1      27.596   0.602  54.041  1.00  0.00     0.045 C 
HETATM   27  C11 UNL     1      26.338  -0.155  52.086  1.00  0.00     0.045 C 
ENDBRANCH  23  24
ENDBRANCH  21  23
ENDBRANCH   4  21
BRANCH   1  28
HETATM   28  C2  UNL     1      20.856   1.509  53.187  1.00  0.00     0.037 C 
HETATM   29  C1  UNL     1      20.526   0.182  53.890  1.00  0.00     0.008 C 
ENDBRANCH   1  28
BRANCH   1  30
HETATM   30  O1  UNL     1      22.096  -0.099  52.187  1.00  0.00    -0.386 OA
HETATM   31  H6  UNL     1      22.115  -0.464  53.077  1.00  0.00     0.210 HD
ENDBRANCH   1  30
TORSDOF 5
ENDMDL
MODEL 5
REMARK VINA RESULT:      -7.0      2.055      5.086
REMARK  5 active torsions:
REMARK  status: ('A' for Active; 'I' for Inactive)
REMARK    1  A    between atoms: C2_2  and  C3_3 
REMARK    2  A    between atoms: C3_3  and  O1_4 
REMARK    3  A    between atoms: C6_7  and  C7_8 
REMARK    4  A    between atoms: C7_8  and  O3_10 
REMARK    5  A    between atoms: O3_10  and  C8_11 
ROOT
HETATM    1  C3  UNL     1      24.232   3.076  51.929  1.00  0.00     0.105 C 
HETATM    2  C4  UNL     1      23.768   1.807  51.360  1.00  0.00     0.260 C 
HETATM    3  C5  UNL     1      23.620   2.607  50.092  1.00  0.00     0.062 C 
HETATM    4  C6  UNL     1      23.338   3.826  51.039  1.00  0.00     0.083 C 
HETATM    5  C12 UNL     1      21.892   3.922  51.096  1.00  0.00     0.027 C 
HETATM    6  C13 UNL     1      21.097   3.663  52.265  1.00  0.00     0.036 C 
HETATM    7  C14 UNL     1      20.475   2.409  52.624  1.00  0.00    -0.070 C 
HETATM    8  C15 UNL     1      20.230   1.102  52.954  1.00  0.00     0.003 C 
HETATM    9  C16 UNL     1      20.899  -0.149  53.138  1.00  0.00    -0.002 C 
HETATM   10  C17 UNL     1      22.031  -0.848  53.060  1.00  0.00     0.003 C 
HETATM   11  C18 UNL     1      23.211  -0.083  52.510  1.00  0.00     0.301 C 
HETATM   12  N1  UNL     1      22.596   1.164  51.880  1.00  0.00     0.102 N 
HETATM   13  C19 UNL     1      21.830   0.519  50.790  1.00  0.00     0.301 C 
HETATM   14  C20 UNL     1      20.470   0.964  50.560  1.00  0.00     0.008 C 
HETATM   15  C21 UNL     1      19.263   1.623  50.677  1.00  0.00    -0.044 C 
HETATM   16  C22 UNL     1      17.847   1.896  50.198  1.00  0.00     0.304 C 
HETATM   17  N2  UNL     1      17.648   3.297  50.431  1.00  0.00     0.088 N 
HETATM   18  C23 UNL     1      18.735   3.776  51.299  1.00  0.00     0.283 C 
HETATM   19  C24 UNL     1      19.166   2.544  51.932  1.00  0.00     0.073 C 
HETATM   20  H33 UNL     1      17.534   3.875  49.578  1.00  0.00     0.316 HD
ENDROOT
BRANCH   4  21
HETATM   21  C7  UNL     1      23.999   5.078  50.576  1.00  0.00     0.271 C 
HETATM   22  O2  UNL     1      24.477   6.147  51.043  1.00  0.00    -0.264 OA
BRANCH  21  23
HETATM   23  O3  UNL     1      24.318   5.462  49.285  1.00  0.00    -0.311 OA
BRANCH  23  24
HETATM   24  C8  UNL     1      23.388   6.103  48.433  1.00  0.00     0.060 C 
HETATM   25  C9  UNL     1      22.347   6.868  49.240  1.00  0.00     0.045 C 
HETATM   26  C10 UNL     1      24.131   7.065  47.535  1.00  0.00     0.045 C 
HETATM   27  C11 UNL     1      22.646   5.123  47.561  1.00  0.00     0.045 C 
ENDBRANCH  23  24
ENDBRANCH  21  23
ENDBRANCH   4  21
BRANCH   1  28
HETATM   28  C2  UNL     1      24.488   3.371  53.324  1.00  0.00     0.037 C 
HETATM   29  C1  UNL     1      25.573   2.453  53.911  1.00  0.00     0.008 C 
ENDBRANCH   1  28
BRANCH   1  30
HETATM   30  O1  UNL     1      25.556   3.226  51.334  1.00  0.00    -0.386 OA
HETATM   31  H6  UNL     1      25.651   2.690  50.540  1.00  0.00     0.210 HD
ENDBRANCH   1  30
TORSDOF 5
ENDMDL
MODEL 6
REMARK VINA RESULT:      -6.9      3.030      5.636
REMARK  5 active torsions:
REMARK  status: ('A' for Active; 'I' for Inactive)
REMARK    1  A    between atoms: C2_2  and  C3_3 
REMARK    2  A    between atoms: C3_3  and  O1_4 
REMARK    3  A    between atoms: C6_7  and  C7_8 
REMARK    4  A    between atoms: C7_8  and  O3_10 
REMARK    5  A    between atoms: O3_10  and  C8_11 
ROOT
HETATM    1  C3  UNL     1      22.438   5.301  48.876  1.00  0.00     0.105 C 
HETATM    2  C4  UNL     1      21.928   5.023  50.223  1.00  0.00     0.260 C 
HETATM    3  C5  UNL     1      22.892   6.102  50.643  1.00  0.00     0.062 C 
HETATM    4  C6  UNL     1      23.759   5.632  49.421  1.00  0.00     0.083 C 
HETATM    5  C12 UNL     1      24.743   4.733  49.992  1.00  0.00     0.027 C 
HETATM    6  C13 UNL     1      24.803   3.317  49.748  1.00  0.00     0.036 C 
HETATM    7  C14 UNL     1      24.199   2.278  50.550  1.00  0.00    -0.070 C 
HETATM    8  C15 UNL     1      23.321   1.473  51.228  1.00  0.00     0.003 C 
HETATM    9  C16 UNL     1      21.933   1.355  51.548  1.00  0.00    -0.002 C 
HETATM   10  C17 UNL     1      20.711   1.885  51.498  1.00  0.00     0.003 C 
HETATM   11  C18 UNL     1      20.640   3.250  50.856  1.00  0.00     0.301 C 
HETATM   12  N1  UNL     1      22.090   3.723  50.806  1.00  0.00     0.102 N 
HETATM   13  C19 UNL     1      22.348   3.834  52.259  1.00  0.00     0.301 C 
HETATM   14  C20 UNL     1      23.598   3.306  52.770  1.00  0.00     0.008 C 
HETATM   15  C21 UNL     1      24.829   2.688  52.854  1.00  0.00    -0.044 C 
HETATM   16  C22 UNL     1      26.043   2.251  53.656  1.00  0.00     0.304 C 
HETATM   17  N2  UNL     1      27.149   2.405  52.756  1.00  0.00     0.088 N 
HETATM   18  C23 UNL     1      26.612   2.599  51.400  1.00  0.00     0.283 C 
HETATM   19  C24 UNL     1      25.290   2.016  51.524  1.00  0.00     0.073 C 
HETATM   20  H33 UNL     1      27.836   3.134  53.021  1.00  0.00     0.316 HD
ENDROOT
BRANCH   4  21
HETATM   21  C7  UNL     1      24.359   6.770  48.671  1.00  0.00     0.271 C 
HETATM   22  O2  UNL     1      24.190   8.006  48.495  1.00  0.00    -0.264 OA
BRANCH  21  23
HETATM   23  O3  UNL     1      25.453   6.766  47.823  1.00  0.00    -0.311 OA
BRANCH  23  24
HETATM   24  C8  UNL     1      26.758   7.088  48.267  1.00  0.00     0.060 C 
HETATM   25  C9  UNL     1      27.456   8.016  47.280  1.00  0.00     0.045 C 
HETATM   26  C10 UNL     1      26.662   7.768  49.612  1.00  0.00     0.045 C 
HETATM   27  C11 UNL     1      27.624   5.864  48.419  1.00  0.00     0.045 C 
ENDBRANCH  23  24
ENDBRANCH  21  23
ENDBRANCH   4  21
BRANCH   1  28
HETATM   28  C2  UNL     1      22.181   4.545  47.667  1.00  0.00     0.037 C 
HETATM   29  C1  UNL     1      21.710   5.451  46.518  1.00  0.00     0.008 C 
ENDBRANCH   1  28
BRANCH   1  30
HETATM   30  O1  UNL     1      21.832   6.592  48.566  1.00  0.00    -0.386 OA
HETATM   31  H6  UNL     1      21.017   6.489  48.063  1.00  0.00     0.210 HD
ENDBRANCH   1  30
TORSDOF 5
ENDMDL
MODEL 7
REMARK VINA RESULT:      -6.9      8.627     13.102
REMARK  5 active torsions:
REMARK  status: ('A' for Active; 'I' for Inactive)
REMARK    1  A    between atoms: C2_2  and  C3_3 
REMARK    2  A    between atoms: C3_3  and  O1_4 
REMARK    3  A    between atoms: C6_7  and  C7_8 
REMARK    4  A    between atoms: C7_8  and  O3_10 
REMARK    5  A    between atoms: O3_10  and  C8_11 
ROOT
HETATM    1  C3  UNL     1      29.506   7.600  48.261  1.00  0.00     0.105 C 
HETATM    2  C4  UNL     1      30.831   7.386  48.852  1.00  0.00     0.260 C 
HETATM    3  C5  UNL     1      30.820   8.882  49.034  1.00  0.00     0.062 C 
HETATM    4  C6  UNL     1      29.923   8.910  47.747  1.00  0.00     0.083 C 
HETATM    5  C12 UNL     1      30.843   9.195  46.663  1.00  0.00     0.027 C 
HETATM    6  C13 UNL     1      31.187   8.274  45.614  1.00  0.00     0.036 C 
HETATM    7  C14 UNL     1      32.315   7.370  45.596  1.00  0.00    -0.070 C 
HETATM    8  C15 UNL     1      33.224   6.386  45.881  1.00  0.00     0.003 C 
HETATM    9  C16 UNL     1      33.512   5.378  46.854  1.00  0.00    -0.002 C 
HETATM   10  C17 UNL     1      33.207   4.813  48.022  1.00  0.00     0.003 C 
HETATM   11  C18 UNL     1      32.071   5.474  48.766  1.00  0.00     0.301 C 
HETATM   12  N1  UNL     1      31.890   6.820  48.069  1.00  0.00     0.102 N 
HETATM   13  C19 UNL     1      33.187   7.440  48.425  1.00  0.00     0.301 C 
HETATM   14  C20 UNL     1      33.913   8.140  47.384  1.00  0.00     0.008 C 
HETATM   15  C21 UNL     1      34.284   8.664  46.163  1.00  0.00    -0.044 C 
HETATM   16  C22 UNL     1      35.240   9.468  45.298  1.00  0.00     0.304 C 
HETATM   17  N2  UNL     1      34.397  10.149  44.360  1.00  0.00     0.088 N 
HETATM   18  C23 UNL     1      33.057   9.545  44.426  1.00  0.00     0.283 C 
HETATM   19  C24 UNL     1      33.353   8.240  44.985  1.00  0.00     0.073 C 
HETATM   20  H33 UNL     1      34.374  11.181  44.453  1.00  0.00     0.316 HD
ENDROOT
BRANCH   4  21
HETATM   21  C7  UNL     1      28.804   9.887  47.848  1.00  0.00     0.271 C 
HETATM   22  O2  UNL     1      27.687  10.135  47.318  1.00  0.00    -0.264 OA
BRANCH  21  23
HETATM   23  O3  UNL     1      28.673  10.968  48.704  1.00  0.00    -0.311 OA
BRANCH  23  24
HETATM   24  C8  UNL     1      29.222  12.238  48.410  1.00  0.00     0.060 C 
HETATM   25  C9  UNL     1      29.482  12.387  46.917  1.00  0.00     0.045 C 
HETATM   26  C10 UNL     1      28.251  13.305  48.858  1.00  0.00     0.045 C 
HETATM   27  C11 UNL     1      30.533  12.468  49.118  1.00  0.00     0.045 C 
ENDBRANCH  23  24
ENDBRANCH  21  23
ENDBRANCH   4  21
BRANCH   1  28
HETATM   28  C2  UNL     1      28.691   6.630  47.557  1.00  0.00     0.037 C 
HETATM   29  C1  UNL     1      28.330   5.433  48.451  1.00  0.00     0.008 C 
ENDBRANCH   1  28
BRANCH   1  30
HETATM   30  O1  UNL     1      28.682   7.906  49.426  1.00  0.00    -0.386 OA
HETATM   31  H6  UNL     1      28.873   7.313  50.160  1.00  0.00     0.210 HD
ENDBRANCH   1  30
TORSDOF 5
ENDMDL
MODEL 8
REMARK VINA RESULT:      -6.7      7.955     11.974
REMARK  5 active torsions:
REMARK  status: ('A' for Active; 'I' for Inactive)
REMARK    1  A    between atoms: C2_2  and  C3_3 
REMARK    2  A    between atoms: C3_3  and  O1_4 
REMARK    3  A    between atoms: C6_7  and  C7_8 
REMARK    4  A    between atoms: C7_8  and  O3_10 
REMARK    5  A    between atoms: O3_10  and  C8_11 
ROOT
HETATM    1  C3  UNL     1      29.864  10.573  48.298  1.00  0.00     0.105 C 
HETATM    2  C4  UNL     1      30.394  10.170  46.992  1.00  0.00     0.260 C 
HETATM    3  C5  UNL     1      29.268   9.169  47.017  1.00  0.00     0.062 C 
HETATM    4  C6  UNL     1      29.443   9.195  48.576  1.00  0.00     0.083 C 
HETATM    5  C12 UNL     1      30.275   8.046  48.873  1.00  0.00     0.027 C 
HETATM    6  C13 UNL     1      31.622   8.114  49.372  1.00  0.00     0.036 C 
HETATM    7  C14 UNL     1      32.835   8.095  48.587  1.00  0.00    -0.070 C 
HETATM    8  C15 UNL     1      33.835   8.376  47.694  1.00  0.00     0.003 C 
HETATM    9  C16 UNL     1      34.179   9.294  46.653  1.00  0.00    -0.002 C 
HETATM   10  C17 UNL     1      33.814  10.314  45.878  1.00  0.00     0.003 C 
HETATM   11  C18 UNL     1      32.393  10.784  46.080  1.00  0.00     0.301 C 
HETATM   12  N1  UNL     1      31.731   9.663  46.877  1.00  0.00     0.102 N 
HETATM   13  C19 UNL     1      31.793   8.589  45.859  1.00  0.00     0.301 C 
HETATM   14  C20 UNL     1      32.218   7.271  46.287  1.00  0.00     0.008 C 
HETATM   15  C21 UNL     1      32.674   6.222  47.058  1.00  0.00    -0.044 C 
HETATM   16  C22 UNL     1      33.056   4.760  47.218  1.00  0.00     0.304 C 
HETATM   17  N2  UNL     1      32.632   4.416  48.544  1.00  0.00     0.088 N 
HETATM   18  C23 UNL     1      32.322   5.661  49.263  1.00  0.00     0.283 C 
HETATM   19  C24 UNL     1      33.085   6.633  48.506  1.00  0.00     0.073 C 
HETATM   20  H33 UNL     1      31.863   3.722  48.596  1.00  0.00     0.316 HD
ENDROOT
BRANCH   4  21
HETATM   21  C7  UNL     1      28.141   9.188  49.300  1.00  0.00     0.271 C 
HETATM   22  O2  UNL     1      27.264   9.991  49.718  1.00  0.00    -0.264 OA
BRANCH  21  23
HETATM   23  O3  UNL     1      27.427   8.106  49.787  1.00  0.00    -0.311 OA
BRANCH  23  24
HETATM   24  C8  UNL     1      26.633   7.283  48.953  1.00  0.00     0.060 C 
HETATM   25  C9  UNL     1      25.469   6.683  49.730  1.00  0.00     0.045 C 
HETATM   26  C10 UNL     1      26.098   8.117  47.813  1.00  0.00     0.045 C 
HETATM   27  C11 UNL     1      27.420   6.138  48.370  1.00  0.00     0.045 C 
ENDBRANCH  23  24
ENDBRANCH  21  23
ENDBRANCH   4  21
BRANCH   1  28
HETATM   28  C2  UNL     1      30.469  11.486  49.248  1.00  0.00     0.037 C 
HETATM   29  C1  UNL     1      30.146  12.951  48.914  1.00  0.00     0.008 C 
ENDBRANCH   1  28
BRANCH   1  30
HETATM   30  O1  UNL     1      28.633  11.271  47.941  1.00  0.00    -0.386 OA
HETATM   31  H6  UNL     1      28.735  11.773  47.126  1.00  0.00     0.210 HD
ENDBRANCH   1  30
TORSDOF 5
ENDMDL
MODEL 9
REMARK VINA RESULT:      -6.5      3.236      6.127
REMARK  5 active torsions:
REMARK  status: ('A' for Active; 'I' for Inactive)
REMARK    1  A    between atoms: C2_2  and  C3_3 
REMARK    2  A    between atoms: C3_3  and  O1_4 
REMARK    3  A    between atoms: C6_7  and  C7_8 
REMARK    4  A    between atoms: C7_8  and  O3_10 
REMARK    5  A    between atoms: O3_10  and  C8_11 
ROOT
HETATM    1  C3  UNL     1      24.473   4.103  50.722  1.00  0.00     0.105 C 
HETATM    2  C4  UNL     1      24.659   5.552  50.847  1.00  0.00     0.260 C 
HETATM    3  C5  UNL     1      23.699   5.420  52.001  1.00  0.00     0.062 C 
HETATM    4  C6  UNL     1      23.089   4.218  51.196  1.00  0.00     0.083 C 
HETATM    5  C12 UNL     1      21.948   4.782  50.501  1.00  0.00     0.027 C 
HETATM    6  C13 UNL     1      21.851   4.940  49.075  1.00  0.00     0.036 C 
HETATM    7  C14 UNL     1      22.197   6.119  48.314  1.00  0.00    -0.070 C 
HETATM    8  C15 UNL     1      22.852   7.177  47.741  1.00  0.00     0.003 C 
HETATM    9  C16 UNL     1      24.128   7.824  47.722  1.00  0.00    -0.002 C 
HETATM   10  C17 UNL     1      25.363   7.903  48.215  1.00  0.00     0.003 C 
HETATM   11  C18 UNL     1      25.660   6.936  49.336  1.00  0.00     0.301 C 
HETATM   12  N1  UNL     1      24.289   6.426  49.772  1.00  0.00     0.102 N 
HETATM   13  C19 UNL     1      23.730   7.691  50.301  1.00  0.00     0.301 C 
HETATM   14  C20 UNL     1      22.368   8.033  49.942  1.00  0.00     0.008 C 
HETATM   15  C21 UNL     1      21.110   8.007  49.375  1.00  0.00    -0.044 C 
HETATM   16  C22 UNL     1      19.725   8.604  49.188  1.00  0.00     0.304 C 
HETATM   17  N2  UNL     1      18.854   7.471  49.074  1.00  0.00     0.088 N 
HETATM   18  C23 UNL     1      19.683   6.274  48.866  1.00  0.00     0.283 C 
HETATM   19  C24 UNL     1      20.906   6.854  48.345  1.00  0.00     0.073 C 
HETATM   20  H33 UNL     1      18.174   7.356  49.848  1.00  0.00     0.316 HD
ENDROOT
BRANCH   4  21
HETATM   21  C7  UNL     1      22.741   3.061  52.067  1.00  0.00     0.271 C 
HETATM   22  O2  UNL     1      23.285   2.270  52.884  1.00  0.00    -0.264 OA
BRANCH  21  23
HETATM   23  O3  UNL     1      21.513   2.445  52.239  1.00  0.00    -0.311 OA
BRANCH  23  24
HETATM   24  C8  UNL     1      21.056   1.413  51.385  1.00  0.00     0.060 C 
HETATM   25  C9  UNL     1      20.847   0.119  52.160  1.00  0.00     0.045 C 
HETATM   26  C10 UNL     1      19.748   1.841  50.761  1.00  0.00     0.045 C 
HETATM   27  C11 UNL     1      22.033   1.118  50.277  1.00  0.00     0.045 C 
ENDBRANCH  23  24
ENDBRANCH  21  23
ENDBRANCH   4  21
BRANCH   1  28
HETATM   28  C2  UNL     1      24.936   3.248  49.648  1.00  0.00     0.037 C 
HETATM   29  C1  UNL     1      26.466   3.287  49.507  1.00  0.00     0.008 C 
ENDBRANCH   1  28
BRANCH   1  30
HETATM   30  O1  UNL     1      25.214   3.586  51.868  1.00  0.00    -0.386 OA
HETATM   31  H6  UNL     1      25.560   2.704  51.698  1.00  0.00     0.210 HD
ENDBRANCH   1  30
TORSDOF 5
ENDMDL
