MODEL 1
REMARK VINA RESULT:      -8.1      0.000      0.000
REMARK  2 active torsions:
REMARK  status: ('A' for Active; 'I' for Inactive)
REMARK    1  A    between atoms: C7_7  and  N1_8 
REMARK    2  A    between atoms: N1_8  and  C8_9 
ROOT
HETATM    1  C1  UNL     1      28.302   5.413  48.228  1.00  0.00     0.018 C 
HETATM    2  C2  UNL     1      27.434   4.937  48.918  1.00  0.00    -0.078 C 
HETATM    3  C3  UNL     1      26.388   4.370  49.723  1.00  0.00     0.019 A 
HETATM    4  C4  UNL     1      25.309   5.160  50.040  1.00  0.00     0.021 A 
HETATM    5  C5  UNL     1      24.292   4.644  50.810  1.00  0.00     0.004 A 
HETATM    6  C6  UNL     1      24.367   3.347  51.251  1.00  0.00     0.029 A 
HETATM    7  C7  UNL     1      25.437   2.489  50.964  1.00  0.00     0.035 A 
HETATM    8  C16 UNL     1      26.401   3.079  50.197  1.00  0.00     0.050 A 
ENDROOT
BRANCH   7   9
HETATM    9  N1  UNL     1      25.461   1.170  51.442  1.00  0.00    -0.340 N 
HETATM   10  H5  UNL     1      25.116   0.449  50.738  1.00  0.00     0.167 HD
BRANCH   9  11
HETATM   11  C8  UNL     1      25.862   0.647  52.690  1.00  0.00     0.143 A 
HETATM   12  N2  UNL     1      27.119   0.746  53.101  1.00  0.00    -0.223 NA
HETATM   13  C9  UNL     1      27.669   0.327  54.214  1.00  0.00     0.236 A 
HETATM   14  N3  UNL     1      26.852  -0.295  55.073  1.00  0.00    -0.234 NA
HETATM   15  C10 UNL     1      25.538  -0.422  54.692  1.00  0.00     0.114 A 
HETATM   16  S1  UNL     1      24.203  -1.204  55.625  1.00  0.00    -0.073 SA
HETATM   17  C13 UNL     1      24.958   0.023  53.516  1.00  0.00     0.061 A 
HETATM   18  C11 UNL     1      22.925  -0.916  54.426  1.00  0.00     0.007 A 
HETATM   19  C12 UNL     1      23.621  -0.264  53.447  1.00  0.00     0.041 A 
HETATM   20  C15 UNL     1      21.589  -0.906  53.757  1.00  0.00     0.131 A 
HETATM   21  C14 UNL     1      22.337  -0.209  52.713  1.00  0.00     0.166 A 
HETATM   22  O1  UNL     1      21.818   0.194  51.647  1.00  0.00    -0.292 OA
ENDBRANCH   9  11
ENDBRANCH   7   9
TORSDOF 2
ENDMDL
MODEL 2
REMARK VINA RESULT:      -8.1      2.717      4.989
REMARK  2 active torsions:
REMARK  status: ('A' for Active; 'I' for Inactive)
REMARK    1  A    between atoms: C7_7  and  N1_8 
REMARK    2  A    between atoms: N1_8  and  C8_9 
ROOT
HETATM    1  C1  UNL     1      29.198  -2.690  53.285  1.00  0.00     0.018 C 
HETATM    2  C2  UNL     1      28.850  -1.541  53.403  1.00  0.00    -0.078 C 
HETATM    3  C3  UNL     1      28.443  -0.169  53.526  1.00  0.00     0.019 A 
HETATM    4  C4  UNL     1      29.418   0.792  53.646  1.00  0.00     0.021 A 
HETATM    5  C5  UNL     1      29.059   2.115  53.765  1.00  0.00     0.004 A 
HETATM    6  C6  UNL     1      27.730   2.459  53.762  1.00  0.00     0.029 A 
HETATM    7  C7  UNL     1      26.688   1.531  53.642  1.00  0.00     0.035 A 
HETATM    8  C16 UNL     1      27.131   0.244  53.530  1.00  0.00     0.050 A 
ENDROOT
BRANCH   7   9
HETATM    9  N1  UNL     1      25.345   1.940  53.645  1.00  0.00    -0.340 N 
HETATM   10  H5  UNL     1      24.960   2.150  54.616  1.00  0.00     0.167 HD
BRANCH   9  11
HETATM   11  C8  UNL     1      24.431   2.116  52.585  1.00  0.00     0.143 A 
HETATM   12  N2  UNL     1      24.583   3.098  51.706  1.00  0.00    -0.223 NA
HETATM   13  C9  UNL     1      23.846   3.413  50.670  1.00  0.00     0.236 A 
HETATM   14  N3  UNL     1      22.777   2.636  50.454  1.00  0.00    -0.234 NA
HETATM   15  C10 UNL     1      22.577   1.603  51.338  1.00  0.00     0.114 A 
HETATM   16  S1  UNL     1      21.237   0.392  51.313  1.00  0.00    -0.073 SA
HETATM   17  C13 UNL     1      23.358   1.271  52.432  1.00  0.00     0.061 A 
HETATM   18  C11 UNL     1      21.757  -0.511  52.752  1.00  0.00     0.007 A 
HETATM   19  C12 UNL     1      22.879   0.181  53.109  1.00  0.00     0.041 A 
HETATM   20  C15 UNL     1      21.795  -1.526  53.847  1.00  0.00     0.131 A 
HETATM   21  C14 UNL     1      22.995  -0.783  54.225  1.00  0.00     0.166 A 
HETATM   22  O1  UNL     1      23.704  -1.078  55.214  1.00  0.00    -0.292 OA
ENDBRANCH   9  11
ENDBRANCH   7   9
TORSDOF 2
ENDMDL
MODEL 3
REMARK VINA RESULT:      -7.9      1.488      2.419
REMARK  2 active torsions:
REMARK  status: ('A' for Active; 'I' for Inactive)
REMARK    1  A    between atoms: C7_7  and  N1_8 
REMARK    2  A    between atoms: N1_8  and  C8_9 
ROOT
HETATM    1  C1  UNL     1      23.480   8.015  50.346  1.00  0.00     0.018 C 
HETATM    2  C2  UNL     1      24.228   7.094  50.131  1.00  0.00    -0.078 C 
HETATM    3  C3  UNL     1      25.135   6.007  49.884  1.00  0.00     0.019 A 
HETATM    4  C4  UNL     1      26.124   6.184  48.946  1.00  0.00     0.021 A 
HETATM    5  C5  UNL     1      27.007   5.161  48.688  1.00  0.00     0.004 A 
HETATM    6  C6  UNL     1      26.889   3.976  49.371  1.00  0.00     0.029 A 
HETATM    7  C7  UNL     1      25.906   3.731  50.338  1.00  0.00     0.035 A 
HETATM    8  C16 UNL     1      25.073   4.796  50.532  1.00  0.00     0.050 A 
ENDROOT
BRANCH   7   9
HETATM    9  N1  UNL     1      25.833   2.498  51.006  1.00  0.00    -0.340 N 
HETATM   10  H5  UNL     1      25.132   1.819  50.582  1.00  0.00     0.167 HD
BRANCH   9  11
HETATM   11  C8  UNL     1      26.530   2.017  52.135  1.00  0.00     0.143 A 
HETATM   12  N2  UNL     1      27.777   2.396  52.382  1.00  0.00    -0.223 NA
HETATM   13  C9  UNL     1      28.573   2.059  53.367  1.00  0.00     0.236 A 
HETATM   14  N3  UNL     1      28.063   1.207  54.266  1.00  0.00    -0.234 NA
HETATM   15  C10 UNL     1      26.772   0.786  54.054  1.00  0.00     0.114 A 
HETATM   16  S1  UNL     1      25.814  -0.351  55.079  1.00  0.00    -0.073 SA
HETATM   17  C13 UNL     1      25.933   1.144  53.012  1.00  0.00     0.061 A 
HETATM   18  C11 UNL     1      24.337  -0.314  54.094  1.00  0.00     0.007 A 
HETATM   19  C12 UNL     1      24.705   0.544  53.096  1.00  0.00     0.041 A 
HETATM   20  C15 UNL     1      22.950  -0.591  53.614  1.00  0.00     0.131 A 
HETATM   21  C14 UNL     1      23.347   0.327  52.548  1.00  0.00     0.166 A 
HETATM   22  O1  UNL     1      22.593   0.654  51.604  1.00  0.00    -0.292 OA
ENDBRANCH   9  11
ENDBRANCH   7   9
TORSDOF 2
ENDMDL
MODEL 4
REMARK VINA RESULT:      -7.8      2.101      2.823
REMARK  2 active torsions:
REMARK  status: ('A' for Active; 'I' for Inactive)
REMARK    1  A    between atoms: C7_7  and  N1_8 
REMARK    2  A    between atoms: N1_8  and  C8_9 
ROOT
HETATM    1  C1  UNL     1      29.679   7.144  47.081  1.00  0.00     0.018 C 
HETATM    2  C2  UNL     1      28.726   6.663  47.643  1.00  0.00    -0.078 C 
HETATM    3  C3  UNL     1      27.581   6.091  48.294  1.00  0.00     0.019 A 
HETATM    4  C4  UNL     1      26.461   6.874  48.451  1.00  0.00     0.021 A 
HETATM    5  C5  UNL     1      25.349   6.353  49.071  1.00  0.00     0.004 A 
HETATM    6  C6  UNL     1      25.371   5.058  49.526  1.00  0.00     0.029 A 
HETATM    7  C7  UNL     1      26.477   4.208  49.398  1.00  0.00     0.035 A 
HETATM    8  C16 UNL     1      27.536   4.802  48.773  1.00  0.00     0.050 A 
ENDROOT
BRANCH   7   9
HETATM    9  N1  UNL     1      26.443   2.891  49.883  1.00  0.00    -0.340 N 
HETATM   10  H5  UNL     1      26.567   2.150  49.128  1.00  0.00     0.167 HD
BRANCH   9  11
HETATM   11  C8  UNL     1      26.272   2.393  51.192  1.00  0.00     0.143 A 
HETATM   12  N2  UNL     1      27.283   2.367  52.051  1.00  0.00    -0.223 NA
HETATM   13  C9  UNL     1      27.313   1.947  53.292  1.00  0.00     0.236 A 
HETATM   14  N3  UNL     1      26.160   1.471  53.777  1.00  0.00    -0.234 NA
HETATM   15  C10 UNL     1      25.083   1.477  52.924  1.00  0.00     0.114 A 
HETATM   16  S1  UNL     1      23.407   0.905  53.281  1.00  0.00    -0.073 SA
HETATM   17  C13 UNL     1      25.052   1.923  51.613  1.00  0.00     0.061 A 
HETATM   18  C11 UNL     1      22.724   1.275  51.683  1.00  0.00     0.007 A 
HETATM   19  C12 UNL     1      23.815   1.789  51.041  1.00  0.00     0.041 A 
HETATM   20  C15 UNL     1      21.753   1.405  50.556  1.00  0.00     0.131 A 
HETATM   21  C14 UNL     1      22.922   1.953  49.872  1.00  0.00     0.166 A 
HETATM   22  O1  UNL     1      22.900   2.357  48.687  1.00  0.00    -0.292 OA
ENDBRANCH   9  11
ENDBRANCH   7   9
TORSDOF 2
ENDMDL
MODEL 5
REMARK VINA RESULT:      -7.7      3.110      6.518
REMARK  2 active torsions:
REMARK  status: ('A' for Active; 'I' for Inactive)
REMARK    1  A    between atoms: C7_7  and  N1_8 
REMARK    2  A    between atoms: N1_8  and  C8_9 
ROOT
HETATM    1  C1  UNL     1      28.992  -0.722  53.471  1.00  0.00     0.018 C 
HETATM    2  C2  UNL     1      27.814  -0.483  53.362  1.00  0.00    -0.078 C 
HETATM    3  C3  UNL     1      26.413  -0.187  53.251  1.00  0.00     0.019 A 
HETATM    4  C4  UNL     1      25.549  -0.780  54.140  1.00  0.00     0.021 A 
HETATM    5  C5  UNL     1      24.201  -0.515  54.057  1.00  0.00     0.004 A 
HETATM    6  C6  UNL     1      23.736   0.337  53.087  1.00  0.00     0.029 A 
HETATM    7  C7  UNL     1      24.562   0.973  52.151  1.00  0.00     0.035 A 
HETATM    8  C16 UNL     1      25.882   0.657  52.303  1.00  0.00     0.050 A 
ENDROOT
BRANCH   7   9
HETATM    9  N1  UNL     1      24.031   1.836  51.179  1.00  0.00    -0.340 N 
HETATM   10  H5  UNL     1      24.075   1.449  50.188  1.00  0.00     0.167 HD
BRANCH   9  11
HETATM   11  C8  UNL     1      23.455   3.119  51.299  1.00  0.00     0.143 A 
HETATM   12  N2  UNL     1      22.304   3.295  51.935  1.00  0.00    -0.223 NA
HETATM   13  C9  UNL     1      21.626   4.397  52.144  1.00  0.00     0.236 A 
HETATM   14  N3  UNL     1      22.163   5.518  51.649  1.00  0.00    -0.234 NA
HETATM   15  C10 UNL     1      23.357   5.387  50.982  1.00  0.00     0.114 A 
HETATM   16  S1  UNL     1      24.323   6.702  50.207  1.00  0.00    -0.073 SA
HETATM   17  C13 UNL     1      24.073   4.221  50.762  1.00  0.00     0.061 A 
HETATM   18  C11 UNL     1      25.640   5.665  49.619  1.00  0.00     0.007 A 
HETATM   19  C12 UNL     1      25.228   4.439  50.059  1.00  0.00     0.041 A 
HETATM   20  C15 UNL     1      26.906   5.223  48.962  1.00  0.00     0.131 A 
HETATM   21  C14 UNL     1      26.463   3.913  49.434  1.00  0.00     0.166 A 
HETATM   22  O1  UNL     1      27.105   2.857  49.238  1.00  0.00    -0.292 OA
ENDBRANCH   9  11
ENDBRANCH   7   9
TORSDOF 2
ENDMDL
MODEL 6
REMARK VINA RESULT:      -7.7      2.418      3.686
REMARK  2 active torsions:
REMARK  status: ('A' for Active; 'I' for Inactive)
REMARK    1  A    between atoms: C7_7  and  N1_8 
REMARK    2  A    between atoms: N1_8  and  C8_9 
ROOT
HETATM    1  C1  UNL     1      27.492   5.064  48.598  1.00  0.00     0.018 C 
HETATM    2  C2  UNL     1      26.464   4.795  49.168  1.00  0.00    -0.078 C 
HETATM    3  C3  UNL     1      25.230   4.487  49.835  1.00  0.00     0.019 A 
HETATM    4  C4  UNL     1      24.621   5.476  50.570  1.00  0.00     0.021 A 
HETATM    5  C5  UNL     1      23.438   5.210  51.219  1.00  0.00     0.004 A 
HETATM    6  C6  UNL     1      22.879   3.960  51.125  1.00  0.00     0.029 A 
HETATM    7  C7  UNL     1      23.447   2.909  50.394  1.00  0.00     0.035 A 
HETATM    8  C16 UNL     1      24.617   3.257  49.782  1.00  0.00     0.050 A 
ENDROOT
BRANCH   7   9
HETATM    9  N1  UNL     1      22.830   1.649  50.333  1.00  0.00    -0.340 N 
HETATM   10  H5  UNL     1      23.077   1.090  49.461  1.00  0.00     0.167 HD
BRANCH   9  11
HETATM   11  C8  UNL     1      21.947   1.009  51.228  1.00  0.00     0.143 A 
HETATM   12  N2  UNL     1      20.637   1.016  51.018  1.00  0.00    -0.223 NA
HETATM   13  C9  UNL     1      19.675   0.482  51.730  1.00  0.00     0.236 A 
HETATM   14  N3  UNL     1      20.056  -0.169  52.835  1.00  0.00    -0.234 NA
HETATM   15  C10 UNL     1      21.405  -0.205  53.096  1.00  0.00     0.114 A 
HETATM   16  S1  UNL     1      22.224  -0.999  54.496  1.00  0.00    -0.073 SA
HETATM   17  C13 UNL     1      22.421   0.359  52.342  1.00  0.00     0.061 A 
HETATM   18  C11 UNL     1      23.882  -0.557  54.036  1.00  0.00     0.007 A 
HETATM   19  C12 UNL     1      23.660   0.140  52.882  1.00  0.00     0.041 A 
HETATM   20  C15 UNL     1      25.370  -0.431  54.058  1.00  0.00     0.131 A 
HETATM   21  C14 UNL     1      25.129   0.314  52.825  1.00  0.00     0.166 A 
HETATM   22  O1  UNL     1      26.043   0.826  52.140  1.00  0.00    -0.292 OA
ENDBRANCH   9  11
ENDBRANCH   7   9
TORSDOF 2
ENDMDL
MODEL 7
REMARK VINA RESULT:      -7.7      3.371      7.247
REMARK  2 active torsions:
REMARK  status: ('A' for Active; 'I' for Inactive)
REMARK    1  A    between atoms: C7_7  and  N1_8 
REMARK    2  A    between atoms: N1_8  and  C8_9 
ROOT
HETATM    1  C1  UNL     1      21.850  -1.251  54.577  1.00  0.00     0.018 C 
HETATM    2  C2  UNL     1      22.763  -0.719  53.995  1.00  0.00    -0.078 C 
HETATM    3  C3  UNL     1      23.852  -0.102  53.290  1.00  0.00     0.019 A 
HETATM    4  C4  UNL     1      25.123  -0.575  53.512  1.00  0.00     0.021 A 
HETATM    5  C5  UNL     1      26.187  -0.004  52.852  1.00  0.00     0.004 A 
HETATM    6  C6  UNL     1      25.965   1.030  51.978  1.00  0.00     0.029 A 
HETATM    7  C7  UNL     1      24.696   1.559  51.706  1.00  0.00     0.035 A 
HETATM    8  C16 UNL     1      23.700   0.937  52.402  1.00  0.00     0.050 A 
ENDROOT
BRANCH   7   9
HETATM    9  N1  UNL     1      24.529   2.620  50.801  1.00  0.00    -0.340 N 
HETATM   10  H5  UNL     1      24.994   2.459  49.857  1.00  0.00     0.167 HD
BRANCH   9  11
HETATM   11  C8  UNL     1      23.852   3.850  50.937  1.00  0.00     0.143 A 
HETATM   12  N2  UNL     1      22.695   3.928  51.582  1.00  0.00    -0.223 NA
HETATM   13  C9  UNL     1      21.932   4.969  51.805  1.00  0.00     0.236 A 
HETATM   14  N3  UNL     1      22.373   6.134  51.316  1.00  0.00    -0.234 NA
HETATM   15  C10 UNL     1      23.569   6.106  50.640  1.00  0.00     0.114 A 
HETATM   16  S1  UNL     1      24.419   7.501  49.871  1.00  0.00    -0.073 SA
HETATM   17  C13 UNL     1      24.375   5.004  50.405  1.00  0.00     0.061 A 
HETATM   18  C11 UNL     1      25.811   6.579  49.265  1.00  0.00     0.007 A 
HETATM   19  C12 UNL     1      25.503   5.320  49.697  1.00  0.00     0.041 A 
HETATM   20  C15 UNL     1      27.104   6.246  48.595  1.00  0.00     0.131 A 
HETATM   21  C14 UNL     1      26.771   4.901  49.058  1.00  0.00     0.166 A 
HETATM   22  O1  UNL     1      27.496   3.902  48.848  1.00  0.00    -0.292 OA
ENDBRANCH   9  11
ENDBRANCH   7   9
TORSDOF 2
ENDMDL
MODEL 8
REMARK VINA RESULT:      -7.5      2.443      3.310
REMARK  2 active torsions:
REMARK  status: ('A' for Active; 'I' for Inactive)
REMARK    1  A    between atoms: C7_7  and  N1_8 
REMARK    2  A    between atoms: N1_8  and  C8_9 
ROOT
HETATM    1  C1  UNL     1      27.166   4.364  48.954  1.00  0.00     0.018 C 
HETATM    2  C2  UNL     1      26.361   3.997  49.774  1.00  0.00    -0.078 C 
HETATM    3  C3  UNL     1      25.386   3.565  50.737  1.00  0.00     0.019 A 
HETATM    4  C4  UNL     1      24.592   4.515  51.332  1.00  0.00     0.021 A 
HETATM    5  C5  UNL     1      23.650   4.131  52.258  1.00  0.00     0.004 A 
HETATM    6  C6  UNL     1      23.515   2.803  52.577  1.00  0.00     0.029 A 
HETATM    7  C7  UNL     1      24.292   1.785  52.008  1.00  0.00     0.035 A 
HETATM    8  C16 UNL     1      25.200   2.251  51.101  1.00  0.00     0.050 A 
ENDROOT
BRANCH   7   9
HETATM    9  N1  UNL     1      24.110   0.441  52.373  1.00  0.00    -0.340 N 
HETATM   10  H5  UNL     1      24.817  -0.224  51.935  1.00  0.00     0.167 HD
BRANCH   9  11
HETATM   11  C8  UNL     1      23.154  -0.166  53.215  1.00  0.00     0.143 A 
HETATM   12  N2  UNL     1      23.513  -0.738  54.357  1.00  0.00    -0.223 NA
HETATM   13  C9  UNL     1      22.776  -1.343  55.255  1.00  0.00     0.236 A 
HETATM   14  N3  UNL     1      21.465  -1.399  54.995  1.00  0.00    -0.234 NA
HETATM   15  C10 UNL     1      21.043  -0.819  53.823  1.00  0.00     0.114 A 
HETATM   16  S1  UNL     1      19.351  -0.732  53.197  1.00  0.00    -0.073 SA
HETATM   17  C13 UNL     1      21.823  -0.179  52.874  1.00  0.00     0.061 A 
HETATM   18  C11 UNL     1      19.735   0.148  51.703  1.00  0.00     0.007 A 
HETATM   19  C12 UNL     1      21.089   0.289  51.818  1.00  0.00     0.041 A 
HETATM   20  C15 UNL     1      19.576   0.844  50.391  1.00  0.00     0.131 A 
HETATM   21  C14 UNL     1      21.024   0.993  50.518  1.00  0.00     0.166 A 
HETATM   22  O1  UNL     1      21.734   1.570  49.663  1.00  0.00    -0.292 OA
ENDBRANCH   9  11
ENDBRANCH   7   9
TORSDOF 2
ENDMDL
MODEL 9
REMARK VINA RESULT:      -7.4      2.586      3.894
REMARK  2 active torsions:
REMARK  status: ('A' for Active; 'I' for Inactive)
REMARK    1  A    between atoms: C7_7  and  N1_8 
REMARK    2  A    between atoms: N1_8  and  C8_9 
ROOT
HETATM    1  C1  UNL     1      24.987   7.768  47.654  1.00  0.00     0.018 C 
HETATM    2  C2  UNL     1      25.207   6.794  48.331  1.00  0.00    -0.078 C 
HETATM    3  C3  UNL     1      25.487   5.642  49.143  1.00  0.00     0.019 A 
HETATM    4  C4  UNL     1      26.531   4.825  48.779  1.00  0.00     0.021 A 
HETATM    5  C5  UNL     1      26.822   3.715  49.537  1.00  0.00     0.004 A 
HETATM    6  C6  UNL     1      26.067   3.437  50.649  1.00  0.00     0.029 A 
HETATM    7  C7  UNL     1      24.991   4.227  51.075  1.00  0.00     0.035 A 
HETATM    8  C16 UNL     1      24.770   5.306  50.268  1.00  0.00     0.050 A 
ENDROOT
BRANCH   7   9
HETATM    9  N1  UNL     1      24.253   3.893  52.222  1.00  0.00    -0.340 N 
HETATM   10  H5  UNL     1      24.662   4.281  53.125  1.00  0.00     0.167 HD
BRANCH   9  11
HETATM   11  C8  UNL     1      23.071   3.137  52.371  1.00  0.00     0.143 A 
HETATM   12  N2  UNL     1      21.879   3.681  52.161  1.00  0.00    -0.223 NA
HETATM   13  C9  UNL     1      20.689   3.142  52.249  1.00  0.00     0.236 A 
HETATM   14  N3  UNL     1      20.655   1.852  52.603  1.00  0.00    -0.234 NA
HETATM   15  C10 UNL     1      21.865   1.243  52.832  1.00  0.00     0.114 A 
HETATM   16  S1  UNL     1      22.148  -0.473  53.320  1.00  0.00    -0.073 SA
HETATM   17  C13 UNL     1      23.124   1.814  52.737  1.00  0.00     0.061 A 
HETATM   18  C11 UNL     1      23.920  -0.376  53.382  1.00  0.00     0.007 A 
HETATM   19  C12 UNL     1      24.126   0.929  53.032  1.00  0.00     0.041 A 
HETATM   20  C15 UNL     1      25.352  -0.760  53.560  1.00  0.00     0.131 A 
HETATM   21  C14 UNL     1      25.569   0.636  53.186  1.00  0.00     0.166 A 
HETATM   22  O1  UNL     1      26.703   1.157  53.099  1.00  0.00    -0.292 OA
ENDBRANCH   9  11
ENDBRANCH   7   9
TORSDOF 2
ENDMDL
