MODEL 1
REMARK VINA RESULT:     -10.1      0.000      0.000
REMARK  1 active torsions:
REMARK  status: ('A' for Active; 'I' for Inactive)
REMARK    1  A    between atoms: O1_2  and  C2_3 
ROOT
HETATM    1  C2  UNL     1      20.473  -0.603  53.218  1.00  0.00     0.098 A 
HETATM    2  C3  UNL     1      21.082  -1.135  54.343  1.00  0.00     0.071 A 
HETATM    3  C4  UNL     1      22.445  -1.051  54.517  1.00  0.00     0.075 A 
HETATM    4  N1  UNL     1      22.843  -1.603  55.700  1.00  0.00    -0.241 NA
HETATM    5  C5  UNL     1      24.176  -1.551  56.009  1.00  0.00     0.236 A 
HETATM    6  N2  UNL     1      25.008  -0.961  55.129  1.00  0.00    -0.224 NA
HETATM    7  C6  UNL     1      24.638  -0.418  53.969  1.00  0.00     0.141 A 
HETATM    8  C7  UNL     1      23.310  -0.470  53.654  1.00  0.00     0.041 A 
HETATM    9  C8  UNL     1      22.606   0.016  52.584  1.00  0.00     0.052 A 
HETATM   10  C9  UNL     1      21.238   0.016  52.262  1.00  0.00     0.086 A 
HETATM   11  N3  UNL     1      21.298   0.788  51.100  1.00  0.00    -0.277 N 
HETATM   12  C10 UNL     1      21.148   0.612  49.894  1.00  0.00     0.172 A 
HETATM   13  C11 UNL     1      21.439   2.041  49.618  1.00  0.00     0.141 A 
HETATM   14  O2  UNL     1      21.436   1.716  50.833  1.00  0.00     0.000 OA
HETATM   15  N4  UNL     1      21.731   3.401  49.642  1.00  0.00    -0.283 NA
HETATM   16  C12 UNL     1      21.717   4.252  50.577  1.00  0.00     0.112 C 
HETATM   17  C13 UNL     1      21.743   5.346  51.577  1.00  0.00     0.032 C 
HETATM   18  C14 UNL     1      22.740   6.217  51.488  1.00  0.00    -0.008 C 
HETATM   19  C15 UNL     1      23.240   6.205  50.258  1.00  0.00     0.103 C 
HETATM   20  N5  UNL     1      24.160   5.180  50.575  1.00  0.00    -0.359 N 
HETATM   21  C16 UNL     1      25.400   5.111  49.772  1.00  0.00     0.129 C 
HETATM   22  C17 UNL     1      25.264   3.630  49.361  1.00  0.00     0.038 C 
HETATM   23  C18 UNL     1      25.107   3.068  50.753  1.00  0.00     0.025 A 
HETATM   24  C19 UNL     1      25.556   1.844  51.140  1.00  0.00     0.061 A 
HETATM   25  C20 UNL     1      25.347   1.467  52.474  1.00  0.00     0.003 A 
HETATM   26  C21 UNL     1      24.803   2.720  52.388  1.00  0.00     0.069 A 
HETATM   27  C22 UNL     1      24.181   3.845  52.780  1.00  0.00     0.011 A 
HETATM   28  C23 UNL     1      24.457   4.083  51.416  1.00  0.00     0.018 A 
HETATM   29  N6  UNL     1      25.660   0.239  53.172  1.00  0.00    -0.346 N 
HETATM   30  H18 UNL     1      26.626  -0.060  53.029  1.00  0.00     0.167 HD
ENDROOT
BRANCH   1  31
HETATM   31  O1  UNL     1      19.200  -0.482  52.689  1.00  0.00    -0.354 OA
HETATM   32  C1  UNL     1      18.135  -1.241  53.202  1.00  0.00     0.210 C 
ENDBRANCH   1  31
TORSDOF 1
ENDMDL
MODEL 2
REMARK VINA RESULT:      -8.9      1.916      3.159
REMARK  1 active torsions:
REMARK  status: ('A' for Active; 'I' for Inactive)
REMARK    1  A    between atoms: O1_2  and  C2_3 
ROOT
HETATM    1  C2  UNL     1      23.059   0.543  52.540  1.00  0.00     0.098 A 
HETATM    2  C3  UNL     1      24.220   0.381  53.279  1.00  0.00     0.071 A 
HETATM    3  C4  UNL     1      25.382   1.028  52.923  1.00  0.00     0.075 A 
HETATM    4  N1  UNL     1      26.400   0.765  53.793  1.00  0.00    -0.241 NA
HETATM    5  C5  UNL     1      27.603   1.380  53.569  1.00  0.00     0.236 A 
HETATM    6  N2  UNL     1      27.706   2.203  52.507  1.00  0.00    -0.224 NA
HETATM    7  C6  UNL     1      26.724   2.471  51.647  1.00  0.00     0.141 A 
HETATM    8  C7  UNL     1      25.523   1.858  51.864  1.00  0.00     0.041 A 
HETATM    9  C8  UNL     1      24.323   1.942  51.208  1.00  0.00     0.052 A 
HETATM   10  C9  UNL     1      23.066   1.360  51.439  1.00  0.00     0.086 A 
HETATM   11  N3  UNL     1      22.346   2.013  50.435  1.00  0.00    -0.277 N 
HETATM   12  C10 UNL     1      21.816   1.715  49.369  1.00  0.00     0.172 A 
HETATM   13  C11 UNL     1      21.375   3.117  49.161  1.00  0.00     0.141 A 
HETATM   14  O2  UNL     1      21.984   2.896  50.240  1.00  0.00     0.000 OA
HETATM   15  N4  UNL     1      21.080   4.475  49.220  1.00  0.00    -0.283 NA
HETATM   16  C12 UNL     1      21.097   5.302  50.176  1.00  0.00     0.112 C 
HETATM   17  C13 UNL     1      21.074   6.371  51.202  1.00  0.00     0.032 C 
HETATM   18  C14 UNL     1      21.514   7.567  50.833  1.00  0.00    -0.008 C 
HETATM   19  C15 UNL     1      21.446   7.684  49.512  1.00  0.00     0.103 C 
HETATM   20  N5  UNL     1      22.743   7.150  49.335  1.00  0.00    -0.359 N 
HETATM   21  C16 UNL     1      23.478   7.546  48.115  1.00  0.00     0.129 C 
HETATM   22  C17 UNL     1      23.797   6.117  47.628  1.00  0.00     0.038 C 
HETATM   23  C18 UNL     1      24.443   5.629  48.902  1.00  0.00     0.025 A 
HETATM   24  C19 UNL     1      25.458   4.725  48.949  1.00  0.00     0.061 A 
HETATM   25  C20 UNL     1      25.963   4.382  50.211  1.00  0.00     0.003 A 
HETATM   26  C21 UNL     1      24.977   5.292  50.479  1.00  0.00     0.069 A 
HETATM   27  C22 UNL     1      24.167   6.084  51.202  1.00  0.00     0.011 A 
HETATM   28  C23 UNL     1      23.760   6.328  49.872  1.00  0.00     0.018 A 
HETATM   29  N6  UNL     1      26.990   3.438  50.595  1.00  0.00    -0.346 N 
HETATM   30  H18 UNL     1      27.852   3.553  50.059  1.00  0.00     0.167 HD
ENDROOT
BRANCH   1  31
HETATM   31  O1  UNL     1      21.750   0.097  52.559  1.00  0.00    -0.354 OA
HETATM   32  C1  UNL     1      20.829   0.614  53.485  1.00  0.00     0.210 C 
ENDBRANCH   1  31
TORSDOF 1
ENDMDL
MODEL 3
REMARK VINA RESULT:      -8.8      2.259      5.427
REMARK  1 active torsions:
REMARK  status: ('A' for Active; 'I' for Inactive)
REMARK    1  A    between atoms: O1_2  and  C2_3 
ROOT
HETATM    1  C2  UNL     1      26.041   3.354  50.776  1.00  0.00     0.098 A 
HETATM    2  C3  UNL     1      26.593   2.158  51.207  1.00  0.00     0.071 A 
HETATM    3  C4  UNL     1      25.846   1.255  51.931  1.00  0.00     0.075 A 
HETATM    4  N1  UNL     1      26.557   0.130  52.231  1.00  0.00    -0.241 NA
HETATM    5  C5  UNL     1      25.915  -0.864  52.920  1.00  0.00     0.236 A 
HETATM    6  N2  UNL     1      24.625  -0.669  53.257  1.00  0.00    -0.224 NA
HETATM    7  C6  UNL     1      23.915   0.422  52.974  1.00  0.00     0.141 A 
HETATM    8  C7  UNL     1      24.552   1.419  52.290  1.00  0.00     0.041 A 
HETATM    9  C8  UNL     1      24.113   2.627  51.817  1.00  0.00     0.052 A 
HETATM   10  C9  UNL     1      24.734   3.644  51.072  1.00  0.00     0.086 A 
HETATM   11  N3  UNL     1      23.626   4.473  50.886  1.00  0.00    -0.277 N 
HETATM   12  C10 UNL     1      23.249   5.573  51.278  1.00  0.00     0.172 A 
HETATM   13  C11 UNL     1      21.996   5.459  50.491  1.00  0.00     0.141 A 
HETATM   14  O2  UNL     1      22.799   4.498  50.370  1.00  0.00     0.000 OA
HETATM   15  N4  UNL     1      20.933   5.105  49.666  1.00  0.00    -0.283 NA
HETATM   16  C12 UNL     1      20.821   4.232  48.759  1.00  0.00     0.112 C 
HETATM   17  C13 UNL     1      20.556   3.252  47.679  1.00  0.00     0.032 C 
HETATM   18  C14 UNL     1      19.365   2.668  47.679  1.00  0.00    -0.008 C 
HETATM   19  C15 UNL     1      18.497   3.410  48.356  1.00  0.00     0.103 C 
HETATM   20  N5  UNL     1      18.813   2.774  49.578  1.00  0.00    -0.359 N 
HETATM   21  C16 UNL     1      17.769   2.765  50.626  1.00  0.00     0.129 C 
HETATM   22  C17 UNL     1      18.639   3.368  51.749  1.00  0.00     0.038 C 
HETATM   23  C18 UNL     1      19.773   2.376  51.655  1.00  0.00     0.025 A 
HETATM   24  C19 UNL     1      20.522   1.967  52.713  1.00  0.00     0.061 A 
HETATM   25  C20 UNL     1      21.534   1.028  52.468  1.00  0.00     0.003 A 
HETATM   26  C21 UNL     1      20.963   1.238  51.241  1.00  0.00     0.069 A 
HETATM   27  C22 UNL     1      20.753   1.111  49.920  1.00  0.00     0.011 A 
HETATM   28  C23 UNL     1      19.782   2.056  50.316  1.00  0.00     0.018 A 
HETATM   29  N6  UNL     1      22.512   0.436  53.354  1.00  0.00    -0.346 N 
HETATM   30  H18 UNL     1      22.095   0.062  54.208  1.00  0.00     0.167 HD
ENDROOT
BRANCH   1  31
HETATM   31  O1  UNL     1      26.429   4.474  50.061  1.00  0.00    -0.354 OA
HETATM   32  C1  UNL     1      27.238   4.352  48.919  1.00  0.00     0.210 C 
ENDBRANCH   1  31
TORSDOF 1
ENDMDL
MODEL 4
REMARK VINA RESULT:      -8.7      1.678      2.435
REMARK  1 active torsions:
REMARK  status: ('A' for Active; 'I' for Inactive)
REMARK    1  A    between atoms: O1_2  and  C2_3 
ROOT
HETATM    1  C2  UNL     1      23.213  -0.484  54.258  1.00  0.00     0.098 A 
HETATM    2  C3  UNL     1      24.476  -0.577  54.822  1.00  0.00     0.071 A 
HETATM    3  C4  UNL     1      25.584  -0.099  54.159  1.00  0.00     0.075 A 
HETATM    4  N1  UNL     1      26.723  -0.254  54.894  1.00  0.00    -0.241 NA
HETATM    5  C5  UNL     1      27.893   0.215  54.359  1.00  0.00     0.236 A 
HETATM    6  N2  UNL     1      27.847   0.797  53.144  1.00  0.00    -0.224 NA
HETATM    7  C6  UNL     1      26.745   0.956  52.412  1.00  0.00     0.141 A 
HETATM    8  C7  UNL     1      25.575   0.487  52.940  1.00  0.00     0.041 A 
HETATM    9  C8  UNL     1      24.286   0.523  52.478  1.00  0.00     0.052 A 
HETATM   10  C9  UNL     1      23.064   0.091  53.022  1.00  0.00     0.086 A 
HETATM   11  N3  UNL     1      22.211   0.578  52.029  1.00  0.00    -0.277 N 
HETATM   12  C10 UNL     1      21.497   0.110  51.147  1.00  0.00     0.172 A 
HETATM   13  C11 UNL     1      21.080   1.469  50.720  1.00  0.00     0.141 A 
HETATM   14  O2  UNL     1      21.853   1.427  51.711  1.00  0.00     0.000 OA
HETATM   15  N4  UNL     1      20.850   2.828  50.537  1.00  0.00    -0.283 NA
HETATM   16  C12 UNL     1      21.060   3.828  51.282  1.00  0.00     0.112 C 
HETATM   17  C13 UNL     1      21.251   5.081  52.050  1.00  0.00     0.032 C 
HETATM   18  C14 UNL     1      21.666   6.143  51.372  1.00  0.00    -0.008 C 
HETATM   19  C15 UNL     1      21.380   5.996  50.084  1.00  0.00     0.103 C 
HETATM   20  N5  UNL     1      22.607   5.345  49.823  1.00  0.00    -0.359 N 
HETATM   21  C16 UNL     1      23.141   5.433  48.446  1.00  0.00     0.129 C 
HETATM   22  C17 UNL     1      23.319   3.917  48.227  1.00  0.00     0.038 C 
HETATM   23  C18 UNL     1      24.152   3.651  49.457  1.00  0.00     0.025 A 
HETATM   24  C19 UNL     1      25.126   2.705  49.534  1.00  0.00     0.061 A 
HETATM   25  C20 UNL     1      25.824   2.587  50.744  1.00  0.00     0.003 A 
HETATM   26  C21 UNL     1      24.932   3.602  50.966  1.00  0.00     0.069 A 
HETATM   27  C22 UNL     1      24.286   4.579  51.623  1.00  0.00     0.011 A 
HETATM   28  C23 UNL     1      23.670   4.578  50.354  1.00  0.00     0.018 A 
HETATM   29  N6  UNL     1      26.865   1.669  51.152  1.00  0.00    -0.346 N 
HETATM   30  H18 UNL     1      27.628   1.612  50.475  1.00  0.00     0.167 HD
ENDROOT
BRANCH   1  31
HETATM   31  O1  UNL     1      21.910  -0.822  54.576  1.00  0.00    -0.354 OA
HETATM   32  C1  UNL     1      21.346  -2.022  54.111  1.00  0.00     0.210 C 
ENDBRANCH   1  31
TORSDOF 1
ENDMDL
MODEL 5
REMARK VINA RESULT:      -8.6      2.294      4.847
REMARK  1 active torsions:
REMARK  status: ('A' for Active; 'I' for Inactive)
REMARK    1  A    between atoms: O1_2  and  C2_3 
ROOT
HETATM    1  C2  UNL     1      25.223   1.032  52.307  1.00  0.00     0.098 A 
HETATM    2  C3  UNL     1      24.714  -0.036  53.028  1.00  0.00     0.071 A 
HETATM    3  C4  UNL     1      23.392  -0.063  53.414  1.00  0.00     0.075 A 
HETATM    4  N1  UNL     1      23.080  -1.211  54.083  1.00  0.00    -0.241 NA
HETATM    5  C5  UNL     1      21.784  -1.377  54.491  1.00  0.00     0.236 A 
HETATM    6  N2  UNL     1      20.900  -0.400  54.207  1.00  0.00    -0.224 NA
HETATM    7  C6  UNL     1      21.186   0.727  53.555  1.00  0.00     0.141 A 
HETATM    8  C7  UNL     1      22.479   0.899  53.149  1.00  0.00     0.041 A 
HETATM    9  C8  UNL     1      23.088   1.901  52.440  1.00  0.00     0.052 A 
HETATM   10  C9  UNL     1      24.400   2.077  51.971  1.00  0.00     0.086 A 
HETATM   11  N3  UNL     1      24.208   3.258  51.251  1.00  0.00    -0.277 N 
HETATM   12  C10 UNL     1      24.537   4.436  51.349  1.00  0.00     0.172 A 
HETATM   13  C11 UNL     1      23.810   4.776  50.100  1.00  0.00     0.141 A 
HETATM   14  O2  UNL     1      23.793   3.560  50.422  1.00  0.00     0.000 OA
HETATM   15  N4  UNL     1      23.074   4.816  48.921  1.00  0.00    -0.283 NA
HETATM   16  C12 UNL     1      22.699   3.905  48.128  1.00  0.00     0.112 C 
HETATM   17  C13 UNL     1      22.197   2.941  47.120  1.00  0.00     0.032 C 
HETATM   18  C14 UNL     1      20.980   3.156  46.638  1.00  0.00    -0.008 C 
HETATM   19  C15 UNL     1      20.648   4.431  46.803  1.00  0.00     0.103 C 
HETATM   20  N5  UNL     1      20.101   4.187  48.084  1.00  0.00    -0.359 N 
HETATM   21  C16 UNL     1      19.051   5.114  48.559  1.00  0.00     0.129 C 
HETATM   22  C17 UNL     1      19.724   5.472  49.900  1.00  0.00     0.038 C 
HETATM   23  C18 UNL     1      19.912   4.058  50.394  1.00  0.00     0.025 A 
HETATM   24  C19 UNL     1      19.865   3.692  51.703  1.00  0.00     0.061 A 
HETATM   25  C20 UNL     1      20.045   2.334  52.003  1.00  0.00     0.003 A 
HETATM   26  C21 UNL     1      20.139   2.393  50.639  1.00  0.00     0.069 A 
HETATM   27  C22 UNL     1      20.297   1.964  49.375  1.00  0.00     0.011 A 
HETATM   28  C23 UNL     1      20.105   3.355  49.227  1.00  0.00     0.018 A 
HETATM   29  N6  UNL     1      20.094   1.643  53.273  1.00  0.00    -0.346 N 
HETATM   30  H18 UNL     1      19.308   1.880  53.881  1.00  0.00     0.167 HD
ENDROOT
BRANCH   1  31
HETATM   31  O1  UNL     1      26.429   1.427  51.754  1.00  0.00    -0.354 OA
HETATM   32  C1  UNL     1      27.411   2.047  52.543  1.00  0.00     0.210 C 
ENDBRANCH   1  31
TORSDOF 1
ENDMDL
MODEL 6
REMARK VINA RESULT:      -8.5     10.373     12.768
REMARK  1 active torsions:
REMARK  status: ('A' for Active; 'I' for Inactive)
REMARK    1  A    between atoms: O1_2  and  C2_3 
ROOT
HETATM    1  C2  UNL     1      33.986   6.315  43.825  1.00  0.00     0.098 A 
HETATM    2  C3  UNL     1      34.472   5.083  44.234  1.00  0.00     0.071 A 
HETATM    3  C4  UNL     1      34.463   4.726  45.563  1.00  0.00     0.075 A 
HETATM    4  N1  UNL     1      34.951   3.466  45.756  1.00  0.00    -0.241 NA
HETATM    5  C5  UNL     1      34.963   2.977  47.035  1.00  0.00     0.236 A 
HETATM    6  N2  UNL     1      34.493   3.767  48.020  1.00  0.00    -0.224 NA
HETATM    7  C6  UNL     1      34.014   4.999  47.852  1.00  0.00     0.141 A 
HETATM    8  C7  UNL     1      34.004   5.494  46.578  1.00  0.00     0.041 A 
HETATM    9  C8  UNL     1      33.554   6.680  46.063  1.00  0.00     0.052 A 
HETATM   10  C9  UNL     1      33.489   7.191  44.755  1.00  0.00     0.086 A 
HETATM   11  N3  UNL     1      32.810   8.380  45.029  1.00  0.00    -0.277 N 
HETATM   12  C10 UNL     1      33.064   9.581  45.031  1.00  0.00     0.172 A 
HETATM   13  C11 UNL     1      31.681   9.904  45.462  1.00  0.00     0.141 A 
HETATM   14  O2  UNL     1      31.916   8.683  45.271  1.00  0.00     0.000 OA
HETATM   15  N4  UNL     1      30.344   9.926  45.847  1.00  0.00    -0.283 NA
HETATM   16  C12 UNL     1      29.429   9.059  45.770  1.00  0.00     0.112 C 
HETATM   17  C13 UNL     1      28.268   8.137  45.740  1.00  0.00     0.032 C 
HETATM   18  C14 UNL     1      27.471   8.141  46.802  1.00  0.00    -0.008 C 
HETATM   19  C15 UNL     1      27.605   9.285  47.462  1.00  0.00     0.103 C 
HETATM   20  N5  UNL     1      28.662   8.778  48.252  1.00  0.00    -0.359 N 
HETATM   21  C16 UNL     1      28.869   9.392  49.581  1.00  0.00     0.129 C 
HETATM   22  C17 UNL     1      30.364   9.723  49.393  1.00  0.00     0.038 C 
HETATM   23  C18 UNL     1      30.812   8.334  49.008  1.00  0.00     0.025 A 
HETATM   24  C19 UNL     1      32.030   7.811  49.309  1.00  0.00     0.061 A 
HETATM   25  C20 UNL     1      32.294   6.498  48.894  1.00  0.00     0.003 A 
HETATM   26  C21 UNL     1      31.018   6.739  48.460  1.00  0.00     0.069 A 
HETATM   27  C22 UNL     1      29.830   6.510  47.876  1.00  0.00     0.011 A 
HETATM   28  C23 UNL     1      29.710   7.834  48.350  1.00  0.00     0.018 A 
HETATM   29  N6  UNL     1      33.484   5.685  49.018  1.00  0.00    -0.346 N 
HETATM   30  H18 UNL     1      33.855   5.672  49.969  1.00  0.00     0.167 HD
ENDROOT
BRANCH   1  31
HETATM   31  O1  UNL     1      33.822   7.023  42.647  1.00  0.00    -0.354 OA
HETATM   32  C1  UNL     1      32.746   6.747  41.788  1.00  0.00     0.210 C 
ENDBRANCH   1  31
TORSDOF 1
ENDMDL
MODEL 7
REMARK VINA RESULT:      -8.5     21.945     25.320
REMARK  1 active torsions:
REMARK  status: ('A' for Active; 'I' for Inactive)
REMARK    1  A    between atoms: O1_2  and  C2_3 
ROOT
HETATM    1  C2  UNL     1      40.830   3.953  70.611  1.00  0.00     0.098 A 
HETATM    2  C3  UNL     1      41.822   4.624  69.915  1.00  0.00     0.071 A 
HETATM    3  C4  UNL     1      42.783   3.934  69.212  1.00  0.00     0.075 A 
HETATM    4  N1  UNL     1      43.647   4.773  68.570  1.00  0.00    -0.241 NA
HETATM    5  C5  UNL     1      44.632   4.209  67.804  1.00  0.00     0.236 A 
HETATM    6  N2  UNL     1      44.687   2.865  67.731  1.00  0.00    -0.224 NA
HETATM    7  C6  UNL     1      43.853   2.029  68.351  1.00  0.00     0.141 A 
HETATM    8  C7  UNL     1      42.871   2.587  69.120  1.00  0.00     0.041 A 
HETATM    9  C8  UNL     1      41.850   2.029  69.843  1.00  0.00     0.052 A 
HETATM   10  C9  UNL     1      40.803   2.582  70.600  1.00  0.00     0.086 A 
HETATM   11  N3  UNL     1      40.128   1.400  70.916  1.00  0.00    -0.277 N 
HETATM   12  C10 UNL     1      39.926   0.719  71.917  1.00  0.00     0.172 A 
HETATM   13  C11 UNL     1      39.135  -0.259  71.129  1.00  0.00     0.141 A 
HETATM   14  O2  UNL     1      39.563   0.733  70.485  1.00  0.00     0.000 OA
HETATM   15  N4  UNL     1      38.443  -0.998  70.175  1.00  0.00    -0.283 NA
HETATM   16  C12 UNL     1      38.029  -0.706  69.017  1.00  0.00     0.112 C 
HETATM   17  C13 UNL     1      37.492  -0.497  67.651  1.00  0.00     0.032 C 
HETATM   18  C14 UNL     1      37.617  -1.504  66.797  1.00  0.00    -0.008 C 
HETATM   19  C15 UNL     1      37.772  -2.643  67.461  1.00  0.00     0.103 C 
HETATM   20  N5  UNL     1      39.178  -2.499  67.503  1.00  0.00    -0.359 N 
HETATM   21  C16 UNL     1      39.981  -3.736  67.617  1.00  0.00     0.129 C 
HETATM   22  C17 UNL     1      40.799  -3.303  68.852  1.00  0.00     0.038 C 
HETATM   23  C18 UNL     1      41.304  -1.997  68.288  1.00  0.00     0.025 A 
HETATM   24  C19 UNL     1      42.514  -1.451  68.586  1.00  0.00     0.061 A 
HETATM   25  C20 UNL     1      42.847  -0.237  67.971  1.00  0.00     0.003 A 
HETATM   26  C21 UNL     1      41.602  -0.531  67.484  1.00  0.00     0.069 A 
HETATM   27  C22 UNL     1      40.470  -0.391  66.773  1.00  0.00     0.011 A 
HETATM   28  C23 UNL     1      40.272  -1.604  67.467  1.00  0.00     0.018 A 
HETATM   29  N6  UNL     1      44.015   0.606  68.107  1.00  0.00    -0.346 N 
HETATM   30  H18 UNL     1      44.889   0.086  68.011  1.00  0.00     0.167 HD
ENDROOT
BRANCH   1  31
HETATM   31  O1  UNL     1      39.735   4.255  71.401  1.00  0.00    -0.354 OA
HETATM   32  C1  UNL     1      39.064   5.481  71.259  1.00  0.00     0.210 C 
ENDBRANCH   1  31
TORSDOF 1
ENDMDL
MODEL 8
REMARK VINA RESULT:      -8.4      2.433      3.929
REMARK  1 active torsions:
REMARK  status: ('A' for Active; 'I' for Inactive)
REMARK    1  A    between atoms: O1_2  and  C2_3 
ROOT
HETATM    1  C2  UNL     1      21.549   1.447  50.127  1.00  0.00     0.098 A 
HETATM    2  C3  UNL     1      22.204   0.963  51.248  1.00  0.00     0.071 A 
HETATM    3  C4  UNL     1      23.458   1.420  51.586  1.00  0.00     0.075 A 
HETATM    4  N1  UNL     1      23.916   0.847  52.737  1.00  0.00    -0.241 NA
HETATM    5  C5  UNL     1      25.142   1.244  53.201  1.00  0.00     0.236 A 
HETATM    6  N2  UNL     1      25.816   2.174  52.496  1.00  0.00    -0.224 NA
HETATM    7  C6  UNL     1      25.385   2.744  51.371  1.00  0.00     0.141 A 
HETATM    8  C7  UNL     1      24.165   2.348  50.901  1.00  0.00     0.041 A 
HETATM    9  C8  UNL     1      23.429   2.752  49.819  1.00  0.00     0.052 A 
HETATM   10  C9  UNL     1      22.156   2.395  49.344  1.00  0.00     0.086 A 
HETATM   11  N3  UNL     1      22.063   3.308  48.291  1.00  0.00    -0.277 N 
HETATM   12  C10 UNL     1      22.065   3.271  47.064  1.00  0.00     0.172 A 
HETATM   13  C11 UNL     1      21.923   4.746  46.988  1.00  0.00     0.141 A 
HETATM   14  O2  UNL     1      21.929   4.264  48.149  1.00  0.00     0.000 OA
HETATM   15  N4  UNL     1      21.779   6.113  47.199  1.00  0.00    -0.283 NA
HETATM   16  C12 UNL     1      21.434   6.779  48.217  1.00  0.00     0.112 C 
HETATM   17  C13 UNL     1      21.046   7.677  49.331  1.00  0.00     0.032 C 
HETATM   18  C14 UNL     1      21.731   8.807  49.457  1.00  0.00    -0.008 C 
HETATM   19  C15 UNL     1      22.302   9.120  48.300  1.00  0.00     0.103 C 
HETATM   20  N5  UNL     1      23.466   8.377  48.602  1.00  0.00    -0.359 N 
HETATM   21  C16 UNL     1      24.724   8.793  47.946  1.00  0.00     0.129 C 
HETATM   22  C17 UNL     1      25.081   7.413  47.356  1.00  0.00     0.038 C 
HETATM   23  C18 UNL     1      25.001   6.635  48.648  1.00  0.00     0.025 A 
HETATM   24  C19 UNL     1      25.774   5.556  48.942  1.00  0.00     0.061 A 
HETATM   25  C20 UNL     1      25.591   4.948  50.191  1.00  0.00     0.003 A 
HETATM   26  C21 UNL     1      24.695   5.983  50.186  1.00  0.00     0.069 A 
HETATM   27  C22 UNL     1      23.730   6.806  50.629  1.00  0.00     0.011 A 
HETATM   28  C23 UNL     1      24.021   7.308  49.343  1.00  0.00     0.018 A 
HETATM   29  N6  UNL     1      26.213   3.780  50.777  1.00  0.00    -0.346 N 
HETATM   30  H18 UNL     1      27.232   3.802  50.713  1.00  0.00     0.167 HD
ENDROOT
BRANCH   1  31
HETATM   31  O1  UNL     1      20.344   1.262  49.473  1.00  0.00    -0.354 OA
HETATM   32  C1  UNL     1      19.127   1.348  50.170  1.00  0.00     0.210 C 
ENDBRANCH   1  31
TORSDOF 1
ENDMDL
MODEL 9
REMARK VINA RESULT:      -7.9      6.405      9.862
REMARK  1 active torsions:
REMARK  status: ('A' for Active; 'I' for Inactive)
REMARK    1  A    between atoms: O1_2  and  C2_3 
ROOT
HETATM    1  C2  UNL     1      24.591   8.036  47.899  1.00  0.00     0.098 A 
HETATM    2  C3  UNL     1      24.449   6.906  48.689  1.00  0.00     0.071 A 
HETATM    3  C4  UNL     1      25.495   6.027  48.860  1.00  0.00     0.075 A 
HETATM    4  N1  UNL     1      25.166   5.001  49.697  1.00  0.00    -0.241 NA
HETATM    5  C5  UNL     1      26.134   4.074  49.978  1.00  0.00     0.236 A 
HETATM    6  N2  UNL     1      27.346   4.232  49.413  1.00  0.00    -0.224 NA
HETATM    7  C6  UNL     1      27.686   5.226  48.593  1.00  0.00     0.141 A 
HETATM    8  C7  UNL     1      26.722   6.152  48.306  1.00  0.00     0.041 A 
HETATM    9  C8  UNL     1      26.749   7.293  47.548  1.00  0.00     0.052 A 
HETATM   10  C9  UNL     1      25.789   8.282  47.278  1.00  0.00     0.086 A 
HETATM   11  N3  UNL     1      26.593   9.157  46.543  1.00  0.00    -0.277 N 
HETATM   12  C10 UNL     1      26.687   9.529  45.377  1.00  0.00     0.172 A 
HETATM   13  C11 UNL     1      27.826  10.417  45.720  1.00  0.00     0.141 A 
HETATM   14  O2  UNL     1      27.317   9.795  46.687  1.00  0.00     0.000 OA
HETATM   15  N4  UNL     1      28.847  11.158  46.305  1.00  0.00    -0.283 NA
HETATM   16  C12 UNL     1      29.098  11.445  47.510  1.00  0.00     0.112 C 
HETATM   17  C13 UNL     1      29.507  11.855  48.875  1.00  0.00     0.032 C 
HETATM   18  C14 UNL     1      30.806  11.840  49.142  1.00  0.00    -0.008 C 
HETATM   19  C15 UNL     1      31.500  11.913  48.012  1.00  0.00     0.103 C 
HETATM   20  N5  UNL     1      31.513  10.508  47.857  1.00  0.00    -0.359 N 
HETATM   21  C16 UNL     1      32.626   9.924  47.080  1.00  0.00     0.129 C 
HETATM   22  C17 UNL     1      31.753   9.126  46.089  1.00  0.00     0.038 C 
HETATM   23  C18 UNL     1      30.939   8.382  47.121  1.00  0.00     0.025 A 
HETATM   24  C19 UNL     1      30.458   7.122  46.953  1.00  0.00     0.061 A 
HETATM   25  C20 UNL     1      29.729   6.559  48.011  1.00  0.00     0.003 A 
HETATM   26  C21 UNL     1      30.078   7.802  48.465  1.00  0.00     0.069 A 
HETATM   27  C22 UNL     1      30.168   8.850  49.302  1.00  0.00     0.011 A 
HETATM   28  C23 UNL     1      30.872   9.284  48.159  1.00  0.00     0.018 A 
HETATM   29  N6  UNL     1      29.061   5.281  48.127  1.00  0.00    -0.346 N 
HETATM   30  H18 UNL     1      29.658   4.498  47.856  1.00  0.00     0.167 HD
ENDROOT
BRANCH   1  31
HETATM   31  O1  UNL     1      23.828   9.115  47.489  1.00  0.00    -0.354 OA
HETATM   32  C1  UNL     1      22.902   8.983  46.442  1.00  0.00     0.210 C 
ENDBRANCH   1  31
TORSDOF 1
ENDMDL
