MODEL 1
REMARK VINA RESULT:      -7.2      0.000      0.000
REMARK  5 active torsions:
REMARK  status: ('A' for Active; 'I' for Inactive)
REMARK    1  A    between atoms: C3_3  and  C4_4 
REMARK       I    between atoms: C4_4  and  N1_6 
REMARK    2  A    between atoms: C6_8  and  S1_23 
REMARK    3  A    between atoms: C9_11  and  C10_12 
REMARK    4  A    between atoms: C10_12  and  N2_13 
REMARK    5  A    between atoms: N2_13  and  C11_14 
ROOT
HETATM    1  C1  UNL     1      26.428   2.956  49.709  1.00  0.00     0.112 C 
HETATM    2  C2  UNL     1      26.320   4.413  49.473  1.00  0.00    -0.101 C 
HETATM    3  C3  UNL     1      26.247   5.624  49.287  1.00  0.00    -0.006 C 
ENDROOT
BRANCH   3   4
HETATM    4  C4  UNL     1      26.183   7.021  49.087  1.00  0.00     0.299 C 
HETATM    5  O1  UNL     1      25.241   7.651  49.668  1.00  0.00    -0.258 OA
HETATM    6  N1  UNL     1      27.197   7.559  48.245  1.00  0.00    -0.327 N 
HETATM    7  C5  UNL     1      28.346   6.726  47.548  1.00  0.00     0.173 C 
HETATM    8  C9  UNL     1      27.321   9.015  47.897  1.00  0.00     0.154 C 
HETATM    9  C6  UNL     1      29.112   8.060  47.278  1.00  0.00     0.004 C 
HETATM   10  C7  UNL     1      28.930   8.346  45.942  1.00  0.00    -0.008 C 
HETATM   11  C8  UNL     1      27.634   9.029  46.443  1.00  0.00     0.058 C 
BRANCH   9  12
HETATM   12  S1  UNL     1      29.926   9.465  48.235  1.00  0.00    -0.065 SA
HETATM   13  C18 UNL     1      31.359   8.785  49.393  1.00  0.00     0.160 C 
HETATM   14  C10 UNL     1      31.934   8.144  48.075  1.00  0.00     0.281 C 
HETATM   15  N4  UNL     1      32.369   9.336  47.482  1.00  0.00    -0.238 NA
HETATM   16  C19 UNL     1      32.029  10.629  47.489  1.00  0.00     0.238 C 
HETATM   17  N3  UNL     1      30.583  10.861  47.912  1.00  0.00    -0.216 NA
BRANCH  14  18
HETATM   18  N2  UNL     1      33.161   7.526  48.623  1.00  0.00     0.124 N 
HETATM   19  H10 UNL     1      33.332   7.860  49.598  1.00  0.00     0.320 HD
BRANCH  18  20
HETATM   20  C11 UNL     1      33.176   6.110  48.652  1.00  0.00     0.247 C 
HETATM   21  C12 UNL     1      32.579   5.646  47.300  1.00  0.00     0.041 C 
HETATM   22  C13 UNL     1      31.844   4.343  47.486  1.00  0.00     0.029 C 
HETATM   23  C14 UNL     1      32.519   3.287  46.686  1.00  0.00    -0.028 C 
HETATM   24  C15 UNL     1      33.800   2.884  46.765  1.00  0.00    -0.005 C 
HETATM   25  C16 UNL     1      34.798   3.473  47.729  1.00  0.00     0.194 C 
HETATM   26  O2  UNL     1      34.876   4.829  47.477  1.00  0.00    -0.385 OA
HETATM   27  C17 UNL     1      34.624   5.598  48.642  1.00  0.00     0.203 C 
ENDBRANCH  18  20
ENDBRANCH  14  18
ENDBRANCH   9  12
ENDBRANCH   3   4
TORSDOF 5
ENDMDL
MODEL 2
REMARK VINA RESULT:      -6.9      1.507      6.531
REMARK  5 active torsions:
REMARK  status: ('A' for Active; 'I' for Inactive)
REMARK    1  A    between atoms: C3_3  and  C4_4 
REMARK       I    between atoms: C4_4  and  N1_6 
REMARK    2  A    between atoms: C6_8  and  S1_23 
REMARK    3  A    between atoms: C9_11  and  C10_12 
REMARK    4  A    between atoms: C10_12  and  N2_13 
REMARK    5  A    between atoms: N2_13  and  C11_14 
ROOT
HETATM    1  C1  UNL     1      32.067   0.693  46.917  1.00  0.00     0.112 C 
HETATM    2  C2  UNL     1      32.649   2.043  46.744  1.00  0.00    -0.101 C 
HETATM    3  C3  UNL     1      33.150   3.154  46.601  1.00  0.00    -0.006 C 
ENDROOT
BRANCH   3   4
HETATM    4  C4  UNL     1      33.749   4.424  46.438  1.00  0.00     0.299 C 
HETATM    5  O1  UNL     1      34.774   4.494  45.685  1.00  0.00    -0.258 OA
HETATM    6  N1  UNL     1      33.119   5.485  47.149  1.00  0.00    -0.327 N 
HETATM    7  C5  UNL     1      31.845   5.339  48.072  1.00  0.00     0.173 C 
HETATM    8  C9  UNL     1      33.585   6.913  47.120  1.00  0.00     0.154 C 
HETATM    9  C6  UNL     1      31.663   6.890  48.020  1.00  0.00     0.004 C 
HETATM   10  C7  UNL     1      32.108   7.371  49.232  1.00  0.00    -0.008 C 
HETATM   11  C8  UNL     1      33.487   7.369  48.532  1.00  0.00     0.058 C 
BRANCH   9  12
HETATM   12  S1  UNL     1      31.307   8.250  46.765  1.00  0.00    -0.065 SA
HETATM   13  C18 UNL     1      29.414   8.242  46.242  1.00  0.00     0.160 C 
HETATM   14  C10 UNL     1      29.128   8.347  47.787  1.00  0.00     0.281 C 
HETATM   15  N4  UNL     1      29.539   9.675  47.947  1.00  0.00    -0.238 NA
HETATM   16  C19 UNL     1      30.409  10.519  47.382  1.00  0.00     0.238 C 
HETATM   17  N3  UNL     1      31.536   9.805  46.643  1.00  0.00    -0.216 NA
BRANCH  14  18
HETATM   18  N2  UNL     1      27.650   8.410  47.754  1.00  0.00     0.124 N 
HETATM   19  H10 UNL     1      27.329   8.976  46.937  1.00  0.00     0.320 HD
BRANCH  18  20
HETATM   20  C11 UNL     1      26.982   7.163  47.694  1.00  0.00     0.247 C 
HETATM   21  C12 UNL     1      27.495   6.341  48.903  1.00  0.00     0.041 C 
HETATM   22  C13 UNL     1      27.511   4.875  48.554  1.00  0.00     0.029 C 
HETATM   23  C14 UNL     1      26.556   4.156  49.439  1.00  0.00    -0.028 C 
HETATM   24  C15 UNL     1      25.238   4.381  49.584  1.00  0.00    -0.005 C 
HETATM   25  C16 UNL     1      24.490   5.452  48.833  1.00  0.00     0.194 C 
HETATM   26  O2  UNL     1      25.082   6.664  49.128  1.00  0.00    -0.385 OA
HETATM   27  C17 UNL     1      25.481   7.356  47.955  1.00  0.00     0.203 C 
ENDBRANCH  18  20
ENDBRANCH  14  18
ENDBRANCH   9  12
ENDBRANCH   3   4
TORSDOF 5
ENDMDL
MODEL 3
REMARK VINA RESULT:      -6.9      7.034     10.542
REMARK  5 active torsions:
REMARK  status: ('A' for Active; 'I' for Inactive)
REMARK    1  A    between atoms: C3_3  and  C4_4 
REMARK       I    between atoms: C4_4  and  N1_6 
REMARK    2  A    between atoms: C6_8  and  S1_23 
REMARK    3  A    between atoms: C9_11  and  C10_12 
REMARK    4  A    between atoms: C10_12  and  N2_13 
REMARK    5  A    between atoms: N2_13  and  C11_14 
ROOT
HETATM    1  C1  UNL     1      19.392   2.268  49.233  1.00  0.00     0.112 C 
HETATM    2  C2  UNL     1      20.468   3.118  49.789  1.00  0.00    -0.101 C 
HETATM    3  C3  UNL     1      21.373   3.818  50.236  1.00  0.00    -0.006 C 
ENDROOT
BRANCH   3   4
HETATM    4  C4  UNL     1      22.428   4.615  50.732  1.00  0.00     0.299 C 
HETATM    5  O1  UNL     1      22.114   5.705  51.311  1.00  0.00    -0.258 OA
HETATM    6  N1  UNL     1      23.735   4.091  50.518  1.00  0.00    -0.327 N 
HETATM    7  C5  UNL     1      24.066   2.728  49.790  1.00  0.00     0.173 C 
HETATM    8  C9  UNL     1      24.999   4.770  50.961  1.00  0.00     0.154 C 
HETATM    9  C6  UNL     1      25.508   2.790  50.388  1.00  0.00     0.004 C 
HETATM   10  C7  UNL     1      26.336   3.187  49.360  1.00  0.00    -0.008 C 
HETATM   11  C8  UNL     1      25.934   4.610  49.816  1.00  0.00     0.058 C 
BRANCH   9  12
HETATM   12  S1  UNL     1      26.366   2.765  52.066  1.00  0.00    -0.065 SA
HETATM   13  C18 UNL     1      25.310   1.756  53.378  1.00  0.00     0.160 C 
HETATM   14  C10 UNL     1      25.366   0.589  52.322  1.00  0.00     0.281 C 
HETATM   15  N4  UNL     1      26.717   0.267  52.496  1.00  0.00    -0.238 NA
HETATM   16  C19 UNL     1      27.848   0.888  52.849  1.00  0.00     0.238 C 
HETATM   17  N3  UNL     1      27.789   2.396  52.636  1.00  0.00    -0.216 NA
BRANCH  14  18
HETATM   18  N2  UNL     1      24.630  -0.451  53.073  1.00  0.00     0.124 N 
HETATM   19  H10 UNL     1      25.181  -0.755  53.907  1.00  0.00     0.320 HD
BRANCH  18  20
HETATM   20  C11 UNL     1      23.340  -0.084  53.529  1.00  0.00     0.247 C 
HETATM   21  C12 UNL     1      22.424  -0.094  52.279  1.00  0.00     0.041 C 
HETATM   22  C13 UNL     1      21.347   0.951  52.427  1.00  0.00     0.029 C 
HETATM   23  C14 UNL     1      20.021   0.278  52.468  1.00  0.00    -0.028 C 
HETATM   24  C15 UNL     1      19.601  -0.662  53.333  1.00  0.00    -0.005 C 
HETATM   25  C16 UNL     1      20.454  -1.204  54.451  1.00  0.00     0.194 C 
HETATM   26  O2  UNL     1      21.595  -1.740  53.886  1.00  0.00    -0.385 OA
HETATM   27  C17 UNL     1      22.773  -1.179  54.444  1.00  0.00     0.203 C 
ENDBRANCH  18  20
ENDBRANCH  14  18
ENDBRANCH   9  12
ENDBRANCH   3   4
TORSDOF 5
ENDMDL
MODEL 4
REMARK VINA RESULT:      -6.9      7.137      9.904
REMARK  5 active torsions:
REMARK  status: ('A' for Active; 'I' for Inactive)
REMARK    1  A    between atoms: C3_3  and  C4_4 
REMARK       I    between atoms: C4_4  and  N1_6 
REMARK    2  A    between atoms: C6_8  and  S1_23 
REMARK    3  A    between atoms: C9_11  and  C10_12 
REMARK    4  A    between atoms: C10_12  and  N2_13 
REMARK    5  A    between atoms: N2_13  and  C11_14 
ROOT
HETATM    1  C1  UNL     1      18.186  -0.379  51.981  1.00  0.00     0.112 C 
HETATM    2  C2  UNL     1      18.390   0.758  51.056  1.00  0.00    -0.101 C 
HETATM    3  C3  UNL     1      18.576   1.693  50.283  1.00  0.00    -0.006 C 
ENDROOT
BRANCH   3   4
HETATM    4  C4  UNL     1      18.812   2.760  49.387  1.00  0.00     0.299 C 
HETATM    5  O1  UNL     1      17.833   3.532  49.128  1.00  0.00    -0.258 OA
HETATM    6  N1  UNL     1      20.140   2.839  48.876  1.00  0.00    -0.327 N 
HETATM    7  C5  UNL     1      21.318   1.849  49.235  1.00  0.00     0.173 C 
HETATM    8  C9  UNL     1      20.612   3.890  47.913  1.00  0.00     0.154 C 
HETATM    9  C6  UNL     1      22.330   2.886  48.650  1.00  0.00     0.004 C 
HETATM   10  C7  UNL     1      22.708   2.402  47.416  1.00  0.00    -0.008 C 
HETATM   11  C8  UNL     1      21.444   3.151  46.928  1.00  0.00     0.058 C 
BRANCH   9  12
HETATM   12  S1  UNL     1      22.937   4.640  48.980  1.00  0.00    -0.065 SA
HETATM   13  C18 UNL     1      23.291   4.911  50.892  1.00  0.00     0.160 C 
HETATM   14  C10 UNL     1      24.221   3.647  50.759  1.00  0.00     0.281 C 
HETATM   15  N4  UNL     1      25.242   4.265  50.027  1.00  0.00    -0.238 NA
HETATM   16  C19 UNL     1      25.368   5.268  49.151  1.00  0.00     0.238 C 
HETATM   17  N3  UNL     1      24.063   5.599  48.436  1.00  0.00    -0.216 NA
BRANCH  14  18
HETATM   18  N2  UNL     1      24.737   3.582  52.145  1.00  0.00     0.124 N 
HETATM   19  H10 UNL     1      24.613   4.502  52.622  1.00  0.00     0.320 HD
BRANCH  18  20
HETATM   20  C11 UNL     1      24.152   2.593  52.973  1.00  0.00     0.247 C 
HETATM   21  C12 UNL     1      23.156   1.816  52.076  1.00  0.00     0.041 C 
HETATM   22  C13 UNL     1      21.989   1.338  52.903  1.00  0.00     0.029 C 
HETATM   23  C14 UNL     1      21.973  -0.149  52.906  1.00  0.00    -0.028 C 
HETATM   24  C15 UNL     1      22.947  -0.983  53.312  1.00  0.00    -0.005 C 
HETATM   25  C16 UNL     1      24.271  -0.512  53.855  1.00  0.00     0.194 C 
HETATM   26  O2  UNL     1      24.869   0.271  52.886  1.00  0.00    -0.385 OA
HETATM   27  C17 UNL     1      25.208   1.556  53.382  1.00  0.00     0.203 C 
ENDBRANCH  18  20
ENDBRANCH  14  18
ENDBRANCH   9  12
ENDBRANCH   3   4
TORSDOF 5
ENDMDL
MODEL 5
REMARK VINA RESULT:      -6.8      7.099      9.628
REMARK  5 active torsions:
REMARK  status: ('A' for Active; 'I' for Inactive)
REMARK    1  A    between atoms: C3_3  and  C4_4 
REMARK       I    between atoms: C4_4  and  N1_6 
REMARK    2  A    between atoms: C6_8  and  S1_23 
REMARK    3  A    between atoms: C9_11  and  C10_12 
REMARK    4  A    between atoms: C10_12  and  N2_13 
REMARK    5  A    between atoms: N2_13  and  C11_14 
ROOT
HETATM    1  C1  UNL     1      26.138   8.585  50.302  1.00  0.00     0.112 C 
HETATM    2  C2  UNL     1      25.075   7.702  49.773  1.00  0.00    -0.101 C 
HETATM    3  C3  UNL     1      24.191   6.961  49.352  1.00  0.00    -0.006 C 
ENDROOT
BRANCH   3   4
HETATM    4  C4  UNL     1      23.173   6.098  48.888  1.00  0.00     0.299 C 
HETATM    5  O1  UNL     1      22.846   6.186  47.661  1.00  0.00    -0.258 OA
HETATM    6  N1  UNL     1      22.628   5.222  49.871  1.00  0.00    -0.327 N 
HETATM    7  C5  UNL     1      23.074   5.157  51.386  1.00  0.00     0.173 C 
HETATM    8  C9  UNL     1      21.540   4.224  49.601  1.00  0.00     0.154 C 
HETATM    9  C6  UNL     1      22.353   3.777  51.510  1.00  0.00     0.004 C 
HETATM   10  C7  UNL     1      21.175   4.017  52.185  1.00  0.00    -0.008 C 
HETATM   11  C8  UNL     1      20.630   4.333  50.771  1.00  0.00     0.058 C 
BRANCH   9  12
HETATM   12  S1  UNL     1      22.464   2.032  50.806  1.00  0.00    -0.065 SA
HETATM   13  C18 UNL     1      24.043   1.095  51.502  1.00  0.00     0.160 C 
HETATM   14  C10 UNL     1      23.463   1.457  52.920  1.00  0.00     0.281 C 
HETATM   15  N4  UNL     1      22.388   0.560  52.898  1.00  0.00    -0.238 NA
HETATM   16  C19 UNL     1      21.590  -0.010  51.989  1.00  0.00     0.238 C 
HETATM   17  N3  UNL     1      21.528   0.770  50.680  1.00  0.00    -0.216 NA
BRANCH  14  18
HETATM   18  N2  UNL     1      24.482   0.803  53.771  1.00  0.00     0.124 N 
HETATM   19  H10 UNL     1      24.160  -0.148  54.057  1.00  0.00     0.320 HD
BRANCH  18  20
HETATM   20  C11 UNL     1      25.766   0.660  53.191  1.00  0.00     0.247 C 
HETATM   21  C12 UNL     1      26.741   1.442  54.106  1.00  0.00     0.041 C 
HETATM   22  C13 UNL     1      27.866   2.015  53.282  1.00  0.00     0.029 C 
HETATM   23  C14 UNL     1      29.148   1.401  53.719  1.00  0.00    -0.028 C 
HETATM   24  C15 UNL     1      29.472   0.097  53.741  1.00  0.00    -0.005 C 
HETATM   25  C16 UNL     1      28.535  -1.000  53.302  1.00  0.00     0.194 C 
HETATM   26  O2  UNL     1      27.395  -0.913  54.077  1.00  0.00    -0.385 OA
HETATM   27  C17 UNL     1      26.225  -0.804  53.283  1.00  0.00     0.203 C 
ENDBRANCH  18  20
ENDBRANCH  14  18
ENDBRANCH   9  12
ENDBRANCH   3   4
TORSDOF 5
ENDMDL
MODEL 6
REMARK VINA RESULT:      -6.7      2.656      3.837
REMARK  5 active torsions:
REMARK  status: ('A' for Active; 'I' for Inactive)
REMARK    1  A    between atoms: C3_3  and  C4_4 
REMARK       I    between atoms: C4_4  and  N1_6 
REMARK    2  A    between atoms: C6_8  and  S1_23 
REMARK    3  A    between atoms: C9_11  and  C10_12 
REMARK    4  A    between atoms: C10_12  and  N2_13 
REMARK    5  A    between atoms: N2_13  and  C11_14 
ROOT
HETATM    1  C1  UNL     1      24.198   2.222  51.464  1.00  0.00     0.112 C 
HETATM    2  C2  UNL     1      23.773   3.591  51.097  1.00  0.00    -0.101 C 
HETATM    3  C3  UNL     1      23.402   4.721  50.793  1.00  0.00    -0.006 C 
ENDROOT
BRANCH   3   4
HETATM    4  C4  UNL     1      22.952   6.014  50.442  1.00  0.00     0.299 C 
HETATM    5  O1  UNL     1      21.854   6.408  50.950  1.00  0.00    -0.258 OA
HETATM    6  N1  UNL     1      23.800   6.727  49.546  1.00  0.00    -0.327 N 
HETATM    7  C5  UNL     1      25.157   6.185  48.944  1.00  0.00     0.173 C 
HETATM    8  C9  UNL     1      23.519   8.112  49.041  1.00  0.00     0.154 C 
HETATM    9  C6  UNL     1      25.525   7.646  48.530  1.00  0.00     0.004 C 
HETATM   10  C7  UNL     1      25.310   7.727  47.171  1.00  0.00    -0.008 C 
HETATM   11  C8  UNL     1      23.860   8.063  47.595  1.00  0.00     0.058 C 
BRANCH   9  12
HETATM   12  S1  UNL     1      25.880   9.316  49.329  1.00  0.00    -0.065 SA
HETATM   13  C18 UNL     1      27.543   9.254  50.372  1.00  0.00     0.160 C 
HETATM   14  C10 UNL     1      28.200   8.738  49.037  1.00  0.00     0.281 C 
HETATM   15  N4  UNL     1      28.154   9.954  48.344  1.00  0.00    -0.238 NA
HETATM   16  C19 UNL     1      27.394  11.054  48.319  1.00  0.00     0.238 C 
HETATM   17  N3  UNL     1      25.992  10.820  48.871  1.00  0.00    -0.216 NA
BRANCH  14  18
HETATM   18  N2  UNL     1      29.602   8.615  49.491  1.00  0.00     0.124 N 
HETATM   19  H10 UNL     1      29.640   8.171  50.436  1.00  0.00     0.320 HD
BRANCH  18  20
HETATM   20  C11 UNL     1      30.461   7.875  48.642  1.00  0.00     0.247 C 
HETATM   21  C12 UNL     1      31.647   7.414  49.526  1.00  0.00     0.041 C 
HETATM   22  C13 UNL     1      32.904   7.339  48.696  1.00  0.00     0.029 C 
HETATM   23  C14 UNL     1      33.373   5.928  48.654  1.00  0.00    -0.028 C 
HETATM   24  C15 UNL     1      32.700   4.848  48.218  1.00  0.00    -0.005 C 
HETATM   25  C16 UNL     1      31.295   4.908  47.676  1.00  0.00     0.194 C 
HETATM   26  O2  UNL     1      30.487   5.444  48.660  1.00  0.00    -0.385 OA
HETATM   27  C17 UNL     1      29.772   6.577  48.196  1.00  0.00     0.203 C 
ENDBRANCH  18  20
ENDBRANCH  14  18
ENDBRANCH   9  12
ENDBRANCH   3   4
TORSDOF 5
ENDMDL
MODEL 7
REMARK VINA RESULT:      -6.4      2.339      2.937
REMARK  5 active torsions:
REMARK  status: ('A' for Active; 'I' for Inactive)
REMARK    1  A    between atoms: C3_3  and  C4_4 
REMARK       I    between atoms: C4_4  and  N1_6 
REMARK    2  A    between atoms: C6_8  and  S1_23 
REMARK    3  A    between atoms: C9_11  and  C10_12 
REMARK    4  A    between atoms: C10_12  and  N2_13 
REMARK    5  A    between atoms: N2_13  and  C11_14 
ROOT
HETATM    1  C1  UNL     1      28.033   5.096  48.582  1.00  0.00     0.112 C 
HETATM    2  C2  UNL     1      28.308   6.508  48.235  1.00  0.00    -0.101 C 
HETATM    3  C3  UNL     1      28.549   7.673  47.934  1.00  0.00    -0.006 C 
ENDROOT
BRANCH   3   4
HETATM    4  C4  UNL     1      28.844   9.008  47.573  1.00  0.00     0.299 C 
HETATM    5  O1  UNL     1      28.317   9.932  48.273  1.00  0.00    -0.258 OA
HETATM    6  N1  UNL     1      29.708   9.154  46.450  1.00  0.00    -0.327 N 
HETATM    7  C5  UNL     1      30.333   7.965  45.617  1.00  0.00     0.173 C 
HETATM    8  C9  UNL     1      30.152  10.476  45.894  1.00  0.00     0.154 C 
HETATM    9  C6  UNL     1      31.355   8.973  44.998  1.00  0.00     0.004 C 
HETATM   10  C7  UNL     1      30.913   9.233  43.719  1.00  0.00    -0.008 C 
HETATM   11  C8  UNL     1      30.056  10.315  44.419  1.00  0.00     0.058 C 
BRANCH   9  12
HETATM   12  S1  UNL     1      32.767  10.097  45.541  1.00  0.00    -0.065 SA
HETATM   13  C18 UNL     1      33.721   9.331  47.077  1.00  0.00     0.160 C 
HETATM   14  C10 UNL     1      33.885   8.057  46.166  1.00  0.00     0.281 C 
HETATM   15  N4  UNL     1      34.826   8.599  45.283  1.00  0.00    -0.238 NA
HETATM   16  C19 UNL     1      35.153   9.801  44.795  1.00  0.00     0.238 C 
HETATM   17  N3  UNL     1      34.008  10.805  44.874  1.00  0.00    -0.216 NA
BRANCH  14  18
HETATM   18  N2  UNL     1      34.673   7.205  47.083  1.00  0.00     0.124 N 
HETATM   19  H10 UNL     1      35.012   7.764  47.897  1.00  0.00     0.320 HD
BRANCH  18  20
HETATM   20  C11 UNL     1      34.001   6.070  47.599  1.00  0.00     0.247 C 
HETATM   21  C12 UNL     1      33.242   5.440  46.405  1.00  0.00     0.041 C 
HETATM   22  C13 UNL     1      31.969   4.794  46.892  1.00  0.00     0.029 C 
HETATM   23  C14 UNL     1      32.042   3.330  46.639  1.00  0.00    -0.028 C 
HETATM   24  C15 UNL     1      32.968   2.462  47.081  1.00  0.00    -0.005 C 
HETATM   25  C16 UNL     1      34.135   2.861  47.947  1.00  0.00     0.194 C 
HETATM   26  O2  UNL     1      34.858   3.819  47.262  1.00  0.00    -0.385 OA
HETATM   27  C17 UNL     1      35.020   5.003  48.027  1.00  0.00     0.203 C 
ENDBRANCH  18  20
ENDBRANCH  14  18
ENDBRANCH   9  12
ENDBRANCH   3   4
TORSDOF 5
ENDMDL
MODEL 8
REMARK VINA RESULT:      -6.4      6.580     10.335
REMARK  5 active torsions:
REMARK  status: ('A' for Active; 'I' for Inactive)
REMARK    1  A    between atoms: C3_3  and  C4_4 
REMARK       I    between atoms: C4_4  and  N1_6 
REMARK    2  A    between atoms: C6_8  and  S1_23 
REMARK    3  A    between atoms: C9_11  and  C10_12 
REMARK    4  A    between atoms: C10_12  and  N2_13 
REMARK    5  A    between atoms: N2_13  and  C11_14 
ROOT
HETATM    1  C1  UNL     1      27.603   4.519  48.581  1.00  0.00     0.112 C 
HETATM    2  C2  UNL     1      26.784   3.842  49.612  1.00  0.00    -0.101 C 
HETATM    3  C3  UNL     1      26.118   3.288  50.481  1.00  0.00    -0.006 C 
ENDROOT
BRANCH   3   4
HETATM    4  C4  UNL     1      25.366   2.657  51.498  1.00  0.00     0.299 C 
HETATM    5  O1  UNL     1      25.943   2.463  52.616  1.00  0.00    -0.258 OA
HETATM    6  N1  UNL     1      24.032   2.311  51.138  1.00  0.00    -0.327 N 
HETATM    7  C5  UNL     1      23.367   2.577  49.729  1.00  0.00     0.173 C 
HETATM    8  C9  UNL     1      23.058   1.636  52.059  1.00  0.00     0.154 C 
HETATM    9  C6  UNL     1      21.966   2.322  50.373  1.00  0.00     0.004 C 
HETATM   10  C7  UNL     1      21.582   1.060  49.974  1.00  0.00    -0.008 C 
HETATM   11  C8  UNL     1      22.390   0.610  51.215  1.00  0.00     0.058 C 
BRANCH   9  12
HETATM   12  S1  UNL     1      20.837   3.063  51.688  1.00  0.00    -0.065 SA
HETATM   13  C18 UNL     1      21.016   5.018  51.745  1.00  0.00     0.160 C 
HETATM   14  C10 UNL     1      20.685   4.956  50.207  1.00  0.00     0.281 C 
HETATM   15  N4  UNL     1      19.330   4.629  50.337  1.00  0.00    -0.238 NA
HETATM   16  C19 UNL     1      18.544   3.981  51.205  1.00  0.00     0.238 C 
HETATM   17  N3  UNL     1      19.311   2.995  52.079  1.00  0.00    -0.216 NA
BRANCH  14  18
HETATM   18  N2  UNL     1      20.697   6.403  49.899  1.00  0.00     0.124 N 
HETATM   19  H10 UNL     1      20.165   6.932  50.626  1.00  0.00     0.320 HD
BRANCH  18  20
HETATM   20  C11 UNL     1      21.977   6.999  49.793  1.00  0.00     0.247 C 
HETATM   21  C12 UNL     1      22.692   6.275  48.624  1.00  0.00     0.041 C 
HETATM   22  C13 UNL     1      24.175   6.222  48.888  1.00  0.00     0.029 C 
HETATM   23  C14 UNL     1      24.882   7.002  47.837  1.00  0.00    -0.028 C 
HETATM   24  C15 UNL     1      24.715   8.297  47.519  1.00  0.00    -0.005 C 
HETATM   25  C16 UNL     1      23.733   9.204  48.217  1.00  0.00     0.194 C 
HETATM   26  O2  UNL     1      22.476   8.649  48.078  1.00  0.00    -0.385 OA
HETATM   27  C17 UNL     1      21.842   8.458  49.333  1.00  0.00     0.203 C 
ENDBRANCH  18  20
ENDBRANCH  14  18
ENDBRANCH   9  12
ENDBRANCH   3   4
TORSDOF 5
ENDMDL
MODEL 9
REMARK VINA RESULT:      -6.3      5.609      8.736
REMARK  5 active torsions:
REMARK  status: ('A' for Active; 'I' for Inactive)
REMARK    1  A    between atoms: C3_3  and  C4_4 
REMARK       I    between atoms: C4_4  and  N1_6 
REMARK    2  A    between atoms: C6_8  and  S1_23 
REMARK    3  A    between atoms: C9_11  and  C10_12 
REMARK    4  A    between atoms: C10_12  and  N2_13 
REMARK    5  A    between atoms: N2_13  and  C11_14 
ROOT
HETATM    1  C1  UNL     1      22.762   8.136  44.255  1.00  0.00     0.112 C 
HETATM    2  C2  UNL     1      22.389   6.779  44.713  1.00  0.00    -0.101 C 
HETATM    3  C3  UNL     1      22.096   5.646  45.083  1.00  0.00    -0.006 C 
ENDROOT
BRANCH   3   4
HETATM    4  C4  UNL     1      21.777   4.333  45.496  1.00  0.00     0.299 C 
HETATM    5  O1  UNL     1      21.694   3.439  44.593  1.00  0.00    -0.258 OA
HETATM    6  N1  UNL     1      21.582   4.171  46.898  1.00  0.00    -0.327 N 
HETATM    7  C5  UNL     1      21.698   5.320  47.977  1.00  0.00     0.173 C 
HETATM    8  C9  UNL     1      21.237   2.866  47.557  1.00  0.00     0.154 C 
HETATM    9  C6  UNL     1      21.779   4.228  49.091  1.00  0.00     0.004 C 
HETATM   10  C7  UNL     1      20.541   4.203  49.697  1.00  0.00    -0.008 C 
HETATM   11  C8  UNL     1      20.195   3.214  48.558  1.00  0.00     0.058 C 
BRANCH   9  12
HETATM   12  S1  UNL     1      22.903   2.818  49.637  1.00  0.00    -0.065 SA
HETATM   13  C18 UNL     1      24.793   3.319  49.459  1.00  0.00     0.160 C 
HETATM   14  C10 UNL     1      24.407   4.558  50.351  1.00  0.00     0.281 C 
HETATM   15  N4  UNL     1      24.244   3.858  51.552  1.00  0.00    -0.238 NA
HETATM   16  C19 UNL     1      23.889   2.630  51.945  1.00  0.00     0.238 C 
HETATM   17  N3  UNL     1      23.067   1.886  50.899  1.00  0.00    -0.216 NA
BRANCH  14  18
HETATM   18  N2  UNL     1      25.737   5.197  50.463  1.00  0.00     0.124 N 
HETATM   19  H10 UNL     1      26.477   4.563  50.089  1.00  0.00     0.320 HD
BRANCH  18  20
HETATM   20  C11 UNL     1      25.877   6.445  49.808  1.00  0.00     0.247 C 
HETATM   21  C12 UNL     1      26.823   6.196  48.607  1.00  0.00     0.041 C 
HETATM   22  C13 UNL     1      27.637   7.435  48.333  1.00  0.00     0.029 C 
HETATM   23  C14 UNL     1      27.293   7.951  46.981  1.00  0.00    -0.028 C 
HETATM   24  C15 UNL     1      26.085   8.319  46.522  1.00  0.00    -0.005 C 
HETATM   25  C16 UNL     1      24.828   8.262  47.352  1.00  0.00     0.194 C 
HETATM   26  O2  UNL     1      24.657   6.956  47.767  1.00  0.00    -0.385 OA
HETATM   27  C17 UNL     1      24.539   6.862  49.178  1.00  0.00     0.203 C 
ENDBRANCH  18  20
ENDBRANCH  14  18
ENDBRANCH   9  12
ENDBRANCH   3   4
TORSDOF 5
ENDMDL
