MODEL 1
REMARK VINA RESULT:      -7.4      0.000      0.000
REMARK  4 active torsions:
REMARK  status: ('A' for Active; 'I' for Inactive)
REMARK    1  A    between atoms: C2_2  and  C3_4 
REMARK       I    between atoms: C3_4  and  N1_6 
REMARK       I    between atoms: N1_6  and  C4_7 
REMARK    2  A    between atoms: C4_7  and  C5_9 
REMARK    3  A    between atoms: C9_13  and  S1_14 
REMARK    4  A    between atoms: S1_14  and  C10_15 
ROOT
HETATM    1  C5  UNL     1      21.647   1.376  51.382  1.00  0.00     0.252 A 
HETATM    2  C6  UNL     1      21.090   0.461  50.315  1.00  0.00     0.064 C 
HETATM    3  C7  UNL     1      22.846   2.090  50.868  1.00  0.00     0.025 A 
HETATM    4  C8  UNL     1      24.095   1.985  51.285  1.00  0.00     0.017 A 
HETATM    5  C9  UNL     1      25.147   1.454  52.137  1.00  0.00     0.003 A 
HETATM    6  C11 UNL     1      25.141   0.576  53.126  1.00  0.00     0.018 A 
HETATM    7  C12 UNL     1      24.621  -0.374  54.071  1.00  0.00     0.005 A 
HETATM    8  C13 UNL     1      23.394  -0.853  54.314  1.00  0.00     0.052 A 
HETATM    9  C14 UNL     1      21.923  -1.024  54.153  1.00  0.00     0.177 A 
HETATM   10  O5  UNL     1      20.958  -1.687  54.666  1.00  0.00    -0.291 OA
HETATM   11  C15 UNL     1      21.147  -0.264  53.105  1.00  0.00     0.354 A 
HETATM   12  N2  UNL     1      22.135   0.627  52.524  1.00  0.00     0.113 N 
HETATM   13  H16 UNL     1      22.436   1.329  53.264  1.00  0.00     0.318 HD
ENDROOT
BRANCH   1  14
HETATM   14  C4  UNL     1      20.562   2.263  51.841  1.00  0.00     0.267 C 
HETATM   15  N1  UNL     1      19.392   2.117  51.030  1.00  0.00    -0.288 N 
HETATM   16  C3  UNL     1      18.162   2.841  51.222  1.00  0.00     0.293 C 
HETATM   17  H4  UNL     1      19.293   1.473  50.213  1.00  0.00     0.172 HD
HETATM   18  O2  UNL     1      18.134   3.669  52.189  1.00  0.00    -0.264 OA
HETATM   19  O3  UNL     1      20.371   3.112  52.741  1.00  0.00    -0.270 OA
BRANCH  16  20
HETATM   20  C2  UNL     1      16.987   2.672  50.387  1.00  0.00     0.212 C 
HETATM   21  C1  UNL     1      16.980   1.671  49.316  1.00  0.00     0.102 C 
HETATM   22  O1  UNL     1      15.919   3.344  50.506  1.00  0.00    -0.288 OA
ENDBRANCH  16  20
ENDBRANCH   1  14
BRANCH   5  23
HETATM   23  S1  UNL     1      26.816   2.114  51.800  1.00  0.00    -0.092 SA
BRANCH  23  24
HETATM   24  C10 UNL     1      27.777   2.194  53.266  1.00  0.00     0.470 C 
HETATM   25  O4  UNL     1      28.423   2.664  54.166  1.00  0.00    -0.421 OA
ENDBRANCH  23  24
ENDBRANCH   5  23
TORSDOF 4
ENDMDL
MODEL 2
REMARK VINA RESULT:      -7.2      3.573      5.440
REMARK  4 active torsions:
REMARK  status: ('A' for Active; 'I' for Inactive)
REMARK    1  A    between atoms: C2_2  and  C3_4 
REMARK       I    between atoms: C3_4  and  N1_6 
REMARK       I    between atoms: N1_6  and  C4_7 
REMARK    2  A    between atoms: C4_7  and  C5_9 
REMARK    3  A    between atoms: C9_13  and  S1_14 
REMARK    4  A    between atoms: S1_14  and  C10_15 
ROOT
HETATM    1  C5  UNL     1      24.430   3.065  50.809  1.00  0.00     0.252 A 
HETATM    2  C6  UNL     1      23.943   2.870  49.392  1.00  0.00     0.064 C 
HETATM    3  C7  UNL     1      25.820   2.554  50.948  1.00  0.00     0.025 A 
HETATM    4  C8  UNL     1      26.243   1.539  51.680  1.00  0.00     0.017 A 
HETATM    5  C9  UNL     1      26.063   0.432  52.605  1.00  0.00     0.003 A 
HETATM    6  C11 UNL     1      24.998  -0.063  53.214  1.00  0.00     0.018 A 
HETATM    7  C12 UNL     1      23.621  -0.206  53.600  1.00  0.00     0.005 A 
HETATM    8  C13 UNL     1      22.503   0.461  53.283  1.00  0.00     0.052 A 
HETATM    9  C14 UNL     1      21.650   1.489  52.626  1.00  0.00     0.177 A 
HETATM   10  O5  UNL     1      20.424   1.850  52.576  1.00  0.00    -0.291 OA
HETATM   11  C15 UNL     1      22.229   2.515  51.682  1.00  0.00     0.354 A 
HETATM   12  N2  UNL     1      23.659   2.275  51.751  1.00  0.00     0.113 N 
HETATM   13  H16 UNL     1      23.999   2.519  52.728  1.00  0.00     0.318 HD
ENDROOT
BRANCH   1  14
HETATM   14  C4  UNL     1      24.268   4.489  51.161  1.00  0.00     0.267 C 
HETATM   15  N1  UNL     1      25.159   5.316  50.405  1.00  0.00    -0.288 N 
HETATM   16  C3  UNL     1      25.243   6.749  50.513  1.00  0.00     0.293 C 
HETATM   17  H4  UNL     1      25.844   4.980  49.691  1.00  0.00     0.172 HD
HETATM   18  O2  UNL     1      24.460   7.303  51.351  1.00  0.00    -0.264 OA
HETATM   19  O3  UNL     1      23.573   5.184  51.935  1.00  0.00    -0.270 OA
BRANCH  16  20
HETATM   20  C2  UNL     1      26.154   7.565  49.732  1.00  0.00     0.212 C 
HETATM   21  C1  UNL     1      26.336   7.305  48.301  1.00  0.00     0.102 C 
HETATM   22  O1  UNL     1      26.836   8.526  50.199  1.00  0.00    -0.288 OA
ENDBRANCH  16  20
ENDBRANCH   1  14
BRANCH   5  23
HETATM   23  S1  UNL     1      27.593  -0.469  53.032  1.00  0.00    -0.092 SA
BRANCH  23  24
HETATM   24  C10 UNL     1      28.377   0.236  54.435  1.00  0.00     0.470 C 
HETATM   25  O4  UNL     1      28.807   1.076  55.182  1.00  0.00    -0.421 OA
ENDBRANCH  23  24
ENDBRANCH   5  23
TORSDOF 4
ENDMDL
MODEL 3
REMARK VINA RESULT:      -7.1      3.308      7.256
REMARK  4 active torsions:
REMARK  status: ('A' for Active; 'I' for Inactive)
REMARK    1  A    between atoms: C2_2  and  C3_4 
REMARK       I    between atoms: C3_4  and  N1_6 
REMARK       I    between atoms: N1_6  and  C4_7 
REMARK    2  A    between atoms: C4_7  and  C5_9 
REMARK    3  A    between atoms: C9_13  and  S1_14 
REMARK    4  A    between atoms: S1_14  and  C10_15 
ROOT
HETATM    1  C5  UNL     1      24.366   1.102  52.594  1.00  0.00     0.252 A 
HETATM    2  C6  UNL     1      24.612   2.140  53.664  1.00  0.00     0.064 C 
HETATM    3  C7  UNL     1      24.312   1.750  51.256  1.00  0.00     0.025 A 
HETATM    4  C8  UNL     1      23.279   1.834  50.435  1.00  0.00     0.017 A 
HETATM    5  C9  UNL     1      21.900   1.594  50.043  1.00  0.00     0.003 A 
HETATM    6  C11 UNL     1      20.893   0.978  50.640  1.00  0.00     0.018 A 
HETATM    7  C12 UNL     1      20.179   0.248  51.653  1.00  0.00     0.005 A 
HETATM    8  C13 UNL     1      20.525  -0.239  52.852  1.00  0.00     0.052 A 
HETATM    9  C14 UNL     1      21.402  -0.543  54.016  1.00  0.00     0.177 A 
HETATM   10  O5  UNL     1      21.345  -1.126  55.153  1.00  0.00    -0.291 OA
HETATM   11  C15 UNL     1      22.846  -0.104  54.058  1.00  0.00     0.354 A 
HETATM   12  N2  UNL     1      23.066   0.478  52.746  1.00  0.00     0.113 N 
HETATM   13  H16 UNL     1      22.991  -0.291  52.016  1.00  0.00     0.318 HD
ENDROOT
BRANCH   1  14
HETATM   14  C4  UNL     1      25.398   0.056  52.720  1.00  0.00     0.267 C 
HETATM   15  N1  UNL     1      26.615   0.586  53.254  1.00  0.00    -0.288 N 
HETATM   16  C3  UNL     1      27.808  -0.179  53.501  1.00  0.00     0.293 C 
HETATM   17  H4  UNL     1      26.778   1.582  53.527  1.00  0.00     0.172 HD
HETATM   18  O2  UNL     1      27.758  -1.420  53.215  1.00  0.00    -0.264 OA
HETATM   19  O3  UNL     1      25.515  -1.170  52.492  1.00  0.00    -0.270 OA
BRANCH  16  20
HETATM   20  C2  UNL     1      29.030   0.383  54.047  1.00  0.00     0.212 C 
HETATM   21  C1  UNL     1      30.333  -0.164  53.659  1.00  0.00     0.102 C 
HETATM   22  O1  UNL     1      29.071   1.349  54.867  1.00  0.00    -0.288 OA
ENDBRANCH  16  20
ENDBRANCH   1  14
BRANCH   5  23
HETATM   23  S1  UNL     1      21.439   2.260  48.407  1.00  0.00    -0.092 SA
BRANCH  23  24
HETATM   24  C10 UNL     1      22.441   3.633  47.973  1.00  0.00     0.470 C 
HETATM   25  O4  UNL     1      23.030   4.678  48.080  1.00  0.00    -0.421 OA
ENDBRANCH  23  24
ENDBRANCH   5  23
TORSDOF 4
ENDMDL
MODEL 4
REMARK VINA RESULT:      -7.0      3.984      6.672
REMARK  4 active torsions:
REMARK  status: ('A' for Active; 'I' for Inactive)
REMARK    1  A    between atoms: C2_2  and  C3_4 
REMARK       I    between atoms: C3_4  and  N1_6 
REMARK       I    between atoms: N1_6  and  C4_7 
REMARK    2  A    between atoms: C4_7  and  C5_9 
REMARK    3  A    between atoms: C9_13  and  S1_14 
REMARK    4  A    between atoms: S1_14  and  C10_15 
ROOT
HETATM    1  C5  UNL     1      24.659   3.376  50.799  1.00  0.00     0.252 A 
HETATM    2  C6  UNL     1      25.716   3.224  49.730  1.00  0.00     0.064 C 
HETATM    3  C7  UNL     1      25.079   2.669  52.038  1.00  0.00     0.025 A 
HETATM    4  C8  UNL     1      24.513   1.618  52.605  1.00  0.00     0.017 A 
HETATM    5  C9  UNL     1      23.511   0.570  52.705  1.00  0.00     0.003 A 
HETATM    6  C11 UNL     1      22.471   0.250  51.953  1.00  0.00     0.018 A 
HETATM    7  C12 UNL     1      21.528   0.320  50.870  1.00  0.00     0.005 A 
HETATM    8  C13 UNL     1      21.397   1.138  49.817  1.00  0.00     0.052 A 
HETATM    9  C14 UNL     1      21.714   2.266  48.898  1.00  0.00     0.177 A 
HETATM   10  O5  UNL     1      21.272   2.804  47.826  1.00  0.00    -0.291 OA
HETATM   11  C15 UNL     1      22.896   3.175  49.138  1.00  0.00     0.354 A 
HETATM   12  N2  UNL     1      23.418   2.729  50.417  1.00  0.00     0.113 N 
HETATM   13  H16 UNL     1      22.700   2.941  51.171  1.00  0.00     0.318 HD
ENDROOT
BRANCH   1  14
HETATM   14  C4  UNL     1      24.391   4.815  50.983  1.00  0.00     0.267 C 
HETATM   15  N1  UNL     1      25.425   5.615  50.401  1.00  0.00    -0.288 N 
HETATM   16  C3  UNL     1      25.454   7.055  50.408  1.00  0.00     0.293 C 
HETATM   17  H4  UNL     1      26.270   5.253  49.905  1.00  0.00     0.172 HD
HETATM   18  O2  UNL     1      24.480   7.641  50.982  1.00  0.00    -0.264 OA
HETATM   19  O3  UNL     1      23.514   5.540  51.505  1.00  0.00    -0.270 OA
BRANCH  16  20
HETATM   20  C2  UNL     1      26.514   7.843  49.808  1.00  0.00     0.212 C 
HETATM   21  C1  UNL     1      27.190   7.372  48.596  1.00  0.00     0.102 C 
HETATM   22  O1  UNL     1      26.926   8.954  50.259  1.00  0.00    -0.288 OA
ENDBRANCH  16  20
ENDBRANCH   1  14
BRANCH   5  23
HETATM   23  S1  UNL     1      23.698  -0.538  54.144  1.00  0.00    -0.092 SA
BRANCH  23  24
HETATM   24  C10 UNL     1      22.136  -1.058  54.754  1.00  0.00     0.470 C 
HETATM   25  O4  UNL     1      21.165  -1.749  54.922  1.00  0.00    -0.421 OA
ENDBRANCH  23  24
ENDBRANCH   5  23
TORSDOF 4
ENDMDL
MODEL 5
REMARK VINA RESULT:      -6.8      3.526      6.558
REMARK  4 active torsions:
REMARK  status: ('A' for Active; 'I' for Inactive)
REMARK    1  A    between atoms: C2_2  and  C3_4 
REMARK       I    between atoms: C3_4  and  N1_6 
REMARK       I    between atoms: N1_6  and  C4_7 
REMARK    2  A    between atoms: C4_7  and  C5_9 
REMARK    3  A    between atoms: C9_13  and  S1_14 
REMARK    4  A    between atoms: S1_14  and  C10_15 
ROOT
HETATM    1  C5  UNL     1      24.172   2.672  52.359  1.00  0.00     0.252 A 
HETATM    2  C6  UNL     1      24.507   3.623  53.485  1.00  0.00     0.064 C 
HETATM    3  C7  UNL     1      22.835   2.997  51.795  1.00  0.00     0.025 A 
HETATM    4  C8  UNL     1      21.741   2.257  51.819  1.00  0.00     0.017 A 
HETATM    5  C9  UNL     1      20.976   1.068  52.157  1.00  0.00     0.003 A 
HETATM    6  C11 UNL     1      21.292  -0.051  52.789  1.00  0.00     0.018 A 
HETATM    7  C12 UNL     1      22.098  -1.010  53.494  1.00  0.00     0.005 A 
HETATM    8  C13 UNL     1      23.378  -1.022  53.889  1.00  0.00     0.052 A 
HETATM    9  C14 UNL     1      24.769  -0.526  54.073  1.00  0.00     0.177 A 
HETATM   10  O5  UNL     1      25.877  -0.900  54.590  1.00  0.00    -0.291 OA
HETATM   11  C15 UNL     1      25.203   0.827  53.560  1.00  0.00     0.354 A 
HETATM   12  N2  UNL     1      24.040   1.308  52.836  1.00  0.00     0.113 N 
HETATM   13  H16 UNL     1      23.885   0.685  51.989  1.00  0.00     0.318 HD
ENDROOT
BRANCH   1  14
HETATM   14  C4  UNL     1      25.272   2.713  51.377  1.00  0.00     0.267 C 
HETATM   15  N1  UNL     1      25.304   3.964  50.684  1.00  0.00    -0.288 N 
HETATM   16  C3  UNL     1      26.259   4.318  49.667  1.00  0.00     0.293 C 
HETATM   17  H4  UNL     1      24.646   4.762  50.835  1.00  0.00     0.172 HD
HETATM   18  O2  UNL     1      27.131   3.436  49.375  1.00  0.00    -0.264 OA
HETATM   19  O3  UNL     1      26.189   1.962  50.973  1.00  0.00    -0.270 OA
BRANCH  16  20
HETATM   20  C2  UNL     1      26.272   5.596  48.981  1.00  0.00     0.212 C 
HETATM   21  C1  UNL     1      27.521   6.124  48.425  1.00  0.00     0.102 C 
HETATM   22  O1  UNL     1      25.253   6.331  48.812  1.00  0.00    -0.288 OA
ENDBRANCH  16  20
ENDBRANCH   1  14
BRANCH   5  23
HETATM   23  S1  UNL     1      19.234   1.093  51.612  1.00  0.00    -0.092 SA
BRANCH  23  24
HETATM   24  C10 UNL     1      18.597   2.729  51.590  1.00  0.00     0.470 C 
HETATM   25  O4  UNL     1      18.049   3.730  51.971  1.00  0.00    -0.421 OA
ENDBRANCH  23  24
ENDBRANCH   5  23
TORSDOF 4
ENDMDL
MODEL 6
REMARK VINA RESULT:      -6.8      7.353     11.578
REMARK  4 active torsions:
REMARK  status: ('A' for Active; 'I' for Inactive)
REMARK    1  A    between atoms: C2_2  and  C3_4 
REMARK       I    between atoms: C3_4  and  N1_6 
REMARK       I    between atoms: N1_6  and  C4_7 
REMARK    2  A    between atoms: C4_7  and  C5_9 
REMARK    3  A    between atoms: C9_13  and  S1_14 
REMARK    4  A    between atoms: S1_14  and  C10_15 
ROOT
HETATM    1  C5  UNL     1      29.157   6.856  48.067  1.00  0.00     0.252 A 
HETATM    2  C6  UNL     1      29.145   7.345  46.637  1.00  0.00     0.064 C 
HETATM    3  C7  UNL     1      28.708   5.440  48.127  1.00  0.00     0.025 A 
HETATM    4  C8  UNL     1      27.621   4.956  48.702  1.00  0.00     0.017 A 
HETATM    5  C9  UNL     1      26.383   5.067  49.456  1.00  0.00     0.003 A 
HETATM    6  C11 UNL     1      25.747   6.099  49.987  1.00  0.00     0.018 A 
HETATM    7  C12 UNL     1      25.475   7.463  50.351  1.00  0.00     0.005 A 
HETATM    8  C13 UNL     1      26.119   8.617  50.137  1.00  0.00     0.052 A 
HETATM    9  C14 UNL     1      27.184   9.531  49.638  1.00  0.00     0.177 A 
HETATM   10  O5  UNL     1      27.482  10.775  49.643  1.00  0.00    -0.291 OA
HETATM   11  C15 UNL     1      28.367   9.016  48.853  1.00  0.00     0.354 A 
HETATM   12  N2  UNL     1      28.198   7.574  48.884  1.00  0.00     0.113 N 
HETATM   13  H16 UNL     1      28.315   7.239  49.886  1.00  0.00     0.318 HD
ENDROOT
BRANCH   1  14
HETATM   14  C4  UNL     1      30.504   7.090  48.623  1.00  0.00     0.267 C 
HETATM   15  N1  UNL     1      31.427   6.088  48.188  1.00  0.00    -0.288 N 
HETATM   16  C3  UNL     1      32.819   6.037  48.553  1.00  0.00     0.293 C 
HETATM   17  H4  UNL     1      31.203   5.284  47.558  1.00  0.00     0.172 HD
HETATM   18  O2  UNL     1      33.240   6.961  49.322  1.00  0.00    -0.264 OA
HETATM   19  O3  UNL     1      31.072   7.918  49.370  1.00  0.00    -0.270 OA
BRANCH  16  20
HETATM   20  C2  UNL     1      33.737   5.010  48.095  1.00  0.00     0.212 C 
HETATM   21  C1  UNL     1      33.231   3.824  47.398  1.00  0.00     0.102 C 
HETATM   22  O1  UNL     1      34.994   5.050  48.251  1.00  0.00    -0.288 OA
ENDBRANCH  16  20
ENDBRANCH   1  14
BRANCH   5  23
HETATM   23  S1  UNL     1      25.513   3.488  49.744  1.00  0.00    -0.092 SA
BRANCH  23  24
HETATM   24  C10 UNL     1      26.419   2.452  50.832  1.00  0.00     0.470 C 
HETATM   25  O4  UNL     1      27.210   2.122  51.678  1.00  0.00    -0.421 OA
ENDBRANCH  23  24
ENDBRANCH   5  23
TORSDOF 4
ENDMDL
MODEL 7
REMARK VINA RESULT:      -6.6      3.188      8.000
REMARK  4 active torsions:
REMARK  status: ('A' for Active; 'I' for Inactive)
REMARK    1  A    between atoms: C2_2  and  C3_4 
REMARK       I    between atoms: C3_4  and  N1_6 
REMARK       I    between atoms: N1_6  and  C4_7 
REMARK    2  A    between atoms: C4_7  and  C5_9 
REMARK    3  A    between atoms: C9_13  and  S1_14 
REMARK    4  A    between atoms: S1_14  and  C10_15 
ROOT
HETATM    1  C5  UNL     1      24.551   1.486  52.247  1.00  0.00     0.252 A 
HETATM    2  C6  UNL     1      25.199   1.402  50.885  1.00  0.00     0.064 C 
HETATM    3  C7  UNL     1      23.651   0.321  52.458  1.00  0.00     0.025 A 
HETATM    4  C8  UNL     1      22.337   0.325  52.600  1.00  0.00     0.017 A 
HETATM    5  C9  UNL     1      21.034   0.965  52.680  1.00  0.00     0.003 A 
HETATM    6  C11 UNL     1      20.650   2.228  52.601  1.00  0.00     0.018 A 
HETATM    7  C12 UNL     1      20.756   3.654  52.453  1.00  0.00     0.005 A 
HETATM    8  C13 UNL     1      21.790   4.485  52.261  1.00  0.00     0.052 A 
HETATM    9  C14 UNL     1      23.206   4.903  52.067  1.00  0.00     0.177 A 
HETATM   10  O5  UNL     1      23.892   5.967  51.890  1.00  0.00    -0.291 OA
HETATM   11  C15 UNL     1      24.332   3.898  52.038  1.00  0.00     0.354 A 
HETATM   12  N2  UNL     1      23.679   2.640  52.352  1.00  0.00     0.113 N 
HETATM   13  H16 UNL     1      23.322   2.683  53.352  1.00  0.00     0.318 HD
ENDROOT
BRANCH   1  14
HETATM   14  C4  UNL     1      25.617   1.620  53.259  1.00  0.00     0.267 C 
HETATM   15  N1  UNL     1      26.619   0.612  53.095  1.00  0.00    -0.288 N 
HETATM   16  C3  UNL     1      27.791   0.474  53.920  1.00  0.00     0.293 C 
HETATM   17  H4  UNL     1      26.620  -0.134  52.363  1.00  0.00     0.172 HD
HETATM   18  O2  UNL     1      27.926   1.321  54.862  1.00  0.00    -0.264 OA
HETATM   19  O3  UNL     1      25.897   2.367  54.223  1.00  0.00    -0.270 OA
BRANCH  16  20
HETATM   20  C2  UNL     1      28.794  -0.557  53.732  1.00  0.00     0.212 C 
HETATM   21  C1  UNL     1      30.206  -0.194  53.579  1.00  0.00     0.102 C 
HETATM   22  O1  UNL     1      28.547  -1.799  53.685  1.00  0.00    -0.288 OA
ENDBRANCH  16  20
ENDBRANCH   1  14
BRANCH   5  23
HETATM   23  S1  UNL     1      19.633  -0.175  52.944  1.00  0.00    -0.092 SA
BRANCH  23  24
HETATM   24  C10 UNL     1      18.444  -0.030  51.661  1.00  0.00     0.470 C 
HETATM   25  O4  UNL     1      17.978  -0.023  50.551  1.00  0.00    -0.421 OA
ENDBRANCH  23  24
ENDBRANCH   5  23
TORSDOF 4
ENDMDL
MODEL 8
REMARK VINA RESULT:      -6.5      3.680      5.888
REMARK  4 active torsions:
REMARK  status: ('A' for Active; 'I' for Inactive)
REMARK    1  A    between atoms: C2_2  and  C3_4 
REMARK       I    between atoms: C3_4  and  N1_6 
REMARK       I    between atoms: N1_6  and  C4_7 
REMARK    2  A    between atoms: C4_7  and  C5_9 
REMARK    3  A    between atoms: C9_13  and  S1_14 
REMARK    4  A    between atoms: S1_14  and  C10_15 
ROOT
HETATM    1  C5  UNL     1      23.097   3.160  51.832  1.00  0.00     0.252 A 
HETATM    2  C6  UNL     1      23.291   4.417  52.648  1.00  0.00     0.064 C 
HETATM    3  C7  UNL     1      21.880   2.437  52.287  1.00  0.00     0.025 A 
HETATM    4  C8  UNL     1      21.807   1.247  52.857  1.00  0.00     0.017 A 
HETATM    5  C9  UNL     1      22.371   0.016  53.386  1.00  0.00     0.003 A 
HETATM    6  C11 UNL     1      23.611  -0.434  53.480  1.00  0.00     0.018 A 
HETATM    7  C12 UNL     1      25.043  -0.452  53.353  1.00  0.00     0.005 A 
HETATM    8  C13 UNL     1      25.934   0.418  52.858  1.00  0.00     0.052 A 
HETATM    9  C14 UNL     1      26.434   1.667  52.220  1.00  0.00     0.177 A 
HETATM   10  O5  UNL     1      27.539   2.204  51.863  1.00  0.00    -0.291 OA
HETATM   11  C15 UNL     1      25.496   2.769  51.792  1.00  0.00     0.354 A 
HETATM   12  N2  UNL     1      24.178   2.215  52.043  1.00  0.00     0.113 N 
HETATM   13  H16 UNL     1      24.022   1.396  51.385  1.00  0.00     0.318 HD
ENDROOT
BRANCH   1  14
HETATM   14  C4  UNL     1      23.083   3.533  50.405  1.00  0.00     0.267 C 
HETATM   15  N1  UNL     1      23.167   4.951  50.237  1.00  0.00    -0.288 N 
HETATM   16  C3  UNL     1      23.179   5.631  48.968  1.00  0.00     0.293 C 
HETATM   17  H4  UNL     1      23.230   5.654  51.009  1.00  0.00     0.172 HD
HETATM   18  O2  UNL     1      23.109   4.898  47.929  1.00  0.00    -0.264 OA
HETATM   19  O3  UNL     1      23.019   2.961  49.293  1.00  0.00    -0.270 OA
BRANCH  16  20
HETATM   20  C2  UNL     1      23.268   7.073  48.825  1.00  0.00     0.212 C 
HETATM   21  C1  UNL     1      22.782   7.952  49.892  1.00  0.00     0.102 C 
HETATM   22  O1  UNL     1      23.750   7.665  47.813  1.00  0.00    -0.288 OA
ENDBRANCH  16  20
ENDBRANCH   1  14
BRANCH   5  23
HETATM   23  S1  UNL     1      21.149  -1.164  54.056  1.00  0.00    -0.092 SA
BRANCH  23  24
HETATM   24  C10 UNL     1      19.520  -0.748  53.553  1.00  0.00     0.470 C 
HETATM   25  O4  UNL     1      18.432  -0.861  53.051  1.00  0.00    -0.421 OA
ENDBRANCH  23  24
ENDBRANCH   5  23
TORSDOF 4
ENDMDL
MODEL 9
REMARK VINA RESULT:      -6.4      4.186      5.534
REMARK  4 active torsions:
REMARK  status: ('A' for Active; 'I' for Inactive)
REMARK    1  A    between atoms: C2_2  and  C3_4 
REMARK       I    between atoms: C3_4  and  N1_6 
REMARK       I    between atoms: N1_6  and  C4_7 
REMARK    2  A    between atoms: C4_7  and  C5_9 
REMARK    3  A    between atoms: C9_13  and  S1_14 
REMARK    4  A    between atoms: S1_14  and  C10_15 
ROOT
HETATM    1  C5  UNL     1      22.878   3.156  49.908  1.00  0.00     0.252 A 
HETATM    2  C6  UNL     1      22.551   4.580  50.294  1.00  0.00     0.064 C 
HETATM    3  C7  UNL     1      22.121   2.207  50.767  1.00  0.00     0.025 A 
HETATM    4  C8  UNL     1      22.602   1.345  51.646  1.00  0.00     0.017 A 
HETATM    5  C9  UNL     1      23.671   0.685  52.377  1.00  0.00     0.003 A 
HETATM    6  C11 UNL     1      24.987   0.819  52.354  1.00  0.00     0.018 A 
HETATM    7  C12 UNL     1      26.276   1.325  51.968  1.00  0.00     0.005 A 
HETATM    8  C13 UNL     1      26.673   2.259  51.093  1.00  0.00     0.052 A 
HETATM    9  C14 UNL     1      26.548   3.317  50.053  1.00  0.00     0.177 A 
HETATM   10  O5  UNL     1      27.289   4.094  49.359  1.00  0.00    -0.291 OA
HETATM   11  C15 UNL     1      25.202   3.752  49.523  1.00  0.00     0.354 A 
HETATM   12  N2  UNL     1      24.271   2.841  50.163  1.00  0.00     0.113 N 
HETATM   13  H16 UNL     1      24.450   1.859  49.797  1.00  0.00     0.318 HD
ENDROOT
BRANCH   1  14
HETATM   14  C4  UNL     1      22.626   2.999  48.463  1.00  0.00     0.267 C 
HETATM   15  N1  UNL     1      22.239   4.240  47.865  1.00  0.00    -0.288 N 
HETATM   16  C3  UNL     1      21.928   4.421  46.471  1.00  0.00     0.293 C 
HETATM   17  H4  UNL     1      22.139   5.153  48.364  1.00  0.00     0.172 HD
HETATM   18  O2  UNL     1      22.008   3.387  45.731  1.00  0.00    -0.264 OA
HETATM   19  O3  UNL     1      22.655   2.088  47.606  1.00  0.00    -0.270 OA
BRANCH  16  20
HETATM   20  C2  UNL     1      21.540   5.692  45.888  1.00  0.00     0.212 C 
HETATM   21  C1  UNL     1      22.332   6.281  44.805  1.00  0.00     0.102 C 
HETATM   22  O1  UNL     1      20.531   6.369  46.250  1.00  0.00    -0.288 OA
ENDBRANCH  16  20
ENDBRANCH   1  14
BRANCH   5  23
HETATM   23  S1  UNL     1      23.120  -0.587  53.565  1.00  0.00    -0.092 SA
BRANCH  23  24
HETATM   24  C10 UNL     1      24.321  -0.850  54.818  1.00  0.00     0.470 C 
HETATM   25  O4  UNL     1      25.262  -1.331  55.394  1.00  0.00    -0.421 OA
ENDBRANCH  23  24
ENDBRANCH   5  23
TORSDOF 4
ENDMDL
