MODEL 1
REMARK VINA RESULT:      -7.7      0.000      0.000
REMARK  4 active torsions:
REMARK  status: ('A' for Active; 'I' for Inactive)
REMARK    1  A    between atoms: C2_2  and  C3_3 
REMARK    2  A    between atoms: C4_4  and  N1_5 
REMARK    3  A    between atoms: C9_11  and  O1_12 
REMARK    4  A    between atoms: C11_14  and  N3_15 
REMARK       I    between atoms: N3_15  and  C13_17 
ROOT
HETATM    1  N1  UNL     1      25.520   2.882  50.862  1.00  0.00    -0.338 N 
HETATM    2  C5  UNL     1      24.434   3.838  51.053  1.00  0.00     0.110 C 
HETATM    3  C6  UNL     1      23.412   3.855  51.939  1.00  0.00     0.102 C 
HETATM    4  N2  UNL     1      23.183   2.700  52.788  1.00  0.00    -0.372 N 
HETATM    5  C7  UNL     1      23.596   1.287  52.642  1.00  0.00     0.225 C 
HETATM    6  C8  UNL     1      24.240   0.697  53.801  1.00  0.00     0.087 C 
HETATM    7  C9  UNL     1      25.661   0.448  53.952  1.00  0.00     0.147 C 
HETATM    8  C11 UNL     1      26.527  -0.062  52.875  1.00  0.00     0.119 C 
HETATM    9  C15 UNL     1      26.558   0.696  51.566  1.00  0.00     0.082 C 
HETATM   10  C16 UNL     1      25.566   1.717  51.717  1.00  0.00     0.231 C 
HETATM   11  O3  UNL     1      24.317   1.077  51.509  1.00  0.00    -0.342 OA
HETATM   12  H8  UNL     1      22.627   2.927  53.642  1.00  0.00     0.161 HD
ENDROOT
BRANCH   8  13
HETATM   13  N3  UNL     1      27.919   0.087  53.361  1.00  0.00    -0.349 N 
HETATM   14  C12 UNL     1      28.547   1.341  53.772  1.00  0.00     0.153 C 
HETATM   15  C13 UNL     1      28.642  -1.111  53.387  1.00  0.00     0.215 C 
HETATM   16  C14 UNL     1      30.054  -1.272  53.825  1.00  0.00     0.117 C 
HETATM   17  O2  UNL     1      28.032  -2.164  52.999  1.00  0.00    -0.274 OA
ENDBRANCH   8  13
BRANCH   7  18
HETATM   18  O1  UNL     1      25.824  -0.561  54.957  1.00  0.00    -0.388 OA
HETATM   19  C10 UNL     1      24.700  -1.157  55.391  1.00  0.00     0.202 C 
ENDBRANCH   7  18
BRANCH   1  20
HETATM   20  C4  UNL     1      26.445   3.198  49.829  1.00  0.00     0.093 C 
HETATM   21  C3  UNL     1      26.839   4.424  49.536  1.00  0.00     0.013 C 
BRANCH  21  22
HETATM   22  C2  UNL     1      27.753   4.960  48.545  1.00  0.00    -0.025 C 
HETATM   23  C1  UNL     1      27.897   6.226  48.198  1.00  0.00     0.031 C 
ENDBRANCH  21  22
ENDBRANCH   1  20
TORSDOF 4
ENDMDL
MODEL 2
REMARK VINA RESULT:      -7.2      2.439      5.284
REMARK  4 active torsions:
REMARK  status: ('A' for Active; 'I' for Inactive)
REMARK    1  A    between atoms: C2_2  and  C3_3 
REMARK    2  A    between atoms: C4_4  and  N1_5 
REMARK    3  A    between atoms: C9_11  and  O1_12 
REMARK    4  A    between atoms: C11_14  and  N3_15 
REMARK       I    between atoms: N3_15  and  C13_17 
ROOT
HETATM    1  N1  UNL     1      25.599   2.039  51.569  1.00  0.00    -0.338 N 
HETATM    2  C5  UNL     1      26.758   1.152  51.615  1.00  0.00     0.110 C 
HETATM    3  C6  UNL     1      26.911  -0.080  52.151  1.00  0.00     0.102 C 
HETATM    4  N2  UNL     1      25.851  -0.641  52.968  1.00  0.00    -0.372 N 
HETATM    5  C7  UNL     1      24.738   0.004  53.698  1.00  0.00     0.225 C 
HETATM    6  C8  UNL     1      23.421  -0.554  53.459  1.00  0.00     0.087 C 
HETATM    7  C9  UNL     1      22.386   0.027  52.626  1.00  0.00     0.147 C 
HETATM    8  C11 UNL     1      22.080   1.467  52.576  1.00  0.00     0.119 C 
HETATM    9  C15 UNL     1      23.206   2.426  52.257  1.00  0.00     0.082 C 
HETATM   10  C16 UNL     1      24.375   1.601  52.201  1.00  0.00     0.231 C 
HETATM   11  O3  UNL     1      24.742   1.356  53.549  1.00  0.00    -0.342 OA
HETATM   12  H8  UNL     1      25.901  -1.681  53.039  1.00  0.00     0.161 HD
ENDROOT
BRANCH   8  13
HETATM   13  N3  UNL     1      21.167   1.655  51.423  1.00  0.00    -0.349 N 
HETATM   14  C12 UNL     1      21.345   1.074  50.095  1.00  0.00     0.153 C 
HETATM   15  C13 UNL     1      20.073   2.483  51.696  1.00  0.00     0.215 C 
HETATM   16  C14 UNL     1      18.995   2.851  50.740  1.00  0.00     0.117 C 
HETATM   17  O2  UNL     1      19.991   2.966  52.876  1.00  0.00    -0.274 OA
ENDBRANCH   8  13
BRANCH   7  18
HETATM   18  O1  UNL     1      21.129  -0.523  53.041  1.00  0.00    -0.388 OA
HETATM   19  C10 UNL     1      21.126  -1.189  54.208  1.00  0.00     0.202 C 
ENDBRANCH   7  18
BRANCH   1  20
HETATM   20  C4  UNL     1      25.795   3.274  50.892  1.00  0.00     0.093 C 
HETATM   21  C3  UNL     1      26.501   3.410  49.784  1.00  0.00     0.013 C 
BRANCH  21  22
HETATM   22  C2  UNL     1      26.822   4.551  48.948  1.00  0.00    -0.025 C 
HETATM   23  C1  UNL     1      28.025   4.954  48.580  1.00  0.00     0.031 C 
ENDBRANCH  21  22
ENDBRANCH   1  20
TORSDOF 4
ENDMDL
MODEL 3
REMARK VINA RESULT:      -6.6      2.255      6.656
REMARK  4 active torsions:
REMARK  status: ('A' for Active; 'I' for Inactive)
REMARK    1  A    between atoms: C2_2  and  C3_3 
REMARK    2  A    between atoms: C4_4  and  N1_5 
REMARK    3  A    between atoms: C9_11  and  O1_12 
REMARK    4  A    between atoms: C11_14  and  N3_15 
REMARK       I    between atoms: N3_15  and  C13_17 
ROOT
HETATM    1  N1  UNL     1      24.553  -0.026  53.641  1.00  0.00    -0.338 N 
HETATM    2  C5  UNL     1      25.604  -0.292  54.618  1.00  0.00     0.110 C 
HETATM    3  C6  UNL     1      26.869   0.178  54.711  1.00  0.00     0.102 C 
HETATM    4  N2  UNL     1      27.419   0.969  53.625  1.00  0.00    -0.372 N 
HETATM    5  C7  UNL     1      27.030   1.074  52.202  1.00  0.00     0.225 C 
HETATM    6  C8  UNL     1      26.849   2.422  51.697  1.00  0.00     0.087 C 
HETATM    7  C9  UNL     1      25.579   3.077  51.448  1.00  0.00     0.147 C 
HETATM    8  C11 UNL     1      24.411   2.409  50.851  1.00  0.00     0.119 C 
HETATM    9  C15 UNL     1      23.900   1.144  51.507  1.00  0.00     0.082 C 
HETATM   10  C16 UNL     1      24.847   0.869  52.544  1.00  0.00     0.231 C 
HETATM   11  O3  UNL     1      25.967   0.282  51.901  1.00  0.00    -0.342 OA
HETATM   12  H8  UNL     1      28.229   1.558  53.922  1.00  0.00     0.161 HD
ENDROOT
BRANCH   8  13
HETATM   13  N3  UNL     1      23.270   3.339  51.025  1.00  0.00    -0.349 N 
HETATM   14  C12 UNL     1      22.836   3.926  52.291  1.00  0.00     0.153 C 
HETATM   15  C13 UNL     1      22.586   3.625  49.839  1.00  0.00     0.215 C 
HETATM   16  C14 UNL     1      21.407   4.521  49.703  1.00  0.00     0.117 C 
HETATM   17  O2  UNL     1      23.014   3.065  48.773  1.00  0.00    -0.274 OA
ENDBRANCH   8  13
BRANCH   7  18
HETATM   18  O1  UNL     1      25.811   4.143  50.517  1.00  0.00    -0.388 OA
HETATM   19  C10 UNL     1      26.562   3.843  49.443  1.00  0.00     0.202 C 
ENDBRANCH   7  18
BRANCH   1  20
HETATM   20  C4  UNL     1      23.316  -0.689  53.871  1.00  0.00     0.093 C 
HETATM   21  C3  UNL     1      22.159  -0.070  54.023  1.00  0.00     0.013 C 
BRANCH  21  22
HETATM   22  C2  UNL     1      20.808  -0.541  54.262  1.00  0.00    -0.025 C 
HETATM   23  C1  UNL     1      19.769  -0.422  53.455  1.00  0.00     0.031 C 
ENDBRANCH  21  22
ENDBRANCH   1  20
TORSDOF 4
ENDMDL
MODEL 4
REMARK VINA RESULT:      -6.5      6.431      9.650
REMARK  4 active torsions:
REMARK  status: ('A' for Active; 'I' for Inactive)
REMARK    1  A    between atoms: C2_2  and  C3_3 
REMARK    2  A    between atoms: C4_4  and  N1_5 
REMARK    3  A    between atoms: C9_11  and  O1_12 
REMARK    4  A    between atoms: C11_14  and  N3_15 
REMARK       I    between atoms: N3_15  and  C13_17 
ROOT
HETATM    1  N1  UNL     1      29.420   6.519  48.171  1.00  0.00    -0.338 N 
HETATM    2  C5  UNL     1      28.569   7.701  48.064  1.00  0.00     0.110 C 
HETATM    3  C6  UNL     1      28.881   9.013  47.969  1.00  0.00     0.102 C 
HETATM    4  N2  UNL     1      30.260   9.435  48.141  1.00  0.00    -0.372 N 
HETATM    5  C7  UNL     1      31.405   8.772  48.801  1.00  0.00     0.225 C 
HETATM    6  C8  UNL     1      32.625   8.698  48.019  1.00  0.00     0.087 C 
HETATM    7  C9  UNL     1      33.135   7.521  47.343  1.00  0.00     0.147 C 
HETATM    8  C11 UNL     1      33.099   6.163  47.913  1.00  0.00     0.119 C 
HETATM    9  C15 UNL     1      31.764   5.615  48.368  1.00  0.00     0.082 C 
HETATM   10  C16 UNL     1      30.853   6.708  48.206  1.00  0.00     0.231 C 
HETATM   11  O3  UNL     1      31.070   7.561  49.318  1.00  0.00    -0.342 OA
HETATM   12  H8  UNL     1      30.454  10.370  47.718  1.00  0.00     0.161 HD
ENDROOT
BRANCH   8  13
HETATM   13  N3  UNL     1      33.461   5.243  46.809  1.00  0.00    -0.349 N 
HETATM   14  C12 UNL     1      32.826   5.203  45.493  1.00  0.00     0.153 C 
HETATM   15  C13 UNL     1      34.493   4.354  47.127  1.00  0.00     0.215 C 
HETATM   16  C14 UNL     1      35.067   3.320  46.225  1.00  0.00     0.117 C 
HETATM   17  O2  UNL     1      34.990   4.438  48.301  1.00  0.00    -0.274 OA
ENDBRANCH   8  13
BRANCH   7  18
HETATM   18  O1  UNL     1      34.541   7.710  47.134  1.00  0.00    -0.388 OA
HETATM   19  C10 UNL     1      35.257   8.094  48.204  1.00  0.00     0.202 C 
ENDBRANCH   7  18
BRANCH   1  20
HETATM   20  C4  UNL     1      28.738   5.273  48.232  1.00  0.00     0.093 C 
HETATM   21  C3  UNL     1      27.635   5.063  48.927  1.00  0.00     0.013 C 
BRANCH  21  22
HETATM   22  C2  UNL     1      26.796   3.896  49.124  1.00  0.00    -0.025 C 
HETATM   23  C1  UNL     1      26.247   3.493  50.256  1.00  0.00     0.031 C 
ENDBRANCH  21  22
ENDBRANCH   1  20
TORSDOF 4
ENDMDL
MODEL 5
REMARK VINA RESULT:      -6.4      1.782      2.360
REMARK  4 active torsions:
REMARK  status: ('A' for Active; 'I' for Inactive)
REMARK    1  A    between atoms: C2_2  and  C3_3 
REMARK    2  A    between atoms: C4_4  and  N1_5 
REMARK    3  A    between atoms: C9_11  and  O1_12 
REMARK    4  A    between atoms: C11_14  and  N3_15 
REMARK       I    between atoms: N3_15  and  C13_17 
ROOT
HETATM    1  N1  UNL     1      22.867   3.359  50.982  1.00  0.00    -0.338 N 
HETATM    2  C5  UNL     1      21.581   3.995  51.250  1.00  0.00     0.110 C 
HETATM    3  C6  UNL     1      20.556   3.622  52.049  1.00  0.00     0.102 C 
HETATM    4  N2  UNL     1      20.576   2.312  52.674  1.00  0.00    -0.372 N 
HETATM    5  C7  UNL     1      21.315   1.079  52.327  1.00  0.00     0.225 C 
HETATM    6  C8  UNL     1      22.042   0.452  53.414  1.00  0.00     0.087 C 
HETATM    7  C9  UNL     1      23.475   0.507  53.626  1.00  0.00     0.147 C 
HETATM    8  C11 UNL     1      24.472   0.408  52.546  1.00  0.00     0.119 C 
HETATM    9  C15 UNL     1      24.367   1.374  51.387  1.00  0.00     0.082 C 
HETATM   10  C16 UNL     1      23.158   2.101  51.632  1.00  0.00     0.231 C 
HETATM   11  O3  UNL     1      22.102   1.243  51.231  1.00  0.00    -0.342 OA
HETATM   12  H8  UNL     1      19.956   2.252  53.512  1.00  0.00     0.161 HD
ENDROOT
BRANCH   8  13
HETATM   13  N3  UNL     1      25.774   0.778  53.151  1.00  0.00    -0.349 N 
HETATM   14  C12 UNL     1      26.065   2.032  53.840  1.00  0.00     0.153 C 
HETATM   15  C13 UNL     1      26.767  -0.196  52.998  1.00  0.00     0.215 C 
HETATM   16  C14 UNL     1      28.165  -0.106  53.497  1.00  0.00     0.117 C 
HETATM   17  O2  UNL     1      26.443  -1.261  52.371  1.00  0.00    -0.274 OA
ENDBRANCH   8  13
BRANCH   7  18
HETATM   18  O1  UNL     1      23.838  -0.602  54.459  1.00  0.00    -0.388 OA
HETATM   19  C10 UNL     1      22.828  -1.243  55.071  1.00  0.00     0.202 C 
ENDBRANCH   7  18
BRANCH   1  20
HETATM   20  C4  UNL     1      23.725   4.056  50.088  1.00  0.00     0.093 C 
HETATM   21  C3  UNL     1      24.728   4.825  50.469  1.00  0.00     0.013 C 
BRANCH  21  22
HETATM   22  C2  UNL     1      25.706   5.611  49.741  1.00  0.00    -0.025 C 
HETATM   23  C1  UNL     1      26.662   5.159  48.949  1.00  0.00     0.031 C 
ENDBRANCH  21  22
ENDBRANCH   1  20
TORSDOF 4
ENDMDL
MODEL 6
REMARK VINA RESULT:      -6.3      2.286      5.798
REMARK  4 active torsions:
REMARK  status: ('A' for Active; 'I' for Inactive)
REMARK    1  A    between atoms: C2_2  and  C3_3 
REMARK    2  A    between atoms: C4_4  and  N1_5 
REMARK    3  A    between atoms: C9_11  and  O1_12 
REMARK    4  A    between atoms: C11_14  and  N3_15 
REMARK       I    between atoms: N3_15  and  C13_17 
ROOT
HETATM    1  N1  UNL     1      24.733   0.645  53.398  1.00  0.00    -0.338 N 
HETATM    2  C5  UNL     1      23.938  -0.563  53.592  1.00  0.00     0.110 C 
HETATM    3  C6  UNL     1      22.755  -0.943  53.056  1.00  0.00     0.102 C 
HETATM    4  N2  UNL     1      21.996   0.003  52.259  1.00  0.00    -0.372 N 
HETATM    5  C7  UNL     1      22.034   1.480  52.200  1.00  0.00     0.225 C 
HETATM    6  C8  UNL     1      22.148   2.055  50.873  1.00  0.00     0.087 C 
HETATM    7  C9  UNL     1      23.349   2.621  50.289  1.00  0.00     0.147 C 
HETATM    8  C11 UNL     1      24.307   3.461  51.027  1.00  0.00     0.119 C 
HETATM    9  C15 UNL     1      24.904   2.909  52.303  1.00  0.00     0.082 C 
HETATM   10  C16 UNL     1      24.223   1.666  52.511  1.00  0.00     0.231 C 
HETATM   11  O3  UNL     1      22.956   2.003  53.051  1.00  0.00    -0.342 OA
HETATM   12  H8  UNL     1      21.309  -0.461  51.624  1.00  0.00     0.161 HD
ENDROOT
BRANCH   8  13
HETATM   13  N3  UNL     1      25.497   3.594  50.153  1.00  0.00    -0.349 N 
HETATM   14  C12 UNL     1      26.340   2.495  49.691  1.00  0.00     0.153 C 
HETATM   15  C13 UNL     1      25.788   4.914  49.790  1.00  0.00     0.215 C 
HETATM   16  C14 UNL     1      26.915   5.355  48.925  1.00  0.00     0.117 C 
HETATM   17  O2  UNL     1      25.015   5.824  50.243  1.00  0.00    -0.274 OA
ENDBRANCH   8  13
BRANCH   7  18
HETATM   18  O1  UNL     1      22.947   3.501  49.230  1.00  0.00    -0.388 OA
HETATM   19  C10 UNL     1      22.522   2.917  48.098  1.00  0.00     0.202 C 
ENDBRANCH   7  18
BRANCH   1  20
HETATM   20  C4  UNL     1      25.958   0.699  54.119  1.00  0.00     0.093 C 
HETATM   21  C3  UNL     1      27.036   0.005  53.804  1.00  0.00     0.013 C 
BRANCH  21  22
HETATM   22  C2  UNL     1      28.360  -0.089  54.390  1.00  0.00    -0.025 C 
HETATM   23  C1  UNL     1      29.466   0.486  53.954  1.00  0.00     0.031 C 
ENDBRANCH  21  22
ENDBRANCH   1  20
TORSDOF 4
ENDMDL
MODEL 7
REMARK VINA RESULT:      -6.3      3.633      5.070
REMARK  4 active torsions:
REMARK  status: ('A' for Active; 'I' for Inactive)
REMARK    1  A    between atoms: C2_2  and  C3_3 
REMARK    2  A    between atoms: C4_4  and  N1_5 
REMARK    3  A    between atoms: C9_11  and  O1_12 
REMARK    4  A    between atoms: C11_14  and  N3_15 
REMARK       I    between atoms: N3_15  and  C13_17 
ROOT
HETATM    1  N1  UNL     1      25.109   5.626  50.007  1.00  0.00    -0.338 N 
HETATM    2  C5  UNL     1      25.153   7.081  50.119  1.00  0.00     0.110 C 
HETATM    3  C6  UNL     1      24.228   7.967  50.554  1.00  0.00     0.102 C 
HETATM    4  N2  UNL     1      22.880   7.509  50.842  1.00  0.00    -0.372 N 
HETATM    5  C7  UNL     1      22.142   6.309  50.391  1.00  0.00     0.225 C 
HETATM    6  C8  UNL     1      21.504   5.533  51.438  1.00  0.00     0.087 C 
HETATM    7  C9  UNL     1      21.981   4.273  51.975  1.00  0.00     0.147 C 
HETATM    8  C11 UNL     1      22.560   3.194  51.157  1.00  0.00     0.119 C 
HETATM    9  C15 UNL     1      23.735   3.529  50.264  1.00  0.00     0.082 C 
HETATM   10  C16 UNL     1      23.893   4.946  50.393  1.00  0.00     0.231 C 
HETATM   11  O3  UNL     1      22.890   5.524  49.572  1.00  0.00    -0.342 OA
HETATM   12  H8  UNL     1      22.361   8.153  51.479  1.00  0.00     0.161 HD
ENDROOT
BRANCH   8  13
HETATM   13  N3  UNL     1      23.152   2.226  52.111  1.00  0.00    -0.349 N 
HETATM   14  C12 UNL     1      24.185   2.529  53.099  1.00  0.00     0.153 C 
HETATM   15  C13 UNL     1      22.645   0.928  51.988  1.00  0.00     0.215 C 
HETATM   16  C14 UNL     1      23.046  -0.249  52.805  1.00  0.00     0.117 C 
HETATM   17  O2  UNL     1      21.756   0.735  51.092  1.00  0.00    -0.274 OA
ENDBRANCH   8  13
BRANCH   7  18
HETATM   18  O1  UNL     1      20.866   3.608  52.584  1.00  0.00    -0.388 OA
HETATM   19  C10 UNL     1      19.747   3.520  51.845  1.00  0.00     0.202 C 
ENDBRANCH   7  18
BRANCH   1  20
HETATM   20  C4  UNL     1      26.293   5.009  49.520  1.00  0.00     0.093 C 
HETATM   21  C3  UNL     1      27.226   5.637  48.827  1.00  0.00     0.013 C 
BRANCH  21  22
HETATM   22  C2  UNL     1      28.484   5.208  48.245  1.00  0.00    -0.025 C 
HETATM   23  C1  UNL     1      29.573   5.937  48.077  1.00  0.00     0.031 C 
ENDBRANCH  21  22
ENDBRANCH   1  20
TORSDOF 4
ENDMDL
MODEL 8
REMARK VINA RESULT:      -6.0      4.008      7.112
REMARK  4 active torsions:
REMARK  status: ('A' for Active; 'I' for Inactive)
REMARK    1  A    between atoms: C2_2  and  C3_3 
REMARK    2  A    between atoms: C4_4  and  N1_5 
REMARK    3  A    between atoms: C9_11  and  O1_12 
REMARK    4  A    between atoms: C11_14  and  N3_15 
REMARK       I    between atoms: N3_15  and  C13_17 
ROOT
HETATM    1  N1  UNL     1      22.864   0.466  53.210  1.00  0.00    -0.338 N 
HETATM    2  C5  UNL     1      22.904  -0.711  54.073  1.00  0.00     0.110 C 
HETATM    3  C6  UNL     1      21.932  -1.580  54.434  1.00  0.00     0.102 C 
HETATM    4  N2  UNL     1      20.554  -1.300  54.076  1.00  0.00    -0.372 N 
HETATM    5  C7  UNL     1      19.879  -0.035  53.715  1.00  0.00     0.225 C 
HETATM    6  C8  UNL     1      19.089  -0.068  52.498  1.00  0.00     0.087 C 
HETATM    7  C9  UNL     1      19.470   0.494  51.217  1.00  0.00     0.147 C 
HETATM    8  C11 UNL     1      20.154   1.789  51.057  1.00  0.00     0.119 C 
HETATM    9  C15 UNL     1      21.450   2.009  51.806  1.00  0.00     0.082 C 
HETATM   10  C16 UNL     1      21.599   0.839  52.619  1.00  0.00     0.231 C 
HETATM   11  O3  UNL     1      20.732   1.023  53.726  1.00  0.00    -0.342 OA
HETATM   12  H8  UNL     1      19.952  -2.153  54.081  1.00  0.00     0.161 HD
ENDROOT
BRANCH   8  13
HETATM   13  N3  UNL     1      20.592   1.850  49.642  1.00  0.00    -0.349 N 
HETATM   14  C12 UNL     1      21.470   0.888  48.980  1.00  0.00     0.153 C 
HETATM   15  C13 UNL     1      20.099   2.959  48.944  1.00  0.00     0.215 C 
HETATM   16  C14 UNL     1      20.367   3.284  47.518  1.00  0.00     0.117 C 
HETATM   17  O2  UNL     1      19.350   3.765  49.592  1.00  0.00    -0.274 OA
ENDBRANCH   8  13
BRANCH   7  18
HETATM   18  O1  UNL     1      18.273   0.703  50.457  1.00  0.00    -0.388 OA
HETATM   19  C10 UNL     1      17.339  -0.261  50.538  1.00  0.00     0.202 C 
ENDBRANCH   7  18
BRANCH   1  20
HETATM   20  C4  UNL     1      24.102   1.142  53.034  1.00  0.00     0.093 C 
HETATM   21  C3  UNL     1      25.059   0.739  52.218  1.00  0.00     0.013 C 
BRANCH  21  22
HETATM   22  C2  UNL     1      26.370   1.266  51.892  1.00  0.00    -0.025 C 
HETATM   23  C1  UNL     1      27.232   1.825  52.723  1.00  0.00     0.031 C 
ENDBRANCH  21  22
ENDBRANCH   1  20
TORSDOF 4
ENDMDL
MODEL 9
REMARK VINA RESULT:      -6.0      8.529     10.990
REMARK  4 active torsions:
REMARK  status: ('A' for Active; 'I' for Inactive)
REMARK    1  A    between atoms: C2_2  and  C3_3 
REMARK    2  A    between atoms: C4_4  and  N1_5 
REMARK    3  A    between atoms: C9_11  and  O1_12 
REMARK    4  A    between atoms: C11_14  and  N3_15 
REMARK       I    between atoms: N3_15  and  C13_17 
ROOT
HETATM    1  N1  UNL     1      33.612   4.737  47.236  1.00  0.00    -0.338 N 
HETATM    2  C5  UNL     1      34.741   4.494  48.129  1.00  0.00     0.110 C 
HETATM    3  C6  UNL     1      35.409   5.324  48.962  1.00  0.00     0.102 C 
HETATM    4  N2  UNL     1      35.129   6.748  48.927  1.00  0.00    -0.372 N 
HETATM    5  C7  UNL     1      34.522   7.596  47.879  1.00  0.00     0.225 C 
HETATM    6  C8  UNL     1      33.440   8.459  48.315  1.00  0.00     0.087 C 
HETATM    7  C9  UNL     1      32.026   8.238  48.082  1.00  0.00     0.147 C 
HETATM    8  C11 UNL     1      31.469   7.731  46.817  1.00  0.00     0.119 C 
HETATM    9  C15 UNL     1      32.004   6.423  46.275  1.00  0.00     0.082 C 
HETATM   10  C16 UNL     1      33.072   6.076  47.164  1.00  0.00     0.231 C 
HETATM   11  O3  UNL     1      34.175   6.881  46.777  1.00  0.00    -0.342 OA
HETATM   12  H8  UNL     1      35.414   7.240  49.803  1.00  0.00     0.161 HD
ENDROOT
BRANCH   8  13
HETATM   13  N3  UNL     1      30.050   7.403  47.093  1.00  0.00    -0.349 N 
HETATM   14  C12 UNL     1      29.578   6.429  48.075  1.00  0.00     0.153 C 
HETATM   15  C13 UNL     1      29.140   8.110  46.300  1.00  0.00     0.215 C 
HETATM   16  C14 UNL     1      27.658   7.992  46.351  1.00  0.00     0.117 C 
HETATM   17  O2  UNL     1      29.627   8.934  45.453  1.00  0.00    -0.274 OA
ENDBRANCH   8  13
BRANCH   7  18
HETATM   18  O1  UNL     1      31.359   9.502  48.206  1.00  0.00    -0.388 OA
HETATM   19  C10 UNL     1      30.866   9.800  49.420  1.00  0.00     0.202 C 
ENDBRANCH   7  18
BRANCH   1  20
HETATM   20  C4  UNL     1      33.145   3.607  46.512  1.00  0.00     0.093 C 
HETATM   21  C3  UNL     1      32.322   2.698  47.003  1.00  0.00     0.013 C 
BRANCH  21  22
HETATM   22  C2  UNL     1      31.734   1.493  46.451  1.00  0.00    -0.025 C 
HETATM   23  C1  UNL     1      32.071   0.245  46.723  1.00  0.00     0.031 C 
ENDBRANCH  21  22
ENDBRANCH   1  20
TORSDOF 4
ENDMDL
