MODEL 1
REMARK VINA RESULT:      -8.4      0.000      0.000
REMARK  8 active torsions:
REMARK  status: ('A' for Active; 'I' for Inactive)
REMARK    1  A    between atoms: O1_2  and  C2_3 
REMARK    2  A    between atoms: C6_9  and  N3_10 
REMARK    3  A    between atoms: N3_10  and  C7_11 
REMARK    4  A    between atoms: C15_20  and  O2_21 
REMARK    5  A    between atoms: O2_21  and  C16_22 
REMARK    6  A    between atoms: C16_22  and  C17_23 
REMARK    7  A    between atoms: C17_23  and  O3_24 
REMARK    8  A    between atoms: O3_24  and  N4_25 
ROOT
HETATM    1  C2  UNL     1      20.528  -0.308  53.052  1.00  0.00     0.103 A 
HETATM    2  C3  UNL     1      21.003  -0.833  54.245  1.00  0.00     0.072 A 
HETATM    3  C4  UNL     1      22.368  -0.877  54.448  1.00  0.00     0.075 A 
HETATM    4  N1  UNL     1      22.867  -1.376  55.582  1.00  0.00    -0.241 NA
HETATM    5  C5  UNL     1      24.202  -1.439  55.828  1.00  0.00     0.236 A 
HETATM    6  N2  UNL     1      25.059  -0.984  54.897  1.00  0.00    -0.224 NA
HETATM    7  C6  UNL     1      24.580  -0.472  53.734  1.00  0.00     0.142 A 
HETATM    8  C13 UNL     1      23.232  -0.407  53.485  1.00  0.00     0.042 A 
HETATM    9  C14 UNL     1      22.722   0.110  52.311  1.00  0.00     0.057 A 
HETATM   10  C15 UNL     1      21.363   0.172  52.065  1.00  0.00     0.103 A 
ENDROOT
BRANCH   7  11
HETATM   11  N3  UNL     1      25.499   0.003  52.768  1.00  0.00    -0.340 N 
HETATM   12  H6  UNL     1      25.122   0.274  51.834  1.00  0.00     0.167 HD
BRANCH  11  13
HETATM   13  C7  UNL     1      26.867   0.093  53.089  1.00  0.00     0.036 A 
HETATM   14  C8  UNL     1      27.661  -1.029  53.002  1.00  0.00     0.029 A 
HETATM   15  C9  UNL     1      28.995  -0.894  53.326  1.00  0.00     0.005 A 
HETATM   16  C10 UNL     1      29.523   0.323  53.723  1.00  0.00     0.042 A 
HETATM   17  C11 UNL     1      28.726   1.454  53.811  1.00  0.00     0.118 A 
HETATM   18  F1  UNL     1      29.255   2.629  54.199  1.00  0.00    -0.206 F 
HETATM   19  C12 UNL     1      27.378   1.320  53.485  1.00  0.00     0.071 A 
ENDBRANCH  11  13
ENDBRANCH   7  11
BRANCH  10  20
HETATM   20  O2  UNL     1      20.773   0.670  50.926  1.00  0.00    -0.346 OA
BRANCH  20  21
HETATM   21  C16 UNL     1      21.410   0.849  49.683  1.00  0.00     0.204 C 
BRANCH  21  22
HETATM   22  C17 UNL     1      21.816   2.294  49.468  1.00  0.00     0.220 C 
BRANCH  22  23
HETATM   23  O3  UNL     1      23.195   2.469  49.421  1.00  0.00    -0.301 OA
BRANCH  23  24
HETATM   24  N4  UNL     1      23.519   3.483  50.224  1.00  0.00    -0.197 NA
HETATM   25  C18 UNL     1      22.420   4.151  50.853  1.00  0.00     0.120 C 
HETATM   26  C19 UNL     1      22.431   3.800  52.318  1.00  0.00     0.018 C 
HETATM   27  C20 UNL     1      23.884   3.501  52.575  1.00  0.00     0.018 C 
HETATM   28  C21 UNL     1      24.485   3.166  51.234  1.00  0.00     0.120 C 
ENDBRANCH  23  24
ENDBRANCH  22  23
ENDBRANCH  21  22
ENDBRANCH  20  21
ENDBRANCH  10  20
BRANCH   1  29
HETATM   29  O1  UNL     1      19.151  -0.277  52.875  1.00  0.00    -0.353 OA
HETATM   30  C1  UNL     1      18.375  -1.369  53.375  1.00  0.00     0.210 C 
ENDBRANCH   1  29
TORSDOF 8
ENDMDL
MODEL 2
REMARK VINA RESULT:      -8.4      1.129      1.777
REMARK  8 active torsions:
REMARK  status: ('A' for Active; 'I' for Inactive)
REMARK    1  A    between atoms: O1_2  and  C2_3 
REMARK    2  A    between atoms: C6_9  and  N3_10 
REMARK    3  A    between atoms: N3_10  and  C7_11 
REMARK    4  A    between atoms: C15_20  and  O2_21 
REMARK    5  A    between atoms: O2_21  and  C16_22 
REMARK    6  A    between atoms: C16_22  and  C17_23 
REMARK    7  A    between atoms: C17_23  and  O3_24 
REMARK    8  A    between atoms: O3_24  and  N4_25 
ROOT
HETATM    1  C2  UNL     1      20.664  -0.202  53.071  1.00  0.00     0.103 A 
HETATM    2  C3  UNL     1      21.122  -0.737  54.266  1.00  0.00     0.072 A 
HETATM    3  C4  UNL     1      22.485  -0.831  54.466  1.00  0.00     0.075 A 
HETATM    4  N1  UNL     1      22.968  -1.341  55.602  1.00  0.00    -0.241 NA
HETATM    5  C5  UNL     1      24.300  -1.454  55.845  1.00  0.00     0.236 A 
HETATM    6  N2  UNL     1      25.172  -1.039  54.908  1.00  0.00    -0.224 NA
HETATM    7  C6  UNL     1      24.709  -0.517  53.742  1.00  0.00     0.142 A 
HETATM    8  C13 UNL     1      23.364  -0.402  53.496  1.00  0.00     0.042 A 
HETATM    9  C14 UNL     1      22.870   0.125  52.321  1.00  0.00     0.057 A 
HETATM   10  C15 UNL     1      21.514   0.238  52.077  1.00  0.00     0.103 A 
ENDROOT
BRANCH   7  11
HETATM   11  N3  UNL     1      25.643  -0.086  52.770  1.00  0.00    -0.340 N 
HETATM   12  H6  UNL     1      25.346  -0.113  51.770  1.00  0.00     0.167 HD
BRANCH  11  13
HETATM   13  C7  UNL     1      26.917   0.357  53.172  1.00  0.00     0.036 A 
HETATM   14  C8  UNL     1      27.107   1.684  53.488  1.00  0.00     0.029 A 
HETATM   15  C9  UNL     1      28.371   2.073  53.877  1.00  0.00     0.005 A 
HETATM   16  C10 UNL     1      29.416   1.168  53.950  1.00  0.00     0.042 A 
HETATM   17  C11 UNL     1      29.228  -0.168  53.632  1.00  0.00     0.118 A 
HETATM   18  F1  UNL     1      30.255  -1.035  53.708  1.00  0.00    -0.206 F 
HETATM   19  C12 UNL     1      27.952  -0.564  53.239  1.00  0.00     0.071 A 
ENDBRANCH  11  13
ENDBRANCH   7  11
BRANCH  10  20
HETATM   20  O2  UNL     1      20.940   0.750  50.937  1.00  0.00    -0.346 OA
BRANCH  20  21
HETATM   21  C16 UNL     1      21.623   1.073  49.748  1.00  0.00     0.204 C 
BRANCH  21  22
HETATM   22  C17 UNL     1      22.025   2.535  49.715  1.00  0.00     0.220 C 
BRANCH  22  23
HETATM   23  O3  UNL     1      23.240   2.749  49.074  1.00  0.00    -0.301 OA
BRANCH  23  24
HETATM   24  N4  UNL     1      23.996   3.526  49.851  1.00  0.00    -0.197 NA
HETATM   25  C18 UNL     1      24.939   2.841  50.682  1.00  0.00     0.120 C 
HETATM   26  C19 UNL     1      26.320   3.100  50.140  1.00  0.00     0.018 C 
HETATM   27  C20 UNL     1      26.160   4.428  49.448  1.00  0.00     0.018 C 
HETATM   28  C21 UNL     1      24.688   4.574  49.162  1.00  0.00     0.120 C 
ENDBRANCH  23  24
ENDBRANCH  22  23
ENDBRANCH  21  22
ENDBRANCH  20  21
ENDBRANCH  10  20
BRANCH   1  29
HETATM   29  O1  UNL     1      19.289  -0.119  52.897  1.00  0.00    -0.353 OA
HETATM   30  C1  UNL     1      18.483  -1.230  53.298  1.00  0.00     0.210 C 
ENDBRANCH   1  29
TORSDOF 8
ENDMDL
MODEL 3
REMARK VINA RESULT:      -7.9      2.132      2.959
REMARK  8 active torsions:
REMARK  status: ('A' for Active; 'I' for Inactive)
REMARK    1  A    between atoms: O1_2  and  C2_3 
REMARK    2  A    between atoms: C6_9  and  N3_10 
REMARK    3  A    between atoms: N3_10  and  C7_11 
REMARK    4  A    between atoms: C15_20  and  O2_21 
REMARK    5  A    between atoms: O2_21  and  C16_22 
REMARK    6  A    between atoms: C16_22  and  C17_23 
REMARK    7  A    between atoms: C17_23  and  O3_24 
REMARK    8  A    between atoms: O3_24  and  N4_25 
ROOT
HETATM    1  C2  UNL     1      20.817   2.418  52.439  1.00  0.00     0.103 A 
HETATM    2  C3  UNL     1      20.894   1.369  53.343  1.00  0.00     0.072 A 
HETATM    3  C4  UNL     1      22.093   0.695  53.470  1.00  0.00     0.075 A 
HETATM    4  N1  UNL     1      22.210  -0.322  54.328  1.00  0.00    -0.241 NA
HETATM    5  C5  UNL     1      23.368  -1.015  54.488  1.00  0.00     0.236 A 
HETATM    6  N2  UNL     1      24.442  -0.669  53.755  1.00  0.00    -0.224 NA
HETATM    7  C6  UNL     1      24.352   0.361  52.874  1.00  0.00     0.142 A 
HETATM    8  C13 UNL     1      23.183   1.062  52.712  1.00  0.00     0.042 A 
HETATM    9  C14 UNL     1      23.068   2.111  51.824  1.00  0.00     0.057 A 
HETATM   10  C15 UNL     1      21.888   2.814  51.664  1.00  0.00     0.103 A 
ENDROOT
BRANCH   7  11
HETATM   11  N3  UNL     1      25.493   0.709  52.114  1.00  0.00    -0.340 N 
HETATM   12  H6  UNL     1      25.354   0.919  51.101  1.00  0.00     0.167 HD
BRANCH  11  13
HETATM   13  C7  UNL     1      26.757   0.762  52.733  1.00  0.00     0.036 A 
HETATM   14  C8  UNL     1      27.232   1.965  53.207  1.00  0.00     0.029 A 
HETATM   15  C9  UNL     1      28.474   1.969  53.806  1.00  0.00     0.005 A 
HETATM   16  C10 UNL     1      29.221   0.811  53.930  1.00  0.00     0.042 A 
HETATM   17  C11 UNL     1      28.746  -0.401  53.452  1.00  0.00     0.118 A 
HETATM   18  F1  UNL     1      29.486  -1.519  53.581  1.00  0.00    -0.206 F 
HETATM   19  C12 UNL     1      27.491  -0.409  52.847  1.00  0.00     0.071 A 
ENDBRANCH  11  13
ENDBRANCH   7  11
BRANCH  10  20
HETATM   20  O2  UNL     1      21.689   3.868  50.804  1.00  0.00    -0.346 OA
BRANCH  20  21
HETATM   21  C16 UNL     1      21.701   5.231  51.160  1.00  0.00     0.204 C 
BRANCH  21  22
HETATM   22  C17 UNL     1      23.059   5.859  50.916  1.00  0.00     0.220 C 
BRANCH  22  23
HETATM   23  O3  UNL     1      23.786   5.211  49.924  1.00  0.00    -0.301 OA
BRANCH  23  24
HETATM   24  N4  UNL     1      25.076   5.235  50.261  1.00  0.00    -0.197 NA
HETATM   25  C18 UNL     1      25.684   3.956  50.477  1.00  0.00     0.120 C 
HETATM   26  C19 UNL     1      26.626   3.684  49.334  1.00  0.00     0.018 C 
HETATM   27  C20 UNL     1      27.008   5.068  48.883  1.00  0.00     0.018 C 
HETATM   28  C21 UNL     1      25.916   5.983  49.374  1.00  0.00     0.120 C 
ENDBRANCH  23  24
ENDBRANCH  22  23
ENDBRANCH  21  22
ENDBRANCH  20  21
ENDBRANCH  10  20
BRANCH   1  29
HETATM   29  O1  UNL     1      19.600   3.078  52.333  1.00  0.00    -0.353 OA
HETATM   30  C1  UNL     1      18.558   2.466  51.569  1.00  0.00     0.210 C 
ENDBRANCH   1  29
TORSDOF 8
ENDMDL
MODEL 4
REMARK VINA RESULT:      -7.8      2.191      5.352
REMARK  8 active torsions:
REMARK  status: ('A' for Active; 'I' for Inactive)
REMARK    1  A    between atoms: O1_2  and  C2_3 
REMARK    2  A    between atoms: C6_9  and  N3_10 
REMARK    3  A    between atoms: N3_10  and  C7_11 
REMARK    4  A    between atoms: C15_20  and  O2_21 
REMARK    5  A    between atoms: O2_21  and  C16_22 
REMARK    6  A    between atoms: C16_22  and  C17_23 
REMARK    7  A    between atoms: C17_23  and  O3_24 
REMARK    8  A    between atoms: O3_24  and  N4_25 
ROOT
HETATM    1  C2  UNL     1      22.742   5.656  51.016  1.00  0.00     0.103 A 
HETATM    2  C3  UNL     1      23.861   5.979  50.263  1.00  0.00     0.072 A 
HETATM    3  C4  UNL     1      24.863   5.038  50.134  1.00  0.00     0.075 A 
HETATM    4  N1  UNL     1      25.958   5.309  49.419  1.00  0.00    -0.241 NA
HETATM    5  C5  UNL     1      26.970   4.415  49.263  1.00  0.00     0.236 A 
HETATM    6  N2  UNL     1      26.871   3.209  49.850  1.00  0.00    -0.224 NA
HETATM    7  C6  UNL     1      25.769   2.905  50.584  1.00  0.00     0.142 A 
HETATM    8  C13 UNL     1      24.746   3.808  50.742  1.00  0.00     0.042 A 
HETATM    9  C14 UNL     1      23.617   3.522  51.482  1.00  0.00     0.057 A 
HETATM   10  C15 UNL     1      22.590   4.435  51.639  1.00  0.00     0.103 A 
ENDROOT
BRANCH   7  11
HETATM   11  N3  UNL     1      25.684   1.631  51.193  1.00  0.00    -0.340 N 
HETATM   12  H6  UNL     1      24.851   1.043  50.970  1.00  0.00     0.167 HD
BRANCH  11  13
HETATM   13  C7  UNL     1      26.705   1.201  52.062  1.00  0.00     0.036 A 
HETATM   14  C8  UNL     1      26.903  -0.147  52.264  1.00  0.00     0.029 A 
HETATM   15  C9  UNL     1      27.914  -0.521  53.124  1.00  0.00     0.005 A 
HETATM   16  C10 UNL     1      28.705   0.417  53.763  1.00  0.00     0.042 A 
HETATM   17  C11 UNL     1      28.507   1.775  53.562  1.00  0.00     0.118 A 
HETATM   18  F1  UNL     1      29.285   2.675  54.192  1.00  0.00    -0.206 F 
HETATM   19  C12 UNL     1      27.487   2.157  52.694  1.00  0.00     0.071 A 
ENDBRANCH  11  13
ENDBRANCH   7  11
BRANCH  10  20
HETATM   20  O2  UNL     1      21.435   4.231  52.356  1.00  0.00    -0.346 OA
BRANCH  20  21
HETATM   21  C16 UNL     1      20.314   3.499  51.918  1.00  0.00     0.204 C 
BRANCH  21  22
HETATM   22  C17 UNL     1      20.138   2.220  52.713  1.00  0.00     0.220 C 
BRANCH  22  23
HETATM   23  O3  UNL     1      21.078   1.248  52.391  1.00  0.00    -0.301 OA
BRANCH  23  24
HETATM   24  N4  UNL     1      21.773   0.952  53.490  1.00  0.00    -0.197 NA
HETATM   25  C18 UNL     1      21.071   0.193  54.482  1.00  0.00     0.120 C 
HETATM   26  C19 UNL     1      21.639  -1.202  54.496  1.00  0.00     0.018 C 
HETATM   27  C20 UNL     1      23.046  -0.991  54.004  1.00  0.00     0.018 C 
HETATM   28  C21 UNL     1      23.034   0.315  53.252  1.00  0.00     0.120 C 
ENDBRANCH  23  24
ENDBRANCH  22  23
ENDBRANCH  21  22
ENDBRANCH  20  21
ENDBRANCH  10  20
BRANCH   1  29
HETATM   29  O1  UNL     1      21.751   6.622  51.128  1.00  0.00    -0.353 OA
HETATM   30  C1  UNL     1      21.737   7.696  50.185  1.00  0.00     0.210 C 
ENDBRANCH   1  29
TORSDOF 8
ENDMDL
MODEL 5
REMARK VINA RESULT:      -7.7      2.765      5.816
REMARK  8 active torsions:
REMARK  status: ('A' for Active; 'I' for Inactive)
REMARK    1  A    between atoms: O1_2  and  C2_3 
REMARK    2  A    between atoms: C6_9  and  N3_10 
REMARK    3  A    between atoms: N3_10  and  C7_11 
REMARK    4  A    between atoms: C15_20  and  O2_21 
REMARK    5  A    between atoms: O2_21  and  C16_22 
REMARK    6  A    between atoms: C16_22  and  C17_23 
REMARK    7  A    between atoms: C17_23  and  O3_24 
REMARK    8  A    between atoms: O3_24  and  N4_25 
ROOT
HETATM    1  C2  UNL     1      21.278   0.715  52.836  1.00  0.00     0.103 A 
HETATM    2  C3  UNL     1      20.462   1.587  52.132  1.00  0.00     0.072 A 
HETATM    3  C4  UNL     1      20.990   2.794  51.719  1.00  0.00     0.075 A 
HETATM    4  N1  UNL     1      20.238   3.664  51.039  1.00  0.00    -0.241 NA
HETATM    5  C5  UNL     1      20.712   4.864  50.612  1.00  0.00     0.236 A 
HETATM    6  N2  UNL     1      21.987   5.195  50.881  1.00  0.00    -0.224 NA
HETATM    7  C6  UNL     1      22.776   4.330  51.572  1.00  0.00     0.142 A 
HETATM    8  C13 UNL     1      22.298   3.118  52.003  1.00  0.00     0.042 A 
HETATM    9  C14 UNL     1      23.079   2.223  52.706  1.00  0.00     0.057 A 
HETATM   10  C15 UNL     1      22.593   1.004  53.139  1.00  0.00     0.103 A 
ENDROOT
BRANCH   7  11
HETATM   11  N3  UNL     1      24.115   4.697  51.844  1.00  0.00    -0.340 N 
HETATM   12  H6  UNL     1      24.346   4.997  52.817  1.00  0.00     0.167 HD
BRANCH  11  13
HETATM   13  C7  UNL     1      25.077   4.648  50.817  1.00  0.00     0.036 A 
HETATM   14  C8  UNL     1      25.714   3.459  50.538  1.00  0.00     0.029 A 
HETATM   15  C9  UNL     1      26.648   3.459  49.524  1.00  0.00     0.005 A 
HETATM   16  C10 UNL     1      26.940   4.607  48.808  1.00  0.00     0.042 A 
HETATM   17  C11 UNL     1      26.300   5.805  49.087  1.00  0.00     0.118 A 
HETATM   18  F1  UNL     1      26.596   6.912  48.381  1.00  0.00    -0.206 F 
HETATM   19  C12 UNL     1      25.356   5.809  50.111  1.00  0.00     0.071 A 
ENDBRANCH  11  13
ENDBRANCH   7  11
BRANCH  10  20
HETATM   20  O2  UNL     1      23.302   0.058  53.842  1.00  0.00    -0.346 OA
BRANCH  20  21
HETATM   21  C16 UNL     1      24.410  -0.664  53.358  1.00  0.00     0.204 C 
BRANCH  21  22
HETATM   22  C17 UNL     1      25.701  -0.208  54.010  1.00  0.00     0.220 C 
BRANCH  22  23
HETATM   23  O3  UNL     1      26.705  -1.167  53.955  1.00  0.00    -0.301 OA
BRANCH  23  24
HETATM   24  N4  UNL     1      27.675  -0.718  53.157  1.00  0.00    -0.197 NA
HETATM   25  C18 UNL     1      27.958   0.683  53.254  1.00  0.00     0.120 C 
HETATM   26  C19 UNL     1      29.291   0.848  53.936  1.00  0.00     0.018 C 
HETATM   27  C20 UNL     1      29.996  -0.438  53.600  1.00  0.00     0.018 C 
HETATM   28  C21 UNL     1      28.915  -1.430  53.257  1.00  0.00     0.120 C 
ENDBRANCH  23  24
ENDBRANCH  22  23
ENDBRANCH  21  22
ENDBRANCH  20  21
ENDBRANCH  10  20
BRANCH   1  29
HETATM   29  O1  UNL     1      20.722  -0.492  53.238  1.00  0.00    -0.353 OA
HETATM   30  C1  UNL     1      19.297  -0.612  53.259  1.00  0.00     0.210 C 
ENDBRANCH   1  29
TORSDOF 8
ENDMDL
MODEL 6
REMARK VINA RESULT:      -7.4      3.131      6.668
REMARK  8 active torsions:
REMARK  status: ('A' for Active; 'I' for Inactive)
REMARK    1  A    between atoms: O1_2  and  C2_3 
REMARK    2  A    between atoms: C6_9  and  N3_10 
REMARK    3  A    between atoms: N3_10  and  C7_11 
REMARK    4  A    between atoms: C15_20  and  O2_21 
REMARK    5  A    between atoms: O2_21  and  C16_22 
REMARK    6  A    between atoms: C16_22  and  C17_23 
REMARK    7  A    between atoms: C17_23  and  O3_24 
REMARK    8  A    between atoms: O3_24  and  N4_25 
ROOT
HETATM    1  C2  UNL     1      21.849   2.196  52.292  1.00  0.00     0.103 A 
HETATM    2  C3  UNL     1      20.977   3.086  51.683  1.00  0.00     0.072 A 
HETATM    3  C4  UNL     1      21.450   4.336  51.335  1.00  0.00     0.075 A 
HETATM    4  N1  UNL     1      20.643   5.225  50.748  1.00  0.00    -0.241 NA
HETATM    5  C5  UNL     1      21.062   6.466  50.386  1.00  0.00     0.236 A 
HETATM    6  N2  UNL     1      22.337   6.820  50.628  1.00  0.00    -0.224 NA
HETATM    7  C6  UNL     1      23.180   5.938  51.224  1.00  0.00     0.142 A 
HETATM    8  C13 UNL     1      22.758   4.683  51.589  1.00  0.00     0.042 A 
HETATM    9  C14 UNL     1      23.595   3.770  52.195  1.00  0.00     0.057 A 
HETATM   10  C15 UNL     1      23.165   2.508  52.562  1.00  0.00     0.103 A 
ENDROOT
BRANCH   7  11
HETATM   11  N3  UNL     1      24.517   6.330  51.468  1.00  0.00    -0.340 N 
HETATM   12  H6  UNL     1      24.786   6.546  52.453  1.00  0.00     0.167 HD
BRANCH  11  13
HETATM   13  C7  UNL     1      25.428   6.415  50.398  1.00  0.00     0.036 A 
HETATM   14  C8  UNL     1      25.732   7.647  49.860  1.00  0.00     0.029 A 
HETATM   15  C9  UNL     1      26.628   7.683  48.813  1.00  0.00     0.005 A 
HETATM   16  C10 UNL     1      27.206   6.528  48.316  1.00  0.00     0.042 A 
HETATM   17  C11 UNL     1      26.902   5.287  48.855  1.00  0.00     0.118 A 
HETATM   18  F1  UNL     1      27.473   4.173  48.359  1.00  0.00    -0.206 F 
HETATM   19  C12 UNL     1      25.997   5.247  49.912  1.00  0.00     0.071 A 
ENDBRANCH  11  13
ENDBRANCH   7  11
BRANCH  10  20
HETATM   20  O2  UNL     1      23.932   1.540  53.168  1.00  0.00    -0.346 OA
BRANCH  20  21
HETATM   21  C16 UNL     1      25.067   0.921  52.608  1.00  0.00     0.204 C 
BRANCH  21  22
HETATM   22  C17 UNL     1      25.551  -0.233  53.463  1.00  0.00     0.220 C 
BRANCH  22  23
HETATM   23  O3  UNL     1      26.648  -0.890  52.917  1.00  0.00    -0.301 OA
BRANCH  23  24
HETATM   24  N4  UNL     1      27.603  -0.960  53.846  1.00  0.00    -0.197 NA
HETATM   25  C18 UNL     1      28.926  -1.209  53.357  1.00  0.00     0.120 C 
HETATM   26  C19 UNL     1      29.730   0.055  53.513  1.00  0.00     0.018 C 
HETATM   27  C20 UNL     1      29.049   0.740  54.667  1.00  0.00     0.018 C 
HETATM   28  C21 UNL     1      27.660   0.161  54.736  1.00  0.00     0.120 C 
ENDBRANCH  23  24
ENDBRANCH  22  23
ENDBRANCH  21  22
ENDBRANCH  20  21
ENDBRANCH  10  20
BRANCH   1  29
HETATM   29  O1  UNL     1      21.347   0.946  52.631  1.00  0.00    -0.353 OA
HETATM   30  C1  UNL     1      20.801   0.128  51.593  1.00  0.00     0.210 C 
ENDBRANCH   1  29
TORSDOF 8
ENDMDL
MODEL 7
REMARK VINA RESULT:      -7.3      4.297      6.650
REMARK  8 active torsions:
REMARK  status: ('A' for Active; 'I' for Inactive)
REMARK    1  A    between atoms: O1_2  and  C2_3 
REMARK    2  A    between atoms: C6_9  and  N3_10 
REMARK    3  A    between atoms: N3_10  and  C7_11 
REMARK    4  A    between atoms: C15_20  and  O2_21 
REMARK    5  A    between atoms: O2_21  and  C16_22 
REMARK    6  A    between atoms: C16_22  and  C17_23 
REMARK    7  A    between atoms: C17_23  and  O3_24 
REMARK    8  A    between atoms: O3_24  and  N4_25 
ROOT
HETATM    1  C2  UNL     1      24.535   5.522  50.070  1.00  0.00     0.103 A 
HETATM    2  C3  UNL     1      23.581   4.982  50.918  1.00  0.00     0.072 A 
HETATM    3  C4  UNL     1      23.821   3.741  51.475  1.00  0.00     0.075 A 
HETATM    4  N1  UNL     1      22.927   3.184  52.297  1.00  0.00    -0.241 NA
HETATM    5  C5  UNL     1      23.119   1.966  52.869  1.00  0.00     0.236 A 
HETATM    6  N2  UNL     1      24.250   1.290  52.601  1.00  0.00    -0.224 NA
HETATM    7  C6  UNL     1      25.177   1.832  51.768  1.00  0.00     0.142 A 
HETATM    8  C13 UNL     1      24.984   3.062  51.190  1.00  0.00     0.042 A 
HETATM    9  C14 UNL     1      25.911   3.632  50.341  1.00  0.00     0.057 A 
HETATM   10  C15 UNL     1      25.712   4.871  49.761  1.00  0.00     0.103 A 
ENDROOT
BRANCH   7  11
HETATM   11  N3  UNL     1      26.361   1.104  51.499  1.00  0.00    -0.340 N 
HETATM   12  H6  UNL     1      26.434   0.625  50.575  1.00  0.00     0.167 HD
BRANCH  11  13
HETATM   13  C7  UNL     1      27.383   1.049  52.466  1.00  0.00     0.036 A 
HETATM   14  C8  UNL     1      27.835   2.215  53.043  1.00  0.00     0.029 A 
HETATM   15  C9  UNL     1      28.837   2.113  53.985  1.00  0.00     0.005 A 
HETATM   16  C10 UNL     1      29.373   0.888  54.343  1.00  0.00     0.042 A 
HETATM   17  C11 UNL     1      28.919  -0.287  53.762  1.00  0.00     0.118 A 
HETATM   18  F1  UNL     1      29.451  -1.471  54.121  1.00  0.00    -0.206 F 
HETATM   19  C12 UNL     1      27.907  -0.188  52.811  1.00  0.00     0.071 A 
ENDBRANCH  11  13
ENDBRANCH   7  11
BRANCH  10  20
HETATM   20  O2  UNL     1      26.581   5.510  48.908  1.00  0.00    -0.346 OA
BRANCH  20  21
HETATM   21  C16 UNL     1      27.858   5.044  48.537  1.00  0.00     0.204 C 
BRANCH  21  22
HETATM   22  C17 UNL     1      28.827   6.190  48.316  1.00  0.00     0.220 C 
BRANCH  22  23
HETATM   23  O3  UNL     1      29.908   5.839  47.514  1.00  0.00    -0.301 OA
BRANCH  23  24
HETATM   24  N4  UNL     1      30.811   5.217  48.272  1.00  0.00    -0.197 NA
HETATM   25  C18 UNL     1      31.814   4.481  47.563  1.00  0.00     0.120 C 
HETATM   26  C19 UNL     1      33.121   5.217  47.695  1.00  0.00     0.018 C 
HETATM   27  C20 UNL     1      32.953   5.957  48.995  1.00  0.00     0.018 C 
HETATM   28  C21 UNL     1      31.469   6.053  49.233  1.00  0.00     0.120 C 
ENDBRANCH  23  24
ENDBRANCH  22  23
ENDBRANCH  21  22
ENDBRANCH  20  21
ENDBRANCH  10  20
BRANCH   1  29
HETATM   29  O1  UNL     1      24.268   6.771  49.525  1.00  0.00    -0.353 OA
HETATM   30  C1  UNL     1      24.333   7.915  50.380  1.00  0.00     0.210 C 
ENDBRANCH   1  29
TORSDOF 8
ENDMDL
MODEL 8
REMARK VINA RESULT:      -7.2      2.261      5.242
REMARK  8 active torsions:
REMARK  status: ('A' for Active; 'I' for Inactive)
REMARK    1  A    between atoms: O1_2  and  C2_3 
REMARK    2  A    between atoms: C6_9  and  N3_10 
REMARK    3  A    between atoms: N3_10  and  C7_11 
REMARK    4  A    between atoms: C15_20  and  O2_21 
REMARK    5  A    between atoms: O2_21  and  C16_22 
REMARK    6  A    between atoms: C16_22  and  C17_23 
REMARK    7  A    between atoms: C17_23  and  O3_24 
REMARK    8  A    between atoms: O3_24  and  N4_25 
ROOT
HETATM    1  C2  UNL     1      19.906  -0.470  53.279  1.00  0.00     0.103 A 
HETATM    2  C3  UNL     1      19.257   0.375  52.392  1.00  0.00     0.072 A 
HETATM    3  C4  UNL     1      19.881   1.551  52.025  1.00  0.00     0.075 A 
HETATM    4  N1  UNL     1      19.290   2.394  51.174  1.00  0.00    -0.241 NA
HETATM    5  C5  UNL     1      19.865   3.562  50.784  1.00  0.00     0.236 A 
HETATM    6  N2  UNL     1      21.075   3.889  51.272  1.00  0.00    -0.224 NA
HETATM    7  C6  UNL     1      21.700   3.051  52.140  1.00  0.00     0.142 A 
HETATM    8  C13 UNL     1      21.121   1.871  52.534  1.00  0.00     0.042 A 
HETATM    9  C14 UNL     1      21.736   1.004  53.414  1.00  0.00     0.057 A 
HETATM   10  C15 UNL     1      21.148  -0.184  53.808  1.00  0.00     0.103 A 
ENDROOT
BRANCH   7  11
HETATM   11  N3  UNL     1      22.973   3.413  52.640  1.00  0.00    -0.340 N 
HETATM   12  H6  UNL     1      23.038   3.686  53.645  1.00  0.00     0.167 HD
BRANCH  11  13
HETATM   13  C7  UNL     1      24.092   3.395  51.786  1.00  0.00     0.036 A 
HETATM   14  C8  UNL     1      24.262   4.408  50.867  1.00  0.00     0.029 A 
HETATM   15  C9  UNL     1      25.372   4.349  50.051  1.00  0.00     0.005 A 
HETATM   16  C10 UNL     1      26.286   3.314  50.146  1.00  0.00     0.042 A 
HETATM   17  C11 UNL     1      26.116   2.293  51.070  1.00  0.00     0.118 A 
HETATM   18  F1  UNL     1      27.015   1.294  51.149  1.00  0.00    -0.206 F 
HETATM   19  C12 UNL     1      24.996   2.350  51.896  1.00  0.00     0.071 A 
ENDBRANCH  11  13
ENDBRANCH   7  11
BRANCH  10  20
HETATM   20  O2  UNL     1      21.690  -1.101  54.678  1.00  0.00    -0.346 OA
BRANCH  20  21
HETATM   21  C16 UNL     1      22.929  -0.975  55.336  1.00  0.00     0.204 C 
BRANCH  21  22
HETATM   22  C17 UNL     1      24.089  -1.251  54.400  1.00  0.00     0.220 C 
BRANCH  22  23
HETATM   23  O3  UNL     1      25.324  -0.944  54.961  1.00  0.00    -0.301 OA
BRANCH  23  24
HETATM   24  N4  UNL     1      26.077  -0.359  54.029  1.00  0.00    -0.197 NA
HETATM   25  C18 UNL     1      27.091   0.527  54.518  1.00  0.00     0.120 C 
HETATM   26  C19 UNL     1      28.431  -0.128  54.306  1.00  0.00     0.018 C 
HETATM   27  C20 UNL     1      28.174  -1.032  53.130  1.00  0.00     0.018 C 
HETATM   28  C21 UNL     1      26.685  -1.258  53.094  1.00  0.00     0.120 C 
ENDBRANCH  23  24
ENDBRANCH  22  23
ENDBRANCH  21  22
ENDBRANCH  20  21
ENDBRANCH  10  20
BRANCH   1  29
HETATM   29  O1  UNL     1      19.256  -1.646  53.629  1.00  0.00    -0.353 OA
HETATM   30  C1  UNL     1      17.845  -1.733  53.415  1.00  0.00     0.210 C 
ENDBRANCH   1  29
TORSDOF 8
ENDMDL
MODEL 9
REMARK VINA RESULT:      -7.2      3.402      6.249
REMARK  8 active torsions:
REMARK  status: ('A' for Active; 'I' for Inactive)
REMARK    1  A    between atoms: O1_2  and  C2_3 
REMARK    2  A    between atoms: C6_9  and  N3_10 
REMARK    3  A    between atoms: N3_10  and  C7_11 
REMARK    4  A    between atoms: C15_20  and  O2_21 
REMARK    5  A    between atoms: O2_21  and  C16_22 
REMARK    6  A    between atoms: C16_22  and  C17_23 
REMARK    7  A    between atoms: C17_23  and  O3_24 
REMARK    8  A    between atoms: O3_24  and  N4_25 
ROOT
HETATM    1  C2  UNL     1      26.131  -0.175  52.990  1.00  0.00     0.103 A 
HETATM    2  C3  UNL     1      25.264  -0.852  53.833  1.00  0.00     0.072 A 
HETATM    3  C4  UNL     1      23.944  -0.449  53.882  1.00  0.00     0.075 A 
HETATM    4  N1  UNL     1      23.075  -1.074  54.682  1.00  0.00    -0.241 NA
HETATM    5  C5  UNL     1      21.767  -0.714  54.764  1.00  0.00     0.236 A 
HETATM    6  N2  UNL     1      21.324   0.311  54.014  1.00  0.00    -0.224 NA
HETATM    7  C6  UNL     1      22.185   0.965  53.191  1.00  0.00     0.142 A 
HETATM    8  C13 UNL     1      23.506   0.602  53.107  1.00  0.00     0.042 A 
HETATM    9  C14 UNL     1      24.399   1.251  52.279  1.00  0.00     0.057 A 
HETATM   10  C15 UNL     1      25.729   0.882  52.199  1.00  0.00     0.103 A 
ENDROOT
BRANCH   7  11
HETATM   11  N3  UNL     1      21.698   2.039  52.410  1.00  0.00    -0.340 N 
HETATM   12  H6  UNL     1      22.277   2.906  52.366  1.00  0.00     0.167 HD
BRANCH  11  13
HETATM   13  C7  UNL     1      20.473   1.910  51.728  1.00  0.00     0.036 A 
HETATM   14  C8  UNL     1      20.321   0.917  50.786  1.00  0.00     0.029 A 
HETATM   15  C9  UNL     1      19.104   0.828  50.143  1.00  0.00     0.005 A 
HETATM   16  C10 UNL     1      18.069   1.701  50.430  1.00  0.00     0.042 A 
HETATM   17  C11 UNL     1      18.220   2.701  51.378  1.00  0.00     0.118 A 
HETATM   18  F1  UNL     1      17.203   3.542  51.645  1.00  0.00    -0.206 F 
HETATM   19  C12 UNL     1      19.448   2.794  52.029  1.00  0.00     0.071 A 
ENDBRANCH  11  13
ENDBRANCH   7  11
BRANCH  10  20
HETATM   20  O2  UNL     1      26.682   1.473  51.403  1.00  0.00    -0.346 OA
BRANCH  20  21
HETATM   21  C16 UNL     1      26.734   2.838  51.060  1.00  0.00     0.204 C 
BRANCH  21  22
HETATM   22  C17 UNL     1      26.354   3.064  49.610  1.00  0.00     0.220 C 
BRANCH  22  23
HETATM   23  O3  UNL     1      25.416   4.077  49.447  1.00  0.00    -0.301 OA
BRANCH  23  24
HETATM   24  N4  UNL     1      24.248   3.652  49.930  1.00  0.00    -0.197 NA
HETATM   25  C18 UNL     1      23.444   4.648  50.572  1.00  0.00     0.120 C 
HETATM   26  C19 UNL     1      22.264   4.946  49.685  1.00  0.00     0.018 C 
HETATM   27  C20 UNL     1      22.094   3.661  48.919  1.00  0.00     0.018 C 
HETATM   28  C21 UNL     1      23.424   2.956  48.987  1.00  0.00     0.120 C 
ENDBRANCH  23  24
ENDBRANCH  22  23
ENDBRANCH  21  22
ENDBRANCH  20  21
ENDBRANCH  10  20
BRANCH   1  29
HETATM   29  O1  UNL     1      27.452  -0.602  52.960  1.00  0.00    -0.353 OA
HETATM   30  C1  UNL     1      28.327  -0.181  54.010  1.00  0.00     0.210 C 
ENDBRANCH   1  29
TORSDOF 8
ENDMDL
