MODEL 1
REMARK VINA RESULT:      -8.5      0.000      0.000
REMARK  0 active torsions:
REMARK  status: ('A' for Active; 'I' for Inactive)
ROOT
HETATM    1  O1  UNL     1      25.427   2.738  51.369  1.00  0.00    -0.150 OA
HETATM    2  C1  UNL     1      26.612   2.522  51.485  1.00  0.00     0.357 A 
HETATM    3  C2  UNL     1      26.522   3.112  50.120  1.00  0.00     0.088 A 
HETATM    4  C3  UNL     1      25.262   3.409  49.711  1.00  0.00    -0.004 A 
HETATM    5  C4  UNL     1      23.837   3.588  49.602  1.00  0.00     0.044 C 
HETATM    6  C5  UNL     1      22.967   3.495  50.833  1.00  0.00     0.146 C 
HETATM    7  N1  UNL     1      21.742   4.168  50.553  1.00  0.00    -0.273 NA
HETATM    8  C6  UNL     1      21.452   5.402  50.537  1.00  0.00     0.229 C 
HETATM    9  N2  UNL     1      22.471   6.263  51.146  1.00  0.00    -0.224 NA
HETATM   10  C7  UNL     1      23.493   5.640  51.597  1.00  0.00     0.137 C 
HETATM   11  N3  UNL     1      24.327   6.837  51.425  1.00  0.00    -0.340 N 
HETATM   12  C8  UNL     1      25.355   6.795  50.439  1.00  0.00     0.048 A 
HETATM   13  C9  UNL     1      25.769   5.599  49.785  1.00  0.00     0.019 A 
HETATM   14  C10 UNL     1      26.197   4.395  49.116  1.00  0.00     0.016 A 
HETATM   15  C11 UNL     1      27.073   5.289  48.553  1.00  0.00    -0.010 A 
HETATM   16  C12 UNL     1      27.169   6.679  48.796  1.00  0.00     0.018 A 
HETATM   17  C13 UNL     1      26.355   7.343  49.678  1.00  0.00     0.037 A 
HETATM   18 BR1  UNL     1      26.289   9.161  50.204  1.00  0.00    -0.049 Br
HETATM   19  C14 UNL     1      23.566   4.211  52.040  1.00  0.00     0.011 C 
HETATM   20  C15 UNL     1      24.204   3.689  53.058  1.00  0.00     0.016 C 
HETATM   21  C16 UNL     1      24.410   2.185  53.109  1.00  0.00     0.303 C 
HETATM   22  N4  UNL     1      25.884   2.116  52.701  1.00  0.00     0.090 N 
HETATM   23  H6  UNL     1      24.533   7.785  51.714  1.00  0.00     0.167 HD
HETATM   24  H13 UNL     1      26.682   1.726  53.285  1.00  0.00     0.322 HD
ENDROOT
TORSDOF 0
ENDMDL
MODEL 2
REMARK VINA RESULT:      -7.7      3.077      5.582
REMARK  0 active torsions:
REMARK  status: ('A' for Active; 'I' for Inactive)
ROOT
HETATM    1  O1  UNL     1      21.788   3.459  51.542  1.00  0.00    -0.150 OA
HETATM    2  C1  UNL     1      20.928   3.249  52.367  1.00  0.00     0.357 A 
HETATM    3  C2  UNL     1      21.353   1.873  51.983  1.00  0.00     0.088 A 
HETATM    4  C3  UNL     1      22.301   1.821  51.012  1.00  0.00    -0.004 A 
HETATM    5  C4  UNL     1      23.273   2.129  49.994  1.00  0.00     0.044 C 
HETATM    6  C5  UNL     1      23.800   3.536  49.853  1.00  0.00     0.146 C 
HETATM    7  N1  UNL     1      25.041   3.468  49.153  1.00  0.00    -0.273 NA
HETATM    8  C6  UNL     1      26.205   3.154  49.544  1.00  0.00     0.229 C 
HETATM    9  N2  UNL     1      26.347   3.093  51.003  1.00  0.00    -0.224 NA
HETATM   10  C7  UNL     1      25.280   3.364  51.654  1.00  0.00     0.137 C 
HETATM   11  N3  UNL     1      25.743   2.559  52.792  1.00  0.00    -0.340 N 
HETATM   12  C8  UNL     1      25.032   1.362  53.093  1.00  0.00     0.048 A 
HETATM   13  C9  UNL     1      23.775   1.026  52.513  1.00  0.00     0.019 A 
HETATM   14  C10 UNL     1      22.503   0.674  51.931  1.00  0.00     0.016 A 
HETATM   15  C11 UNL     1      22.667  -0.394  52.775  1.00  0.00    -0.010 A 
HETATM   16  C12 UNL     1      23.751  -0.652  53.647  1.00  0.00     0.018 A 
HETATM   17  C13 UNL     1      24.830   0.185  53.769  1.00  0.00     0.037 A 
HETATM   18 BR1  UNL     1      26.374   0.096  54.861  1.00  0.00    -0.049 Br
HETATM   19  C14 UNL     1      24.118   4.189  51.195  1.00  0.00     0.011 C 
HETATM   20  C15 UNL     1      23.400   5.057  51.863  1.00  0.00     0.016 C 
HETATM   21  C16 UNL     1      22.070   5.514  51.291  1.00  0.00     0.303 C 
HETATM   22  N4  UNL     1      21.119   4.697  52.168  1.00  0.00     0.090 N 
HETATM   23  H6  UNL     1      26.409   2.448  53.547  1.00  0.00     0.167 HD
HETATM   24  H13 UNL     1      20.381   5.083  52.828  1.00  0.00     0.322 HD
ENDROOT
TORSDOF 0
ENDMDL
MODEL 3
REMARK VINA RESULT:      -7.4      3.163      5.740
REMARK  0 active torsions:
REMARK  status: ('A' for Active; 'I' for Inactive)
ROOT
HETATM    1  O1  UNL     1      22.058   4.693  50.225  1.00  0.00    -0.150 OA
HETATM    2  C1  UNL     1      20.864   4.764  50.407  1.00  0.00     0.357 A 
HETATM    3  C2  UNL     1      21.025   3.396  49.837  1.00  0.00     0.088 A 
HETATM    4  C3  UNL     1      22.297   3.071  49.491  1.00  0.00    -0.004 A 
HETATM    5  C4  UNL     1      23.715   3.064  49.238  1.00  0.00     0.044 C 
HETATM    6  C5  UNL     1      24.597   4.125  49.852  1.00  0.00     0.146 C 
HETATM    7  N1  UNL     1      25.934   3.628  49.860  1.00  0.00    -0.273 NA
HETATM    8  C6  UNL     1      26.516   2.808  50.631  1.00  0.00     0.229 C 
HETATM    9  N2  UNL     1      25.770   2.512  51.859  1.00  0.00    -0.224 NA
HETATM   10  C7  UNL     1      24.652   3.124  51.964  1.00  0.00     0.137 C 
HETATM   11  N3  UNL     1      24.128   2.065  52.836  1.00  0.00    -0.340 N 
HETATM   12  C8  UNL     1      23.072   1.251  52.334  1.00  0.00     0.048 A 
HETATM   13  C9  UNL     1      22.345   1.550  51.146  1.00  0.00     0.019 A 
HETATM   14  C10 UNL     1      21.602   1.842  49.945  1.00  0.00     0.016 A 
HETATM   15  C11 UNL     1      20.944   0.707  50.347  1.00  0.00    -0.010 A 
HETATM   16  C12 UNL     1      21.203  -0.088  51.487  1.00  0.00     0.018 A 
HETATM   17  C13 UNL     1      22.199   0.195  52.387  1.00  0.00     0.037 A 
HETATM   18 BR1  UNL     1      22.734  -0.670  53.984  1.00  0.00    -0.049 Br
HETATM   19  C14 UNL     1      24.254   4.412  51.311  1.00  0.00     0.011 C 
HETATM   20  C15 UNL     1      23.562   5.411  51.799  1.00  0.00     0.016 C 
HETATM   21  C16 UNL     1      22.997   6.452  50.849  1.00  0.00     0.303 C 
HETATM   22  N4  UNL     1      21.532   6.009  50.826  1.00  0.00     0.090 N 
HETATM   23  H6  UNL     1      24.175   1.592  53.730  1.00  0.00     0.167 HD
HETATM   24  H13 UNL     1      20.694   6.586  51.135  1.00  0.00     0.322 HD
ENDROOT
TORSDOF 0
ENDMDL
MODEL 4
REMARK VINA RESULT:      -7.3      2.854      5.074
REMARK  0 active torsions:
REMARK  status: ('A' for Active; 'I' for Inactive)
ROOT
HETATM    1  O1  UNL     1      25.385   3.050  51.326  1.00  0.00    -0.150 OA
HETATM    2  C1  UNL     1      25.914   1.963  51.373  1.00  0.00     0.357 A 
HETATM    3  C2  UNL     1      24.908   1.881  52.468  1.00  0.00     0.088 A 
HETATM    4  C3  UNL     1      24.190   3.016  52.666  1.00  0.00    -0.004 A 
HETATM    5  C4  UNL     1      23.638   4.345  52.606  1.00  0.00     0.044 C 
HETATM    6  C5  UNL     1      23.910   5.224  51.408  1.00  0.00     0.146 C 
HETATM    7  N1  UNL     1      22.900   6.230  51.368  1.00  0.00    -0.273 NA
HETATM    8  C6  UNL     1      21.697   6.190  50.968  1.00  0.00     0.229 C 
HETATM    9  N2  UNL     1      21.365   4.990  50.194  1.00  0.00    -0.224 NA
HETATM   10  C7  UNL     1      22.333   4.169  50.042  1.00  0.00     0.137 C 
HETATM   11  N3  UNL     1      21.393   3.052  49.885  1.00  0.00    -0.340 N 
HETATM   12  C8  UNL     1      21.364   2.059  50.906  1.00  0.00     0.048 A 
HETATM   13  C9  UNL     1      22.343   1.961  51.936  1.00  0.00     0.019 A 
HETATM   14  C10 UNL     1      23.329   1.851  52.984  1.00  0.00     0.016 A 
HETATM   15  C11 UNL     1      22.548   0.768  53.296  1.00  0.00    -0.010 A 
HETATM   16  C12 UNL     1      21.383   0.318  52.631  1.00  0.00     0.018 A 
HETATM   17  C13 UNL     1      20.864   0.942  51.525  1.00  0.00     0.037 A 
HETATM   18 BR1  UNL     1      19.362   0.541  50.444  1.00  0.00    -0.049 Br
HETATM   19  C14 UNL     1      23.800   4.473  50.084  1.00  0.00     0.011 C 
HETATM   20  C15 UNL     1      24.767   4.005  49.336  1.00  0.00     0.016 C 
HETATM   21  C16 UNL     1      26.206   4.195  49.782  1.00  0.00     0.303 C 
HETATM   22  N4  UNL     1      26.502   2.785  50.299  1.00  0.00     0.090 N 
HETATM   23  H6  UNL     1      20.674   2.611  49.325  1.00  0.00     0.167 HD
HETATM   24  H13 UNL     1      27.246   2.122  49.930  1.00  0.00     0.322 HD
ENDROOT
TORSDOF 0
ENDMDL
MODEL 5
REMARK VINA RESULT:      -7.3      1.941      3.941
REMARK  0 active torsions:
REMARK  status: ('A' for Active; 'I' for Inactive)
ROOT
HETATM    1  O1  UNL     1      21.868   3.934  51.067  1.00  0.00    -0.150 OA
HETATM    2  C1  UNL     1      21.168   4.647  50.384  1.00  0.00     0.357 A 
HETATM    3  C2  UNL     1      22.050   5.628  51.078  1.00  0.00     0.088 A 
HETATM    4  C3  UNL     1      22.921   5.080  51.963  1.00  0.00    -0.004 A 
HETATM    5  C4  UNL     1      23.684   4.190  52.800  1.00  0.00     0.044 C 
HETATM    6  C5  UNL     1      23.662   2.703  52.540  1.00  0.00     0.146 C 
HETATM    7  N1  UNL     1      24.821   2.138  53.149  1.00  0.00    -0.273 NA
HETATM    8  C6  UNL     1      26.032   2.107  52.773  1.00  0.00     0.229 C 
HETATM    9  N2  UNL     1      26.231   2.495  51.373  1.00  0.00    -0.224 NA
HETATM   10  C7  UNL     1      25.160   2.804  50.748  1.00  0.00     0.137 C 
HETATM   11  N3  UNL     1      25.917   3.660  49.826  1.00  0.00    -0.340 N 
HETATM   12  C8  UNL     1      25.697   5.066  49.890  1.00  0.00     0.048 A 
HETATM   13  C9  UNL     1      24.630   5.663  50.621  1.00  0.00     0.019 A 
HETATM   14  C10 UNL     1      23.552   6.278  51.358  1.00  0.00     0.016 A 
HETATM   15  C11 UNL     1      24.119   7.400  50.807  1.00  0.00    -0.010 A 
HETATM   16  C12 UNL     1      25.248   7.475  49.959  1.00  0.00     0.018 A 
HETATM   17  C13 UNL     1      25.955   6.371  49.555  1.00  0.00     0.037 A 
HETATM   18 BR1  UNL     1      27.460   6.187  48.420  1.00  0.00    -0.049 Br
HETATM   19  C14 UNL     1      23.764   2.358  51.058  1.00  0.00     0.011 C 
HETATM   20  C15 UNL     1      22.802   2.012  50.239  1.00  0.00     0.016 C 
HETATM   21  C16 UNL     1      21.379   1.926  50.764  1.00  0.00     0.303 C 
HETATM   22  N4  UNL     1      20.816   3.228  50.191  1.00  0.00     0.090 N 
HETATM   23  H6  UNL     1      26.601   3.721  49.082  1.00  0.00     0.167 HD
HETATM   24  H13 UNL     1      20.009   3.319  49.506  1.00  0.00     0.322 HD
ENDROOT
TORSDOF 0
ENDMDL
MODEL 6
REMARK VINA RESULT:      -7.3      2.365      3.025
REMARK  0 active torsions:
REMARK  status: ('A' for Active; 'I' for Inactive)
ROOT
HETATM    1  O1  UNL     1      24.881   2.831  50.898  1.00  0.00    -0.150 OA
HETATM    2  C1  UNL     1      25.827   3.419  50.424  1.00  0.00     0.357 A 
HETATM    3  C2  UNL     1      24.822   3.483  49.326  1.00  0.00     0.088 A 
HETATM    4  C3  UNL     1      23.655   2.840  49.586  1.00  0.00    -0.004 A 
HETATM    5  C4  UNL     1      22.583   2.079  50.175  1.00  0.00     0.044 C 
HETATM    6  C5  UNL     1      22.597   1.773  51.654  1.00  0.00     0.146 C 
HETATM    7  N1  UNL     1      21.261   1.466  52.047  1.00  0.00    -0.273 NA
HETATM    8  C6  UNL     1      20.269   2.216  52.291  1.00  0.00     0.229 C 
HETATM    9  N2  UNL     1      20.615   3.634  52.435  1.00  0.00    -0.224 NA
HETATM   10  C7  UNL     1      21.858   3.897  52.292  1.00  0.00     0.137 C 
HETATM   11  N3  UNL     1      21.544   5.268  51.869  1.00  0.00    -0.340 N 
HETATM   12  C8  UNL     1      21.821   5.627  50.518  1.00  0.00     0.048 A 
HETATM   13  C9  UNL     1      22.590   4.820  49.631  1.00  0.00     0.019 A 
HETATM   14  C10 UNL     1      23.367   4.012  48.723  1.00  0.00     0.016 A 
HETATM   15  C11 UNL     1      23.115   5.086  47.909  1.00  0.00    -0.010 A 
HETATM   16  C12 UNL     1      22.375   6.253  48.215  1.00  0.00     0.018 A 
HETATM   17  C13 UNL     1      21.790   6.469  49.436  1.00  0.00     0.037 A 
HETATM   18 BR1  UNL     1      20.787   7.927  50.110  1.00  0.00    -0.049 Br
HETATM   19  C14 UNL     1      23.015   2.969  52.504  1.00  0.00     0.011 C 
HETATM   20  C15 UNL     1      24.182   3.207  53.048  1.00  0.00     0.016 C 
HETATM   21  C16 UNL     1      25.310   2.211  52.847  1.00  0.00     0.303 C 
HETATM   22  N4  UNL     1      26.128   2.960  51.793  1.00  0.00     0.090 N 
HETATM   23  H6  UNL     1      21.181   6.178  52.121  1.00  0.00     0.167 HD
HETATM   24  H13 UNL     1      27.132   3.293  51.893  1.00  0.00     0.322 HD
ENDROOT
TORSDOF 0
ENDMDL
MODEL 7
REMARK VINA RESULT:      -7.2      2.563      3.572
REMARK  0 active torsions:
REMARK  status: ('A' for Active; 'I' for Inactive)
ROOT
HETATM    1  O1  UNL     1      23.093   5.320  50.686  1.00  0.00    -0.150 OA
HETATM    2  C1  UNL     1      23.667   5.045  51.714  1.00  0.00     0.357 A 
HETATM    3  C2  UNL     1      24.410   4.241  50.703  1.00  0.00     0.088 A 
HETATM    4  C3  UNL     1      23.926   4.332  49.438  1.00  0.00    -0.004 A 
HETATM    5  C4  UNL     1      23.169   4.648  48.254  1.00  0.00     0.044 C 
HETATM    6  C5  UNL     1      22.203   5.808  48.262  1.00  0.00     0.146 C 
HETATM    7  N1  UNL     1      21.974   6.193  46.908  1.00  0.00    -0.273 NA
HETATM    8  C6  UNL     1      22.674   6.882  46.106  1.00  0.00     0.229 C 
HETATM    9  N2  UNL     1      23.776   7.608  46.748  1.00  0.00    -0.224 NA
HETATM   10  C7  UNL     1      23.862   7.436  48.012  1.00  0.00     0.137 C 
HETATM   11  N3  UNL     1      25.300   7.729  47.977  1.00  0.00    -0.340 N 
HETATM   12  C8  UNL     1      26.203   6.667  48.269  1.00  0.00     0.048 A 
HETATM   13  C9  UNL     1      25.797   5.416  48.816  1.00  0.00     0.019 A 
HETATM   14  C10 UNL     1      25.396   4.145  49.370  1.00  0.00     0.016 A 
HETATM   15  C11 UNL     1      26.753   3.951  49.317  1.00  0.00    -0.010 A 
HETATM   16  C12 UNL     1      27.741   4.850  48.853  1.00  0.00     0.018 A 
HETATM   17  C13 UNL     1      27.449   6.102  48.374  1.00  0.00     0.037 A 
HETATM   18 BR1  UNL     1      28.560   7.492  47.728  1.00  0.00    -0.049 Br
HETATM   19  C14 UNL     1      22.765   7.045  48.955  1.00  0.00     0.011 C 
HETATM   20  C15 UNL     1      22.519   7.477  50.166  1.00  0.00     0.016 C 
HETATM   21  C16 UNL     1      21.563   6.696  51.050  1.00  0.00     0.303 C 
HETATM   22  N4  UNL     1      22.573   6.000  51.966  1.00  0.00     0.090 N 
HETATM   23  H6  UNL     1      26.030   8.414  47.824  1.00  0.00     0.167 HD
HETATM   24  H13 UNL     1      22.645   6.106  53.021  1.00  0.00     0.322 HD
ENDROOT
TORSDOF 0
ENDMDL
MODEL 8
REMARK VINA RESULT:      -7.1     22.662     24.813
REMARK  0 active torsions:
REMARK  status: ('A' for Active; 'I' for Inactive)
ROOT
HETATM    1  O1  UNL     1      38.553   0.052  68.726  1.00  0.00    -0.150 OA
HETATM    2  C1  UNL     1      37.986   1.116  68.626  1.00  0.00     0.357 A 
HETATM    3  C2  UNL     1      38.945   1.363  69.739  1.00  0.00     0.088 A 
HETATM    4  C3  UNL     1      39.692   0.287  70.095  1.00  0.00    -0.004 A 
HETATM    5  C4  UNL     1      40.291  -1.018  70.211  1.00  0.00     0.044 C 
HETATM    6  C5  UNL     1      40.097  -2.039  69.116  1.00  0.00     0.146 C 
HETATM    7  N1  UNL     1      41.141  -3.004  69.230  1.00  0.00    -0.273 NA
HETATM    8  C6  UNL     1      42.357  -2.965  68.871  1.00  0.00     0.229 C 
HETATM    9  N2  UNL     1      42.679  -1.851  67.974  1.00  0.00    -0.224 NA
HETATM   10  C7  UNL     1      41.690  -1.092  67.691  1.00  0.00     0.137 C 
HETATM   11  N3  UNL     1      42.597   0.035  67.438  1.00  0.00    -0.340 N 
HETATM   12  C8  UNL     1      42.552   1.140  68.335  1.00  0.00     0.048 A 
HETATM   13  C9  UNL     1      41.530   1.320  69.311  1.00  0.00     0.019 A 
HETATM   14  C10 UNL     1      40.500   1.513  70.303  1.00  0.00     0.016 A 
HETATM   15  C11 UNL     1      41.232   2.655  70.513  1.00  0.00    -0.010 A 
HETATM   16  C12 UNL     1      42.406   3.068  69.841  1.00  0.00     0.018 A 
HETATM   17  C13 UNL     1      42.989   2.340  68.836  1.00  0.00     0.037 A 
HETATM   18 BR1  UNL     1      44.518   2.669  67.768  1.00  0.00    -0.049 Br
HETATM   19  C14 UNL     1      40.234  -1.445  67.718  1.00  0.00     0.011 C 
HETATM   20  C15 UNL     1      39.282  -1.104  66.886  1.00  0.00     0.016 C 
HETATM   21  C16 UNL     1      37.834  -1.296  67.300  1.00  0.00     0.303 C 
HETATM   22  N4  UNL     1      37.470   0.152  67.636  1.00  0.00     0.090 N 
HETATM   23  H6  UNL     1      43.322   0.435  66.855  1.00  0.00     0.167 HD
HETATM   24  H13 UNL     1      36.719   0.739  67.166  1.00  0.00     0.322 HD
ENDROOT
TORSDOF 0
ENDMDL
MODEL 9
REMARK VINA RESULT:      -7.1      3.034      4.700
REMARK  0 active torsions:
REMARK  status: ('A' for Active; 'I' for Inactive)
ROOT
HETATM    1  O1  UNL     1      26.570   5.385  49.316  1.00  0.00    -0.150 OA
HETATM    2  C1  UNL     1      27.125   4.363  48.981  1.00  0.00     0.357 A 
HETATM    3  C2  UNL     1      25.913   3.857  49.685  1.00  0.00     0.088 A 
HETATM    4  C3  UNL     1      25.119   4.823  50.215  1.00  0.00    -0.004 A 
HETATM    5  C4  UNL     1      24.534   6.068  50.642  1.00  0.00     0.044 C 
HETATM    6  C5  UNL     1      25.015   7.372  50.052  1.00  0.00     0.146 C 
HETATM    7  N1  UNL     1      23.992   8.345  50.256  1.00  0.00    -0.273 NA
HETATM    8  C6  UNL     1      22.905   8.556  49.639  1.00  0.00     0.229 C 
HETATM    9  N2  UNL     1      22.799   7.849  48.358  1.00  0.00    -0.224 NA
HETATM   10  C7  UNL     1      23.814   7.130  48.061  1.00  0.00     0.137 C 
HETATM   11  N3  UNL     1      22.979   6.256  47.227  1.00  0.00    -0.340 N 
HETATM   12  C8  UNL     1      22.778   4.914  47.663  1.00  0.00     0.048 A 
HETATM   13  C9  UNL     1      23.519   4.311  48.720  1.00  0.00     0.019 A 
HETATM   14  C10 UNL     1      24.264   3.689  49.788  1.00  0.00     0.016 A 
HETATM   15  C11 UNL     1      23.483   2.627  49.410  1.00  0.00    -0.010 A 
HETATM   16  C12 UNL     1      22.508   2.588  48.386  1.00  0.00     0.018 A 
HETATM   17  C13 UNL     1      22.208   3.669  47.596  1.00  0.00     0.037 A 
HETATM   18 BR1  UNL     1      20.990   3.879  46.161  1.00  0.00    -0.049 Br
HETATM   19  C14 UNL     1      25.222   7.300  48.542  1.00  0.00     0.011 C 
HETATM   20  C15 UNL     1      26.347   7.161  47.885  1.00  0.00     0.016 C 
HETATM   21  C16 UNL     1      27.648   7.050  48.660  1.00  0.00     0.303 C 
HETATM   22  N4  UNL     1      27.890   5.544  48.539  1.00  0.00     0.090 N 
HETATM   23  H6  UNL     1      22.417   6.153  46.392  1.00  0.00     0.167 HD
HETATM   24  H13 UNL     1      28.724   5.074  48.078  1.00  0.00     0.322 HD
ENDROOT
TORSDOF 0
ENDMDL
