MODEL 1
REMARK VINA RESULT:      -6.5      0.000      0.000
REMARK  4 active torsions:
REMARK  status: ('A' for Active; 'I' for Inactive)
REMARK    1  A    between atoms: N2_9  and  C8_10 
REMARK    2  A    between atoms: C8_10  and  C9_11 
REMARK    3  A    between atoms: C9_11  and  O1_12 
REMARK    4  A    between atoms: C11_15  and  N4_16 
ROOT
HETATM    1  C1  UNL     1      26.178  -0.070  52.442  1.00  0.00     0.074 C 
HETATM    2  C2  UNL     1      25.572   1.277  52.207  1.00  0.00     0.068 C 
HETATM    3  C3  UNL     1      26.435   2.267  51.703  1.00  0.00     0.144 C 
HETATM    4  N1  UNL     1      26.780   2.883  50.535  1.00  0.00    -0.270 NA
HETATM    5  C4  UNL     1      26.030   3.904  50.076  1.00  0.00     0.124 C 
HETATM    6  C5  UNL     1      24.830   3.291  49.958  1.00  0.00    -0.020 C 
HETATM    7  C6  UNL     1      24.267   3.547  51.246  1.00  0.00    -0.021 C 
HETATM    8  C7  UNL     1      23.630   2.339  51.005  1.00  0.00     0.048 C 
HETATM    9  N2  UNL     1      23.231   1.353  51.763  1.00  0.00    -0.270 N 
HETATM   10  N3  UNL     1      24.288   1.218  52.549  1.00  0.00    -0.176 NA
HETATM   11  C10 UNL     1      23.648   2.556  49.548  1.00  0.00     0.100 C 
HETATM   12  C11 UNL     1      22.426   3.109  48.994  1.00  0.00     0.153 C 
HETATM   13  C12 UNL     1      22.432   4.556  48.693  1.00  0.00     0.034 C 
HETATM   14  C13 UNL     1      22.047   5.466  49.851  1.00  0.00     0.029 C 
HETATM   15  C14 UNL     1      22.605   4.913  51.112  1.00  0.00    -0.030 C 
HETATM   16  C15 UNL     1      22.384   4.495  52.389  1.00  0.00    -0.026 C 
HETATM   17  C16 UNL     1      23.834   4.105  52.634  1.00  0.00     0.068 C 
ENDROOT
BRANCH   9  18
HETATM   18  C8  UNL     1      22.226   0.389  52.102  1.00  0.00     0.177 C 
BRANCH  18  19
HETATM   19  C9  UNL     1      22.048   0.168  53.563  1.00  0.00     0.185 C 
BRANCH  19  20
HETATM   20  O1  UNL     1      22.832  -0.862  54.045  1.00  0.00    -0.399 OA
HETATM   21  H10 UNL     1      23.528  -1.098  53.378  1.00  0.00     0.209 HD
ENDBRANCH  19  20
ENDBRANCH  18  19
ENDBRANCH   9  18
BRANCH  12  22
HETATM   22  N4  UNL     1      22.021   2.326  47.819  1.00  0.00    -0.135 NA
HETATM   23  O2  UNL     1      21.846   1.151  47.915  1.00  0.00    -0.066 OA
ENDBRANCH  12  22
TORSDOF 4
ENDMDL
MODEL 2
REMARK VINA RESULT:      -6.3      2.847      5.408
REMARK  4 active torsions:
REMARK  status: ('A' for Active; 'I' for Inactive)
REMARK    1  A    between atoms: N2_9  and  C8_10 
REMARK    2  A    between atoms: C8_10  and  C9_11 
REMARK    3  A    between atoms: C9_11  and  O1_12 
REMARK    4  A    between atoms: C11_15  and  N4_16 
ROOT
HETATM    1  C1  UNL     1      21.953   5.509  46.452  1.00  0.00     0.074 C 
HETATM    2  C2  UNL     1      21.972   4.909  47.822  1.00  0.00     0.068 C 
HETATM    3  C3  UNL     1      21.496   3.589  47.930  1.00  0.00     0.144 C 
HETATM    4  N1  UNL     1      21.939   2.302  48.013  1.00  0.00    -0.270 NA
HETATM    5  C4  UNL     1      22.325   1.809  49.207  1.00  0.00     0.124 C 
HETATM    6  C5  UNL     1      23.312   2.677  49.521  1.00  0.00    -0.020 C 
HETATM    7  C6  UNL     1      22.581   3.669  50.244  1.00  0.00    -0.021 C 
HETATM    8  C7  UNL     1      23.563   4.503  49.732  1.00  0.00     0.048 C 
HETATM    9  N2  UNL     1      23.588   5.754  49.357  1.00  0.00    -0.270 N 
HETATM   10  N3  UNL     1      22.462   5.815  48.664  1.00  0.00    -0.176 NA
HETATM   11  C10 UNL     1      24.551   3.412  49.697  1.00  0.00     0.100 C 
HETATM   12  C11 UNL     1      25.445   3.355  50.839  1.00  0.00     0.153 C 
HETATM   13  C12 UNL     1      25.131   2.347  51.874  1.00  0.00     0.034 C 
HETATM   14  C13 UNL     1      24.155   2.799  52.950  1.00  0.00     0.029 C 
HETATM   15  C14 UNL     1      23.112   3.658  52.334  1.00  0.00    -0.030 C 
HETATM   16  C15 UNL     1      22.444   4.844  52.331  1.00  0.00    -0.026 C 
HETATM   17  C16 UNL     1      21.591   4.492  51.121  1.00  0.00     0.068 C 
ENDROOT
BRANCH   9  18
HETATM   18  C8  UNL     1      24.257   7.022  49.341  1.00  0.00     0.177 C 
BRANCH  18  19
HETATM   19  C9  UNL     1      25.281   7.194  50.407  1.00  0.00     0.185 C 
BRANCH  19  20
HETATM   20  O1  UNL     1      26.455   6.520  50.131  1.00  0.00    -0.399 OA
HETATM   21  H10 UNL     1      26.622   5.832  50.827  1.00  0.00     0.209 HD
ENDBRANCH  19  20
ENDBRANCH  18  19
ENDBRANCH   9  18
BRANCH  12  22
HETATM   22  N4  UNL     1      26.831   3.220  50.371  1.00  0.00    -0.135 NA
HETATM   23  O2  UNL     1      27.211   3.855  49.437  1.00  0.00    -0.066 OA
ENDBRANCH  12  22
TORSDOF 4
ENDMDL
MODEL 3
REMARK VINA RESULT:      -6.2      2.672      4.368
REMARK  4 active torsions:
REMARK  status: ('A' for Active; 'I' for Inactive)
REMARK    1  A    between atoms: N2_9  and  C8_10 
REMARK    2  A    between atoms: C8_10  and  C9_11 
REMARK    3  A    between atoms: C9_11  and  O1_12 
REMARK    4  A    between atoms: C11_15  and  N4_16 
ROOT
HETATM    1  C1  UNL     1      22.372   0.339  53.862  1.00  0.00     0.074 C 
HETATM    2  C2  UNL     1      22.074   1.069  52.590  1.00  0.00     0.068 C 
HETATM    3  C3  UNL     1      20.768   1.575  52.456  1.00  0.00     0.144 C 
HETATM    4  N1  UNL     1      20.057   2.732  52.585  1.00  0.00    -0.270 NA
HETATM    5  C4  UNL     1      20.050   3.622  51.572  1.00  0.00     0.124 C 
HETATM    6  C5  UNL     1      21.373   3.881  51.466  1.00  0.00    -0.020 C 
HETATM    7  C6  UNL     1      21.766   2.897  50.508  1.00  0.00    -0.021 C 
HETATM    8  C7  UNL     1      22.966   2.969  51.199  1.00  0.00     0.048 C 
HETATM    9  N2  UNL     1      23.908   2.108  51.477  1.00  0.00    -0.270 N 
HETATM   10  N3  UNL     1      23.174   1.069  51.845  1.00  0.00    -0.176 NA
HETATM   11  C10 UNL     1      22.733   4.375  51.570  1.00  0.00     0.100 C 
HETATM   12  C11 UNL     1      23.375   5.353  50.710  1.00  0.00     0.153 C 
HETATM   13  C12 UNL     1      22.515   6.012  49.703  1.00  0.00     0.034 C 
HETATM   14  C13 UNL     1      22.377   5.275  48.379  1.00  0.00     0.029 C 
HETATM   15  C14 UNL     1      22.323   3.813  48.637  1.00  0.00    -0.030 C 
HETATM   16  C15 UNL     1      22.825   2.574  48.380  1.00  0.00    -0.026 C 
HETATM   17  C16 UNL     1      21.885   1.868  49.346  1.00  0.00     0.068 C 
ENDROOT
BRANCH   9  18
HETATM   18  C8  UNL     1      25.304   1.799  51.578  1.00  0.00     0.177 C 
BRANCH  18  19
HETATM   19  C9  UNL     1      26.199   2.739  50.849  1.00  0.00     0.185 C 
BRANCH  19  20
HETATM   20  O1  UNL     1      27.359   3.017  51.545  1.00  0.00    -0.399 OA
HETATM   21  H10 UNL     1      27.405   2.457  52.364  1.00  0.00     0.209 HD
ENDBRANCH  19  20
ENDBRANCH  18  19
ENDBRANCH   9  18
BRANCH  12  22
HETATM   22  N4  UNL     1      24.081   6.343  51.532  1.00  0.00    -0.135 NA
HETATM   23  O2  UNL     1      24.123   7.484  51.190  1.00  0.00    -0.066 OA
ENDBRANCH  12  22
TORSDOF 4
ENDMDL
MODEL 4
REMARK VINA RESULT:      -6.2      2.460      4.620
REMARK  4 active torsions:
REMARK  status: ('A' for Active; 'I' for Inactive)
REMARK    1  A    between atoms: N2_9  and  C8_10 
REMARK    2  A    between atoms: C8_10  and  C9_11 
REMARK    3  A    between atoms: C9_11  and  O1_12 
REMARK    4  A    between atoms: C11_15  and  N4_16 
ROOT
HETATM    1  C1  UNL     1      24.102   8.036  50.078  1.00  0.00     0.074 C 
HETATM    2  C2  UNL     1      23.642   6.762  50.714  1.00  0.00     0.068 C 
HETATM    3  C3  UNL     1      22.308   6.737  51.159  1.00  0.00     0.144 C 
HETATM    4  N1  UNL     1      21.071   6.296  50.788  1.00  0.00    -0.270 NA
HETATM    5  C4  UNL     1      20.727   5.013  51.019  1.00  0.00     0.124 C 
HETATM    6  C5  UNL     1      21.693   4.373  50.323  1.00  0.00    -0.020 C 
HETATM    7  C6  UNL     1      22.693   4.214  51.330  1.00  0.00    -0.021 C 
HETATM    8  C7  UNL     1      23.544   4.291  50.238  1.00  0.00     0.048 C 
HETATM    9  N2  UNL     1      24.751   4.757  50.057  1.00  0.00    -0.270 N 
HETATM   10  N3  UNL     1      24.659   5.906  50.708  1.00  0.00    -0.176 NA
HETATM   11  C10 UNL     1      22.531   3.717  49.337  1.00  0.00     0.100 C 
HETATM   12  C11 UNL     1      22.652   2.289  49.105  1.00  0.00     0.153 C 
HETATM   13  C12 UNL     1      21.730   1.417  49.863  1.00  0.00     0.034 C 
HETATM   14  C13 UNL     1      22.211   1.002  51.246  1.00  0.00     0.029 C 
HETATM   15  C14 UNL     1      22.926   2.141  51.876  1.00  0.00    -0.030 C 
HETATM   16  C15 UNL     1      24.053   2.607  52.480  1.00  0.00    -0.026 C 
HETATM   17  C16 UNL     1      23.522   4.025  52.635  1.00  0.00     0.068 C 
ENDROOT
BRANCH   9  18
HETATM   18  C8  UNL     1      26.057   4.605  49.486  1.00  0.00     0.177 C 
BRANCH  18  19
HETATM   19  C9  UNL     1      26.714   3.304  49.784  1.00  0.00     0.185 C 
BRANCH  19  20
HETATM   20  O1  UNL     1      27.129   3.206  51.098  1.00  0.00    -0.399 OA
HETATM   21  H10 UNL     1      26.566   2.546  51.583  1.00  0.00     0.209 HD
ENDBRANCH  19  20
ENDBRANCH  18  19
ENDBRANCH   9  18
BRANCH  12  22
HETATM   22  N4  UNL     1      22.575   2.016  47.665  1.00  0.00    -0.135 NA
HETATM   23  O2  UNL     1      22.243   2.878  46.910  1.00  0.00    -0.066 OA
ENDBRANCH  12  22
TORSDOF 4
ENDMDL
MODEL 5
REMARK VINA RESULT:      -6.2      2.274      3.545
REMARK  4 active torsions:
REMARK  status: ('A' for Active; 'I' for Inactive)
REMARK    1  A    between atoms: N2_9  and  C8_10 
REMARK    2  A    between atoms: C8_10  and  C9_11 
REMARK    3  A    between atoms: C9_11  and  O1_12 
REMARK    4  A    between atoms: C11_15  and  N4_16 
ROOT
HETATM    1  C1  UNL     1      27.387   4.874  48.663  1.00  0.00     0.074 C 
HETATM    2  C2  UNL     1      26.092   5.049  49.391  1.00  0.00     0.068 C 
HETATM    3  C3  UNL     1      25.210   6.012  48.867  1.00  0.00     0.144 C 
HETATM    4  N1  UNL     1      24.096   6.122  48.087  1.00  0.00    -0.270 NA
HETATM    5  C4  UNL     1      22.880   5.925  48.634  1.00  0.00     0.124 C 
HETATM    6  C5  UNL     1      23.022   4.660  49.093  1.00  0.00    -0.020 C 
HETATM    7  C6  UNL     1      23.503   4.904  50.416  1.00  0.00    -0.021 C 
HETATM    8  C7  UNL     1      24.138   3.688  50.211  1.00  0.00     0.048 C 
HETATM    9  N2  UNL     1      25.269   3.175  50.613  1.00  0.00    -0.270 N 
HETATM   10  N3  UNL     1      26.077   4.206  50.419  1.00  0.00    -0.176 NA
HETATM   11  C10 UNL     1      23.080   3.225  49.297  1.00  0.00     0.100 C 
HETATM   12  C11 UNL     1      22.062   2.389  49.908  1.00  0.00     0.153 C 
HETATM   13  C12 UNL     1      20.779   3.045  50.238  1.00  0.00     0.034 C 
HETATM   14  C13 UNL     1      20.720   3.717  51.602  1.00  0.00     0.029 C 
HETATM   15  C14 UNL     1      22.033   4.348  51.892  1.00  0.00    -0.030 C 
HETATM   16  C15 UNL     1      23.090   4.480  52.740  1.00  0.00    -0.026 C 
HETATM   17  C16 UNL     1      23.842   5.446  51.836  1.00  0.00     0.068 C 
ENDROOT
BRANCH   9  18
HETATM   18  C8  UNL     1      26.000   2.053  51.125  1.00  0.00     0.177 C 
BRANCH  18  19
HETATM   19  C9  UNL     1      26.697   2.305  52.415  1.00  0.00     0.185 C 
BRANCH  19  20
HETATM   20  O1  UNL     1      27.982   2.783  52.241  1.00  0.00    -0.399 OA
HETATM   21  H10 UNL     1      28.205   2.809  51.274  1.00  0.00     0.209 HD
ENDBRANCH  19  20
ENDBRANCH  18  19
ENDBRANCH   9  18
BRANCH  12  22
HETATM   22  N4  UNL     1      21.849   1.193  49.083  1.00  0.00    -0.135 NA
HETATM   23  O2  UNL     1      21.920   1.266  47.895  1.00  0.00    -0.066 OA
ENDBRANCH  12  22
TORSDOF 4
ENDMDL
MODEL 6
REMARK VINA RESULT:      -6.0      7.749      9.943
REMARK  4 active torsions:
REMARK  status: ('A' for Active; 'I' for Inactive)
REMARK    1  A    between atoms: N2_9  and  C8_10 
REMARK    2  A    between atoms: C8_10  and  C9_11 
REMARK    3  A    between atoms: C9_11  and  O1_12 
REMARK    4  A    between atoms: C11_15  and  N4_16 
ROOT
HETATM    1  C1  UNL     1      33.677   7.497  48.585  1.00  0.00     0.074 C 
HETATM    2  C2  UNL     1      32.369   7.430  47.862  1.00  0.00     0.068 C 
HETATM    3  C3  UNL     1      31.725   6.179  47.858  1.00  0.00     0.144 C 
HETATM    4  N1  UNL     1      30.729   5.493  48.489  1.00  0.00    -0.270 NA
HETATM    5  C4  UNL     1      29.450   5.676  48.104  1.00  0.00     0.124 C 
HETATM    6  C5  UNL     1      29.322   7.007  48.311  1.00  0.00    -0.020 C 
HETATM    7  C6  UNL     1      29.708   7.518  47.033  1.00  0.00    -0.021 C 
HETATM    8  C7  UNL     1      30.136   8.593  47.798  1.00  0.00     0.048 C 
HETATM    9  N2  UNL     1      31.115   9.450  47.693  1.00  0.00    -0.270 N 
HETATM   10  N3  UNL     1      32.107   8.635  47.367  1.00  0.00    -0.176 NA
HETATM   11  C10 UNL     1      29.106   8.347  48.822  1.00  0.00     0.100 C 
HETATM   12  C11 UNL     1      27.903   9.149  48.689  1.00  0.00     0.153 C 
HETATM   13  C12 UNL     1      26.730   8.484  48.084  1.00  0.00     0.034 C 
HETATM   14  C13 UNL     1      26.659   8.538  46.565  1.00  0.00     0.029 C 
HETATM   15  C14 UNL     1      28.028   8.397  46.007  1.00  0.00    -0.030 C 
HETATM   16  C15 UNL     1      29.005   8.895  45.200  1.00  0.00    -0.026 C 
HETATM   17  C16 UNL     1      29.998   7.790  45.528  1.00  0.00     0.068 C 
ENDROOT
BRANCH   9  18
HETATM   18  C8  UNL     1      31.584  10.802  47.784  1.00  0.00     0.177 C 
BRANCH  18  19
HETATM   19  C9  UNL     1      30.605  11.758  48.368  1.00  0.00     0.185 C 
BRANCH  19  20
HETATM   20  O1  UNL     1      30.366  11.522  49.708  1.00  0.00    -0.399 OA
HETATM   21  H10 UNL     1      31.004  12.042  50.263  1.00  0.00     0.209 HD
ENDBRANCH  19  20
ENDBRANCH  18  19
ENDBRANCH   9  18
BRANCH  12  22
HETATM   22  N4  UNL     1      27.564   9.744  49.988  1.00  0.00    -0.135 NA
HETATM   23  O2  UNL     1      26.423   9.840  50.321  1.00  0.00    -0.066 OA
ENDBRANCH  12  22
TORSDOF 4
ENDMDL
MODEL 7
REMARK VINA RESULT:      -6.0      1.659      4.778
REMARK  4 active torsions:
REMARK  status: ('A' for Active; 'I' for Inactive)
REMARK    1  A    between atoms: N2_9  and  C8_10 
REMARK    2  A    between atoms: C8_10  and  C9_11 
REMARK    3  A    between atoms: C9_11  and  O1_12 
REMARK    4  A    between atoms: C11_15  and  N4_16 
ROOT
HETATM    1  C1  UNL     1      20.410   5.027  49.872  1.00  0.00     0.074 C 
HETATM    2  C2  UNL     1      21.851   4.803  50.209  1.00  0.00     0.068 C 
HETATM    3  C3  UNL     1      22.350   5.521  51.311  1.00  0.00     0.144 C 
HETATM    4  N1  UNL     1      22.638   5.371  52.636  1.00  0.00    -0.270 NA
HETATM    5  C4  UNL     1      23.813   4.822  53.002  1.00  0.00     0.124 C 
HETATM    6  C5  UNL     1      23.719   3.618  52.392  1.00  0.00    -0.020 C 
HETATM    7  C6  UNL     1      24.325   3.906  51.131  1.00  0.00    -0.021 C 
HETATM    8  C7  UNL     1      23.452   2.921  50.694  1.00  0.00     0.048 C 
HETATM    9  N2  UNL     1      22.802   2.710  49.581  1.00  0.00    -0.270 N 
HETATM   10  N3  UNL     1      22.348   3.930  49.339  1.00  0.00    -0.176 NA
HETATM   11  C10 UNL     1      23.474   2.243  52.002  1.00  0.00     0.100 C 
HETATM   12  C11 UNL     1      24.400   1.129  52.101  1.00  0.00     0.153 C 
HETATM   13  C12 UNL     1      25.680   1.393  52.792  1.00  0.00     0.034 C 
HETATM   14  C13 UNL     1      26.794   1.944  51.914  1.00  0.00     0.029 C 
HETATM   15  C14 UNL     1      26.215   2.889  50.924  1.00  0.00    -0.030 C 
HETATM   16  C15 UNL     1      26.070   3.252  49.621  1.00  0.00    -0.026 C 
HETATM   17  C16 UNL     1      25.166   4.436  49.932  1.00  0.00     0.068 C 
ENDROOT
BRANCH   9  18
HETATM   18  C8  UNL     1      22.363   1.799  48.565  1.00  0.00     0.177 C 
BRANCH  18  19
HETATM   19  C9  UNL     1      21.003   1.236  48.784  1.00  0.00     0.185 C 
BRANCH  19  20
HETATM   20  O1  UNL     1      20.015   1.977  48.166  1.00  0.00    -0.399 OA
HETATM   21  H10 UNL     1      19.224   2.051  48.762  1.00  0.00     0.209 HD
ENDBRANCH  19  20
ENDBRANCH  18  19
ENDBRANCH   9  18
BRANCH  12  22
HETATM   22  N4  UNL     1      23.713  -0.031  52.685  1.00  0.00    -0.135 NA
HETATM   23  O2  UNL     1      22.617   0.090  53.138  1.00  0.00    -0.066 OA
ENDBRANCH  12  22
TORSDOF 4
ENDMDL
MODEL 8
REMARK VINA RESULT:      -6.0      8.364     10.730
REMARK  4 active torsions:
REMARK  status: ('A' for Active; 'I' for Inactive)
REMARK    1  A    between atoms: N2_9  and  C8_10 
REMARK    2  A    between atoms: C8_10  and  C9_11 
REMARK    3  A    between atoms: C9_11  and  O1_12 
REMARK    4  A    between atoms: C11_15  and  N4_16 
ROOT
HETATM    1  C1  UNL     1      33.624   4.561  43.508  1.00  0.00     0.074 C 
HETATM    2  C2  UNL     1      33.482   5.631  44.544  1.00  0.00     0.068 C 
HETATM    3  C3  UNL     1      32.937   6.852  44.105  1.00  0.00     0.144 C 
HETATM    4  N1  UNL     1      31.764   7.548  44.088  1.00  0.00    -0.270 NA
HETATM    5  C4  UNL     1      31.401   8.264  45.172  1.00  0.00     0.124 C 
HETATM    6  C5  UNL     1      31.366   7.287  46.107  1.00  0.00    -0.020 C 
HETATM    7  C6  UNL     1      32.704   7.341  46.605  1.00  0.00    -0.021 C 
HETATM    8  C7  UNL     1      32.480   5.990  46.827  1.00  0.00     0.048 C 
HETATM    9  N2  UNL     1      33.240   4.928  46.808  1.00  0.00    -0.270 N 
HETATM   10  N3  UNL     1      33.929   5.150  45.700  1.00  0.00    -0.176 NA
HETATM   11  C10 UNL     1      31.035   6.203  47.012  1.00  0.00     0.100 C 
HETATM   12  C11 UNL     1      30.603   6.319  48.393  1.00  0.00     0.153 C 
HETATM   13  C12 UNL     1      30.347   7.687  48.892  1.00  0.00     0.034 C 
HETATM   14  C13 UNL     1      31.560   8.417  49.449  1.00  0.00     0.029 C 
HETATM   15  C14 UNL     1      32.752   8.079  48.630  1.00  0.00    -0.030 C 
HETATM   16  C15 UNL     1      34.030   7.610  48.585  1.00  0.00    -0.026 C 
HETATM   17  C16 UNL     1      34.140   7.723  47.072  1.00  0.00     0.068 C 
ENDROOT
BRANCH   9  18
HETATM   18  C8  UNL     1      33.633   3.684  47.404  1.00  0.00     0.177 C 
BRANCH  18  19
HETATM   19  C9  UNL     1      32.957   2.486  46.836  1.00  0.00     0.185 C 
BRANCH  19  20
HETATM   20  O1  UNL     1      31.831   2.808  46.103  1.00  0.00    -0.399 OA
HETATM   21  H10 UNL     1      31.752   2.203  45.320  1.00  0.00     0.209 HD
ENDBRANCH  19  20
ENDBRANCH  18  19
ENDBRANCH   9  18
BRANCH  12  22
HETATM   22  N4  UNL     1      29.443   5.447  48.620  1.00  0.00    -0.135 NA
HETATM   23  O2  UNL     1      28.377   5.743  48.175  1.00  0.00    -0.066 OA
ENDBRANCH  12  22
TORSDOF 4
ENDMDL
MODEL 9
REMARK VINA RESULT:      -5.9      3.131      5.264
REMARK  4 active torsions:
REMARK  status: ('A' for Active; 'I' for Inactive)
REMARK    1  A    between atoms: N2_9  and  C8_10 
REMARK    2  A    between atoms: C8_10  and  C9_11 
REMARK    3  A    between atoms: C9_11  and  O1_12 
REMARK    4  A    between atoms: C11_15  and  N4_16 
ROOT
HETATM    1  C1  UNL     1      23.069   7.667  50.555  1.00  0.00     0.074 C 
HETATM    2  C2  UNL     1      23.130   6.177  50.445  1.00  0.00     0.068 C 
HETATM    3  C3  UNL     1      23.919   5.515  51.405  1.00  0.00     0.144 C 
HETATM    4  N1  UNL     1      23.812   4.824  52.577  1.00  0.00    -0.270 NA
HETATM    5  C4  UNL     1      23.501   3.513  52.548  1.00  0.00     0.124 C 
HETATM    6  C5  UNL     1      22.310   3.559  51.908  1.00  0.00    -0.020 C 
HETATM    7  C6  UNL     1      22.728   3.419  50.549  1.00  0.00    -0.021 C 
HETATM    8  C7  UNL     1      21.595   4.185  50.315  1.00  0.00     0.048 C 
HETATM    9  N2  UNL     1      21.274   5.085  49.425  1.00  0.00    -0.270 N 
HETATM   10  N3  UNL     1      22.383   5.807  49.410  1.00  0.00    -0.176 NA
HETATM   11  C10 UNL     1      20.918   3.650  51.509  1.00  0.00     0.100 C 
HETATM   12  C11 UNL     1      20.008   2.548  51.259  1.00  0.00     0.153 C 
HETATM   13  C12 UNL     1      20.512   1.192  51.568  1.00  0.00     0.034 C 
HETATM   14  C13 UNL     1      21.283   0.511  50.447  1.00  0.00     0.029 C 
HETATM   15  C14 UNL     1      22.106   1.522  49.736  1.00  0.00    -0.030 C 
HETATM   16  C15 UNL     1      22.451   2.111  48.558  1.00  0.00    -0.026 C 
HETATM   17  C16 UNL     1      23.428   3.085  49.199  1.00  0.00     0.068 C 
ENDROOT
BRANCH   9  18
HETATM   18  C8  UNL     1      20.307   5.629  48.516  1.00  0.00     0.177 C 
BRANCH  18  19
HETATM   19  C9  UNL     1      19.264   6.474  49.157  1.00  0.00     0.185 C 
BRANCH  19  20
HETATM   20  O1  UNL     1      18.248   5.728  49.722  1.00  0.00    -0.399 OA
HETATM   21  H10 UNL     1      17.522   6.328  50.038  1.00  0.00     0.209 HD
ENDBRANCH  19  20
ENDBRANCH  18  19
ENDBRANCH   9  18
BRANCH  12  22
HETATM   22  N4  UNL     1      18.729   2.804  51.933  1.00  0.00    -0.135 NA
HETATM   23  O2  UNL     1      18.258   3.899  51.926  1.00  0.00    -0.066 OA
ENDBRANCH  12  22
TORSDOF 4
ENDMDL
