MODEL 1
REMARK VINA RESULT:      -7.6      0.000      0.000
REMARK  5 active torsions:
REMARK  status: ('A' for Active; 'I' for Inactive)
REMARK    1  A    between atoms: O1_2  and  C2_3 
REMARK    2  A    between atoms: C4_5  and  N1_6 
REMARK       I    between atoms: N1_6  and  C5_7 
REMARK    3  A    between atoms: C5_7  and  C6_9 
REMARK    4  A    between atoms: C7_10  and  C8_11 
REMARK    5  A    between atoms: C8_11  and  N2_12 
ROOT
HETATM    1  N1  UNL     1      25.440   3.507  51.607  1.00  0.00    -0.324 N 
HETATM    2  C5  UNL     1      26.326   3.179  50.549  1.00  0.00     0.245 C 
HETATM    3  O2  UNL     1      26.871   2.048  50.586  1.00  0.00    -0.268 OA
HETATM    4  H5  UNL     1      24.985   4.449  51.575  1.00  0.00     0.169 HD
ENDROOT
BRANCH   1   5
HETATM    5  C4  UNL     1      25.394   2.379  52.507  1.00  0.00     0.038 A 
HETATM    6  C3  UNL     1      26.496   2.134  53.301  1.00  0.00     0.068 A 
HETATM    7  C2  UNL     1      26.521   1.079  54.185  1.00  0.00     0.100 A 
HETATM    8  C15 UNL     1      25.416   0.257  54.269  1.00  0.00     0.101 A 
HETATM    9  C14 UNL     1      24.303   0.490  53.479  1.00  0.00     0.010 A 
HETATM   10  N3  UNL     1      25.350  -0.768  55.079  1.00  0.00    -0.257 NA
HETATM   11  C13 UNL     1      24.277   1.554  52.587  1.00  0.00     0.044 A 
HETATM   12  C18 UNL     1      23.240  -0.279  53.542  1.00  0.00     0.001 C 
HETATM   13  C17 UNL     1      23.086  -1.006  54.598  1.00  0.00     0.006 C 
HETATM   14  C16 UNL     1      24.172  -1.562  55.102  1.00  0.00     0.130 C 
BRANCH   7  15
HETATM   15  O1  UNL     1      27.555   0.717  55.038  1.00  0.00    -0.353 OA
HETATM   16  C1  UNL     1      28.790   0.336  54.465  1.00  0.00     0.210 C 
ENDBRANCH   7  15
ENDBRANCH   1   5
BRANCH   2  17
HETATM   17  C6  UNL     1      26.662   4.037  49.424  1.00  0.00     0.072 C 
HETATM   18  C7  UNL     1      26.913   5.314  49.328  1.00  0.00     0.008 C 
BRANCH  18  19
HETATM   19  C8  UNL     1      27.256   6.235  48.226  1.00  0.00     0.300 C 
BRANCH  19  20
HETATM   20  N2  UNL     1      26.737   7.562  48.436  1.00  0.00     0.096 N 
HETATM   21  C9  UNL     1      27.739   8.572  48.195  1.00  0.00     0.299 C 
HETATM   22  C10 UNL     1      28.292   9.116  49.520  1.00  0.00     0.198 C 
HETATM   23  O3  UNL     1      27.315   9.597  50.355  1.00  0.00    -0.388 OA
HETATM   24  C11 UNL     1      26.035   9.187  50.021  1.00  0.00     0.198 C 
HETATM   25  C12 UNL     1      26.016   7.707  49.660  1.00  0.00     0.299 C 
ENDBRANCH  19  20
ENDBRANCH  18  19
ENDBRANCH   2  17
TORSDOF 5
ENDMDL
MODEL 2
REMARK VINA RESULT:      -7.5      1.672      2.025
REMARK  5 active torsions:
REMARK  status: ('A' for Active; 'I' for Inactive)
REMARK    1  A    between atoms: O1_2  and  C2_3 
REMARK    2  A    between atoms: C4_5  and  N1_6 
REMARK       I    between atoms: N1_6  and  C5_7 
REMARK    3  A    between atoms: C5_7  and  C6_9 
REMARK    4  A    between atoms: C7_10  and  C8_11 
REMARK    5  A    between atoms: C8_11  and  N2_12 
ROOT
HETATM    1  N1  UNL     1      25.689   2.074  51.054  1.00  0.00    -0.324 N 
HETATM    2  C5  UNL     1      25.083   3.329  51.315  1.00  0.00     0.245 C 
HETATM    3  O2  UNL     1      24.470   3.455  52.404  1.00  0.00    -0.268 OA
HETATM    4  H5  UNL     1      26.200   1.970  50.146  1.00  0.00     0.169 HD
ENDROOT
BRANCH   1   5
HETATM    5  C4  UNL     1      25.425   1.215  52.184  1.00  0.00     0.038 A 
HETATM    6  C3  UNL     1      26.476   0.900  53.021  1.00  0.00     0.068 A 
HETATM    7  C2  UNL     1      26.297   0.089  54.120  1.00  0.00     0.100 A 
HETATM    8  C15 UNL     1      25.037  -0.411  54.377  1.00  0.00     0.101 A 
HETATM    9  C14 UNL     1      23.973  -0.103  53.546  1.00  0.00     0.010 A 
HETATM   10  N3  UNL     1      24.774  -1.187  55.397  1.00  0.00    -0.257 NA
HETATM   11  C13 UNL     1      24.153   0.714  52.439  1.00  0.00     0.044 A 
HETATM   12  C18 UNL     1      22.766  -0.568  53.772  1.00  0.00     0.001 C 
HETATM   13  C17 UNL     1      22.496  -0.988  54.963  1.00  0.00     0.006 C 
HETATM   14  C16 UNL     1      23.446  -1.658  55.587  1.00  0.00     0.130 C 
BRANCH   7  15
HETATM   15  O1  UNL     1      27.257  -0.308  55.041  1.00  0.00    -0.353 OA
HETATM   16  C1  UNL     1      28.598   0.075  54.813  1.00  0.00     0.210 C 
ENDBRANCH   7  15
ENDBRANCH   1   5
BRANCH   2  17
HETATM   17  C6  UNL     1      25.106   4.485  50.433  1.00  0.00     0.072 C 
HETATM   18  C7  UNL     1      25.981   4.926  49.572  1.00  0.00     0.008 C 
BRANCH  18  19
HETATM   19  C8  UNL     1      26.063   6.081  48.656  1.00  0.00     0.300 C 
BRANCH  19  20
HETATM   20  N2  UNL     1      27.349   6.727  48.697  1.00  0.00     0.096 N 
HETATM   21  C9  UNL     1      27.317   8.024  48.066  1.00  0.00     0.299 C 
HETATM   22  C10 UNL     1      27.947   7.963  46.667  1.00  0.00     0.198 C 
HETATM   23  O3  UNL     1      29.224   7.462  46.673  1.00  0.00    -0.388 OA
HETATM   24  C11 UNL     1      29.563   6.790  47.835  1.00  0.00     0.198 C 
HETATM   25  C12 UNL     1      28.426   5.882  48.288  1.00  0.00     0.299 C 
ENDBRANCH  19  20
ENDBRANCH  18  19
ENDBRANCH   2  17
TORSDOF 5
ENDMDL
MODEL 3
REMARK VINA RESULT:      -7.3      2.609      3.137
REMARK  5 active torsions:
REMARK  status: ('A' for Active; 'I' for Inactive)
REMARK    1  A    between atoms: O1_2  and  C2_3 
REMARK    2  A    between atoms: C4_5  and  N1_6 
REMARK       I    between atoms: N1_6  and  C5_7 
REMARK    3  A    between atoms: C5_7  and  C6_9 
REMARK    4  A    between atoms: C7_10  and  C8_11 
REMARK    5  A    between atoms: C8_11  and  N2_12 
ROOT
HETATM    1  N1  UNL     1      25.795   4.362  50.693  1.00  0.00    -0.324 N 
HETATM    2  C5  UNL     1      26.659   4.035  49.616  1.00  0.00     0.245 C 
HETATM    3  O2  UNL     1      26.910   2.818  49.430  1.00  0.00    -0.268 OA
HETATM    4  H5  UNL     1      25.587   5.376  50.847  1.00  0.00     0.169 HD
ENDROOT
BRANCH   1   5
HETATM    5  C4  UNL     1      25.405   3.128  51.333  1.00  0.00     0.038 A 
HETATM    6  C3  UNL     1      26.351   2.452  52.075  1.00  0.00     0.068 A 
HETATM    7  C2  UNL     1      26.048   1.271  52.716  1.00  0.00     0.100 A 
HETATM    8  C15 UNL     1      24.769   0.765  52.605  1.00  0.00     0.101 A 
HETATM    9  C14 UNL     1      23.809   1.433  51.864  1.00  0.00     0.010 A 
HETATM   10  N3  UNL     1      24.392  -0.348  53.179  1.00  0.00    -0.257 NA
HETATM   11  C13 UNL     1      24.114   2.623  51.218  1.00  0.00     0.044 A 
HETATM   12  C18 UNL     1      22.586   0.970  51.745  1.00  0.00     0.001 C 
HETATM   13  C17 UNL     1      22.180   0.111  52.620  1.00  0.00     0.006 C 
HETATM   14  C16 UNL     1      23.053  -0.797  53.013  1.00  0.00     0.130 C 
BRANCH   7  15
HETATM   15  O1  UNL     1      26.895   0.490  53.491  1.00  0.00    -0.353 OA
HETATM   16  C1  UNL     1      28.288   0.697  53.371  1.00  0.00     0.210 C 
ENDBRANCH   7  15
ENDBRANCH   1   5
BRANCH   2  17
HETATM   17  C6  UNL     1      27.283   4.984  48.708  1.00  0.00     0.072 C 
HETATM   18  C7  UNL     1      28.525   5.329  48.503  1.00  0.00     0.008 C 
BRANCH  18  19
HETATM   19  C8  UNL     1      29.216   6.277  47.606  1.00  0.00     0.300 C 
BRANCH  19  20
HETATM   20  N2  UNL     1      30.648   6.145  47.664  1.00  0.00     0.096 N 
HETATM   21  C9  UNL     1      31.122   6.043  49.023  1.00  0.00     0.299 C 
HETATM   22  C10 UNL     1      31.724   7.376  49.489  1.00  0.00     0.198 C 
HETATM   23  O3  UNL     1      32.721   7.834  48.666  1.00  0.00    -0.388 OA
HETATM   24  C11 UNL     1      32.750   7.227  47.422  1.00  0.00     0.198 C 
HETATM   25  C12 UNL     1      31.344   7.091  46.851  1.00  0.00     0.299 C 
ENDBRANCH  19  20
ENDBRANCH  18  19
ENDBRANCH   2  17
TORSDOF 5
ENDMDL
MODEL 4
REMARK VINA RESULT:      -7.3      1.467      2.941
REMARK  5 active torsions:
REMARK  status: ('A' for Active; 'I' for Inactive)
REMARK    1  A    between atoms: O1_2  and  C2_3 
REMARK    2  A    between atoms: C4_5  and  N1_6 
REMARK       I    between atoms: N1_6  and  C5_7 
REMARK    3  A    between atoms: C5_7  and  C6_9 
REMARK    4  A    between atoms: C7_10  and  C8_11 
REMARK    5  A    between atoms: C8_11  and  N2_12 
ROOT
HETATM    1  N1  UNL     1      25.612   3.718  51.334  1.00  0.00    -0.324 N 
HETATM    2  C5  UNL     1      26.184   3.776  50.038  1.00  0.00     0.245 C 
HETATM    3  O2  UNL     1      26.962   2.846  49.711  1.00  0.00    -0.268 OA
HETATM    4  H5  UNL     1      24.963   4.493  51.605  1.00  0.00     0.169 HD
ENDROOT
BRANCH   1   5
HETATM    5  C4  UNL     1      26.106   2.525  51.979  1.00  0.00     0.038 A 
HETATM    6  C3  UNL     1      25.231   1.473  52.161  1.00  0.00     0.068 A 
HETATM    7  C2  UNL     1      25.635   0.303  52.766  1.00  0.00     0.100 A 
HETATM    8  C15 UNL     1      26.942   0.194  53.193  1.00  0.00     0.101 A 
HETATM    9  C14 UNL     1      27.832   1.241  53.017  1.00  0.00     0.010 A 
HETATM   10  N3  UNL     1      27.414  -0.879  53.775  1.00  0.00    -0.257 NA
HETATM   11  C13 UNL     1      27.426   2.420  52.408  1.00  0.00     0.044 A 
HETATM   12  C18 UNL     1      29.080   1.158  53.415  1.00  0.00     0.001 C 
HETATM   13  C17 UNL     1      29.571  -0.019  53.618  1.00  0.00     0.006 C 
HETATM   14  C16 UNL     1      28.775  -0.907  54.184  1.00  0.00     0.130 C 
BRANCH   7  15
HETATM   15  O1  UNL     1      24.868  -0.828  53.012  1.00  0.00    -0.353 OA
HETATM   16  C1  UNL     1      23.629  -0.661  53.673  1.00  0.00     0.210 C 
ENDBRANCH   7  15
ENDBRANCH   1   5
BRANCH   2  17
HETATM   17  C6  UNL     1      25.951   4.819  49.051  1.00  0.00     0.072 C 
HETATM   18  C7  UNL     1      25.611   6.075  49.153  1.00  0.00     0.008 C 
BRANCH  18  19
HETATM   19  C8  UNL     1      25.361   7.175  48.199  1.00  0.00     0.300 C 
BRANCH  19  20
HETATM   20  N2  UNL     1      26.108   8.363  48.522  1.00  0.00     0.096 N 
HETATM   21  C9  UNL     1      27.178   8.594  47.583  1.00  0.00     0.299 C 
HETATM   22  C10 UNL     1      28.529   8.182  48.185  1.00  0.00     0.198 C 
HETATM   23  O3  UNL     1      28.796   8.800  49.381  1.00  0.00    -0.388 OA
HETATM   24  C11 UNL     1      27.688   9.375  49.980  1.00  0.00     0.198 C 
HETATM   25  C12 UNL     1      26.483   8.446  49.898  1.00  0.00     0.299 C 
ENDBRANCH  19  20
ENDBRANCH  18  19
ENDBRANCH   2  17
TORSDOF 5
ENDMDL
MODEL 5
REMARK VINA RESULT:      -7.3      2.664      4.032
REMARK  5 active torsions:
REMARK  status: ('A' for Active; 'I' for Inactive)
REMARK    1  A    between atoms: O1_2  and  C2_3 
REMARK    2  A    between atoms: C4_5  and  N1_6 
REMARK       I    between atoms: N1_6  and  C5_7 
REMARK    3  A    between atoms: C5_7  and  C6_9 
REMARK    4  A    between atoms: C7_10  and  C8_11 
REMARK    5  A    between atoms: C8_11  and  N2_12 
ROOT
HETATM    1  N1  UNL     1      24.022   1.892  51.448  1.00  0.00    -0.324 N 
HETATM    2  C5  UNL     1      23.643   3.130  52.027  1.00  0.00     0.245 C 
HETATM    3  O2  UNL     1      24.180   3.443  53.119  1.00  0.00    -0.268 OA
HETATM    4  H5  UNL     1      23.574   1.633  50.539  1.00  0.00     0.169 HD
ENDROOT
BRANCH   1   5
HETATM    5  C4  UNL     1      24.990   1.277  52.324  1.00  0.00     0.038 A 
HETATM    6  C3  UNL     1      24.546   0.329  53.223  1.00  0.00     0.068 A 
HETATM    7  C2  UNL     1      25.414  -0.302  54.087  1.00  0.00     0.100 A 
HETATM    8  C15 UNL     1      26.752   0.030  54.041  1.00  0.00     0.101 A 
HETATM    9  C14 UNL     1      27.213   0.979  53.144  1.00  0.00     0.010 A 
HETATM   10  N3  UNL     1      27.649  -0.517  54.821  1.00  0.00    -0.257 NA
HETATM   11  C13 UNL     1      26.339   1.615  52.274  1.00  0.00     0.044 A 
HETATM   12  C18 UNL     1      28.482   1.310  53.084  1.00  0.00     0.001 C 
HETATM   13  C17 UNL     1      29.344   0.487  53.583  1.00  0.00     0.006 C 
HETATM   14  C16 UNL     1      29.008  -0.116  54.708  1.00  0.00     0.130 C 
BRANCH   7  15
HETATM   15  O1  UNL     1      25.107  -1.267  55.036  1.00  0.00    -0.353 OA
HETATM   16  C1  UNL     1      23.807  -1.267  55.590  1.00  0.00     0.210 C 
ENDBRANCH   7  15
ENDBRANCH   1   5
BRANCH   2  17
HETATM   17  C6  UNL     1      22.684   4.072  51.469  1.00  0.00     0.072 C 
HETATM   18  C7  UNL     1      22.584   5.371  51.524  1.00  0.00     0.008 C 
BRANCH  18  19
HETATM   19  C8  UNL     1      21.643   6.375  50.986  1.00  0.00     0.300 C 
BRANCH  19  20
HETATM   20  N2  UNL     1      22.317   7.454  50.311  1.00  0.00     0.096 N 
HETATM   21  C9  UNL     1      22.247   7.314  48.877  1.00  0.00     0.299 C 
HETATM   22  C10 UNL     1      23.579   6.793  48.317  1.00  0.00     0.198 C 
HETATM   23  O3  UNL     1      24.653   7.569  48.673  1.00  0.00    -0.388 OA
HETATM   24  C11 UNL     1      24.403   8.431  49.727  1.00  0.00     0.198 C 
HETATM   25  C12 UNL     1      23.619   7.728  50.829  1.00  0.00     0.299 C 
ENDBRANCH  19  20
ENDBRANCH  18  19
ENDBRANCH   2  17
TORSDOF 5
ENDMDL
MODEL 6
REMARK VINA RESULT:      -7.2      1.861      2.398
REMARK  5 active torsions:
REMARK  status: ('A' for Active; 'I' for Inactive)
REMARK    1  A    between atoms: O1_2  and  C2_3 
REMARK    2  A    between atoms: C4_5  and  N1_6 
REMARK       I    between atoms: N1_6  and  C5_7 
REMARK    3  A    between atoms: C5_7  and  C6_9 
REMARK    4  A    between atoms: C7_10  and  C8_11 
REMARK    5  A    between atoms: C8_11  and  N2_12 
ROOT
HETATM    1  N1  UNL     1      25.509   4.197  50.847  1.00  0.00    -0.324 N 
HETATM    2  C5  UNL     1      26.445   3.785  49.864  1.00  0.00     0.245 C 
HETATM    3  O2  UNL     1      26.674   2.554  49.768  1.00  0.00    -0.268 OA
HETATM    4  H5  UNL     1      25.319   5.223  50.926  1.00  0.00     0.169 HD
ENDROOT
BRANCH   1   5
HETATM    5  C4  UNL     1      25.033   3.012  51.522  1.00  0.00     0.038 A 
HETATM    6  C3  UNL     1      25.814   2.477  52.526  1.00  0.00     0.068 A 
HETATM    7  C2  UNL     1      25.421   1.351  53.215  1.00  0.00     0.100 A 
HETATM    8  C15 UNL     1      24.220   0.757  52.885  1.00  0.00     0.101 A 
HETATM    9  C14 UNL     1      23.426   1.283  51.880  1.00  0.00     0.010 A 
HETATM   10  N3  UNL     1      23.767  -0.313  53.486  1.00  0.00    -0.257 NA
HETATM   11  C13 UNL     1      23.821   2.417  51.186  1.00  0.00     0.044 A 
HETATM   12  C18 UNL     1      22.280   0.734  51.550  1.00  0.00     0.001 C 
HETATM   13  C17 UNL     1      21.721  -0.054  52.407  1.00  0.00     0.006 C 
HETATM   14  C16 UNL     1      22.518  -0.861  53.083  1.00  0.00     0.130 C 
BRANCH   7  15
HETATM   15  O1  UNL     1      26.102   0.709  54.240  1.00  0.00    -0.353 OA
HETATM   16  C1  UNL     1      27.418   0.261  53.988  1.00  0.00     0.210 C 
ENDBRANCH   7  15
ENDBRANCH   1   5
BRANCH   2  17
HETATM   17  C6  UNL     1      27.167   4.664  48.957  1.00  0.00     0.072 C 
HETATM   18  C7  UNL     1      27.109   5.948  48.733  1.00  0.00     0.008 C 
BRANCH  18  19
HETATM   19  C8  UNL     1      27.807   6.889  47.834  1.00  0.00     0.300 C 
BRANCH  19  20
HETATM   20  N2  UNL     1      29.059   7.345  48.381  1.00  0.00     0.096 N 
HETATM   21  C9  UNL     1      28.945   8.668  48.946  1.00  0.00     0.299 C 
HETATM   22  C10 UNL     1      29.547   9.716  47.998  1.00  0.00     0.198 C 
HETATM   23  O3  UNL     1      30.849   9.449  47.657  1.00  0.00    -0.388 OA
HETATM   24  C11 UNL     1      31.247   8.149  47.921  1.00  0.00     0.198 C 
HETATM   25  C12 UNL     1      30.169   7.156  47.504  1.00  0.00     0.299 C 
ENDBRANCH  19  20
ENDBRANCH  18  19
ENDBRANCH   2  17
TORSDOF 5
ENDMDL
MODEL 7
REMARK VINA RESULT:      -6.9      3.749      4.814
REMARK  5 active torsions:
REMARK  status: ('A' for Active; 'I' for Inactive)
REMARK    1  A    between atoms: O1_2  and  C2_3 
REMARK    2  A    between atoms: C4_5  and  N1_6 
REMARK       I    between atoms: N1_6  and  C5_7 
REMARK    3  A    between atoms: C5_7  and  C6_9 
REMARK    4  A    between atoms: C7_10  and  C8_11 
REMARK    5  A    between atoms: C8_11  and  N2_12 
ROOT
HETATM    1  N1  UNL     1      25.479   5.358  49.259  1.00  0.00    -0.324 N 
HETATM    2  C5  UNL     1      26.775   4.849  48.992  1.00  0.00     0.245 C 
HETATM    3  O2  UNL     1      26.963   3.623  49.191  1.00  0.00    -0.268 OA
HETATM    4  H5  UNL     1      25.324   6.380  49.093  1.00  0.00     0.169 HD
ENDROOT
BRANCH   1   5
HETATM    5  C4  UNL     1      24.662   4.260  49.719  1.00  0.00     0.038 A 
HETATM    6  C3  UNL     1      24.773   3.875  51.040  1.00  0.00     0.068 A 
HETATM    7  C2  UNL     1      24.022   2.838  51.548  1.00  0.00     0.100 A 
HETATM    8  C15 UNL     1      23.145   2.181  50.710  1.00  0.00     0.101 A 
HETATM    9  C14 UNL     1      23.023   2.557  49.383  1.00  0.00     0.010 A 
HETATM   10  N3  UNL     1      22.392   1.187  51.105  1.00  0.00    -0.257 NA
HETATM   11  C13 UNL     1      23.779   3.601  48.870  1.00  0.00     0.044 A 
HETATM   12  C18 UNL     1      22.195   1.945  48.568  1.00  0.00     0.001 C 
HETATM   13  C17 UNL     1      21.232   1.261  49.090  1.00  0.00     0.006 C 
HETATM   14  C16 UNL     1      21.516   0.566  50.175  1.00  0.00     0.130 C 
BRANCH   7  15
HETATM   15  O1  UNL     1      24.032   2.348  52.847  1.00  0.00    -0.353 OA
HETATM   16  C1  UNL     1      25.232   1.786  53.338  1.00  0.00     0.210 C 
ENDBRANCH   7  15
ENDBRANCH   1   5
BRANCH   2  17
HETATM   17  C6  UNL     1      27.910   5.620  48.509  1.00  0.00     0.072 C 
HETATM   18  C7  UNL     1      29.138   5.298  48.211  1.00  0.00     0.008 C 
BRANCH  18  19
HETATM   19  C8  UNL     1      30.325   6.028  47.721  1.00  0.00     0.300 C 
BRANCH  19  20
HETATM   20  N2  UNL     1      31.448   5.914  48.615  1.00  0.00     0.096 N 
HETATM   21  C9  UNL     1      31.669   7.134  49.354  1.00  0.00     0.299 C 
HETATM   22  C10 UNL     1      32.851   7.918  48.766  1.00  0.00     0.198 C 
HETATM   23  O3  UNL     1      34.006   7.180  48.698  1.00  0.00    -0.388 OA
HETATM   24  C11 UNL     1      33.814   5.815  48.823  1.00  0.00     0.198 C 
HETATM   25  C12 UNL     1      32.613   5.359  48.003  1.00  0.00     0.299 C 
ENDBRANCH  19  20
ENDBRANCH  18  19
ENDBRANCH   2  17
TORSDOF 5
ENDMDL
MODEL 8
REMARK VINA RESULT:      -6.9      3.177      4.341
REMARK  5 active torsions:
REMARK  status: ('A' for Active; 'I' for Inactive)
REMARK    1  A    between atoms: O1_2  and  C2_3 
REMARK    2  A    between atoms: C4_5  and  N1_6 
REMARK       I    between atoms: N1_6  and  C5_7 
REMARK    3  A    between atoms: C5_7  and  C6_9 
REMARK    4  A    between atoms: C7_10  and  C8_11 
REMARK    5  A    between atoms: C8_11  and  N2_12 
ROOT
HETATM    1  N1  UNL     1      25.025   4.815  51.019  1.00  0.00    -0.324 N 
HETATM    2  C5  UNL     1      25.689   4.439  49.823  1.00  0.00     0.245 C 
HETATM    3  O2  UNL     1      25.496   3.271  49.402  1.00  0.00    -0.268 OA
HETATM    4  H5  UNL     1      25.186   5.788  51.369  1.00  0.00     0.169 HD
ENDROOT
BRANCH   1   5
HETATM    5  C4  UNL     1      24.250   3.681  51.465  1.00  0.00     0.038 A 
HETATM    6  C3  UNL     1      22.911   3.636  51.133  1.00  0.00     0.068 A 
HETATM    7  C2  UNL     1      22.112   2.584  51.522  1.00  0.00     0.100 A 
HETATM    8  C15 UNL     1      22.674   1.562  52.258  1.00  0.00     0.101 A 
HETATM    9  C14 UNL     1      24.015   1.593  52.599  1.00  0.00     0.010 A 
HETATM   10  N3  UNL     1      21.993   0.523  52.670  1.00  0.00    -0.257 NA
HETATM   11  C13 UNL     1      24.821   2.653  52.207  1.00  0.00     0.044 A 
HETATM   12  C18 UNL     1      24.571   0.631  53.299  1.00  0.00     0.001 C 
HETATM   13  C17 UNL     1      23.967  -0.511  53.337  1.00  0.00     0.006 C 
HETATM   14  C16 UNL     1      22.651  -0.486  53.424  1.00  0.00     0.130 C 
BRANCH   7  15
HETATM   15  O1  UNL     1      20.760   2.410  51.260  1.00  0.00    -0.353 OA
HETATM   16  C1  UNL     1      19.853   3.364  51.776  1.00  0.00     0.210 C 
ENDBRANCH   7  15
ENDBRANCH   1   5
BRANCH   2  17
HETATM   17  C6  UNL     1      26.576   5.285  49.041  1.00  0.00     0.072 C 
HETATM   18  C7  UNL     1      27.831   5.176  48.699  1.00  0.00     0.008 C 
BRANCH  18  19
HETATM   19  C8  UNL     1      28.779   5.993  47.915  1.00  0.00     0.300 C 
BRANCH  19  20
HETATM   20  N2  UNL     1      30.109   5.972  48.466  1.00  0.00     0.096 N 
HETATM   21  C9  UNL     1      30.609   7.303  48.710  1.00  0.00     0.299 C 
HETATM   22  C10 UNL     1      31.604   7.719  47.617  1.00  0.00     0.198 C 
HETATM   23  O3  UNL     1      32.643   6.835  47.470  1.00  0.00    -0.388 OA
HETATM   24  C11 UNL     1      32.419   5.598  48.052  1.00  0.00     0.198 C 
HETATM   25  C12 UNL     1      31.005   5.110  47.763  1.00  0.00     0.299 C 
ENDBRANCH  19  20
ENDBRANCH  18  19
ENDBRANCH   2  17
TORSDOF 5
ENDMDL
MODEL 9
REMARK VINA RESULT:      -6.9      3.883      5.429
REMARK  5 active torsions:
REMARK  status: ('A' for Active; 'I' for Inactive)
REMARK    1  A    between atoms: O1_2  and  C2_3 
REMARK    2  A    between atoms: C4_5  and  N1_6 
REMARK       I    between atoms: N1_6  and  C5_7 
REMARK    3  A    between atoms: C5_7  and  C6_9 
REMARK    4  A    between atoms: C7_10  and  C8_11 
REMARK    5  A    between atoms: C8_11  and  N2_12 
ROOT
HETATM    1  N1  UNL     1      23.931   2.076  51.460  1.00  0.00    -0.324 N 
HETATM    2  C5  UNL     1      23.544   3.303  52.057  1.00  0.00     0.245 C 
HETATM    3  O2  UNL     1      24.065   3.593  53.163  1.00  0.00    -0.268 OA
HETATM    4  H5  UNL     1      23.496   1.836  50.539  1.00  0.00     0.169 HD
ENDROOT
BRANCH   1   5
HETATM    5  C4  UNL     1      24.885   1.442  52.338  1.00  0.00     0.038 A 
HETATM    6  C3  UNL     1      24.425   0.482  53.217  1.00  0.00     0.068 A 
HETATM    7  C2  UNL     1      25.279  -0.166  54.081  1.00  0.00     0.100 A 
HETATM    8  C15 UNL     1      26.620   0.159  54.056  1.00  0.00     0.101 A 
HETATM    9  C14 UNL     1      27.097   1.119  53.179  1.00  0.00     0.010 A 
HETATM   10  N3  UNL     1      27.504  -0.405  54.838  1.00  0.00    -0.257 NA
HETATM   11  C13 UNL     1      26.236   1.773  52.309  1.00  0.00     0.044 A 
HETATM   12  C18 UNL     1      28.368   1.443  53.139  1.00  0.00     0.001 C 
HETATM   13  C17 UNL     1      29.219   0.608  53.636  1.00  0.00     0.006 C 
HETATM   14  C16 UNL     1      28.866  -0.011  54.747  1.00  0.00     0.130 C 
BRANCH   7  15
HETATM   15  O1  UNL     1      24.956  -1.144  55.011  1.00  0.00    -0.353 OA
HETATM   16  C1  UNL     1      23.603  -1.271  55.402  1.00  0.00     0.210 C 
ENDBRANCH   7  15
ENDBRANCH   1   5
BRANCH   2  17
HETATM   17  C6  UNL     1      22.595   4.256  51.505  1.00  0.00     0.072 C 
HETATM   18  C7  UNL     1      22.442   4.765  50.313  1.00  0.00     0.008 C 
BRANCH  18  19
HETATM   19  C8  UNL     1      21.509   5.728  49.695  1.00  0.00     0.300 C 
BRANCH  19  20
HETATM   20  N2  UNL     1      20.971   5.250  48.448  1.00  0.00     0.096 N 
HETATM   21  C9  UNL     1      19.657   4.677  48.616  1.00  0.00     0.299 C 
HETATM   22  C10 UNL     1      19.728   3.143  48.602  1.00  0.00     0.198 C 
HETATM   23  O3  UNL     1      20.331   2.643  47.475  1.00  0.00    -0.388 OA
HETATM   24  C11 UNL     1      21.061   3.578  46.762  1.00  0.00     0.198 C 
HETATM   25  C12 UNL     1      21.887   4.451  47.699  1.00  0.00     0.299 C 
ENDBRANCH  19  20
ENDBRANCH  18  19
ENDBRANCH   2  17
TORSDOF 5
ENDMDL
