MODEL 1
REMARK VINA RESULT:      -8.0      0.000      0.000
REMARK  4 active torsions:
REMARK  status: ('A' for Active; 'I' for Inactive)
REMARK    1  A    between atoms: O1_2  and  C2_3 
REMARK    2  A    between atoms: C3_4  and  N1_5 
REMARK    3  A    between atoms: N1_5  and  C4_6 
REMARK    4  A    between atoms: C9_12  and  C10_13 
ROOT
HETATM    1  C4  UNL     1      23.872   3.278  51.808  1.00  0.00     0.743 A 
HETATM    2  N2  UNL     1      22.570   3.147  51.500  1.00  0.00    -0.071 NA
HETATM    3  C5  UNL     1      21.896   1.995  51.789  1.00  0.00     0.168 A 
HETATM    4  C6  UNL     1      22.659   1.023  52.404  1.00  0.00     0.077 A 
HETATM    5  C7  UNL     1      22.306  -0.229  52.822  1.00  0.00     0.035 A 
HETATM    6  C8  UNL     1      23.410  -0.849  53.387  1.00  0.00     0.035 A 
HETATM    7  C9  UNL     1      24.444   0.070  53.294  1.00  0.00     0.072 A 
HETATM    8  N5  UNL     1      23.980   1.183  52.705  1.00  0.00    -0.216 N 
HETATM    9  N6  UNL     1      24.572   2.314  52.402  1.00  0.00     0.027 NA
ENDROOT
BRANCH   1  10
HETATM   10  N1  UNL     1      24.529   4.498  51.488  1.00  0.00    -0.187 N 
HETATM   11  H4  UNL     1      24.324   5.387  51.990  1.00  0.00     0.184 HD
BRANCH  10  12
HETATM   12  C3  UNL     1      25.516   4.590  50.459  1.00  0.00     0.063 A 
HETATM   13  C2  UNL     1      25.679   5.740  49.819  1.00  0.00     0.091 A 
HETATM   14  C16 UNL     1      26.731   5.611  48.816  1.00  0.00     0.035 A 
HETATM   15  C15 UNL     1      27.182   4.368  48.877  1.00  0.00    -0.018 A 
HETATM   16  C14 UNL     1      26.468   3.585  49.919  1.00  0.00     0.087 A 
BRANCH  13  17
HETATM   17  O1  UNL     1      24.842   6.764  50.235  1.00  0.00    -0.354 OA
HETATM   18  C1  UNL     1      25.106   8.130  50.152  1.00  0.00     0.210 C 
ENDBRANCH  13  17
ENDBRANCH  10  12
ENDBRANCH   1  10
BRANCH   7  19
HETATM   19  C10 UNL     1      25.817  -0.119  53.755  1.00  0.00     0.029 A 
HETATM   20  C11 UNL     1      26.426   0.173  54.978  1.00  0.00     0.154 A 
HETATM   21  N3  UNL     1      27.722  -0.185  54.926  1.00  0.00    -0.185 NA
HETATM   22  N4  UNL     1      27.978  -0.691  53.733  1.00  0.00    -0.285 N 
HETATM   23  C12 UNL     1      29.290  -1.181  53.334  1.00  0.00     0.179 C 
HETATM   24  C13 UNL     1      26.840  -0.661  53.009  1.00  0.00     0.127 A 
ENDBRANCH   7  19
TORSDOF 4
ENDMDL
MODEL 2
REMARK VINA RESULT:      -7.9      2.329      5.926
REMARK  4 active torsions:
REMARK  status: ('A' for Active; 'I' for Inactive)
REMARK    1  A    between atoms: O1_2  and  C2_3 
REMARK    2  A    between atoms: C3_4  and  N1_5 
REMARK    3  A    between atoms: N1_5  and  C4_6 
REMARK    4  A    between atoms: C9_12  and  C10_13 
ROOT
HETATM    1  C4  UNL     1      25.192   0.572  53.352  1.00  0.00     0.743 A 
HETATM    2  N2  UNL     1      24.037  -0.076  53.588  1.00  0.00    -0.071 NA
HETATM    3  C5  UNL     1      22.944   0.136  52.798  1.00  0.00     0.168 A 
HETATM    4  C6  UNL     1      23.141   1.043  51.777  1.00  0.00     0.077 A 
HETATM    5  C7  UNL     1      22.271   1.480  50.818  1.00  0.00     0.035 A 
HETATM    6  C8  UNL     1      22.916   2.397  50.002  1.00  0.00     0.035 A 
HETATM    7  C9  UNL     1      24.206   2.500  50.501  1.00  0.00     0.072 A 
HETATM    8  N5  UNL     1      24.324   1.686  51.560  1.00  0.00    -0.216 N 
HETATM    9  N6  UNL     1      25.339   1.440  52.355  1.00  0.00     0.027 NA
ENDROOT
BRANCH   1  10
HETATM   10  N1  UNL     1      26.303   0.317  54.203  1.00  0.00    -0.187 N 
HETATM   11  H4  UNL     1      26.356   0.692  55.173  1.00  0.00     0.184 HD
BRANCH  10  12
HETATM   12  C3  UNL     1      27.420  -0.471  53.790  1.00  0.00     0.063 A 
HETATM   13  C2  UNL     1      28.646   0.009  53.951  1.00  0.00     0.091 A 
HETATM   14  C16 UNL     1      29.629  -0.954  53.465  1.00  0.00     0.035 A 
HETATM   15  C15 UNL     1      28.961  -2.005  53.016  1.00  0.00    -0.018 A 
HETATM   16  C14 UNL     1      27.495  -1.819  53.171  1.00  0.00     0.087 A 
BRANCH  13  17
HETATM   17  O1  UNL     1      28.710   1.270  54.524  1.00  0.00    -0.354 OA
HETATM   18  C1  UNL     1      28.893   2.474  53.847  1.00  0.00     0.210 C 
ENDBRANCH  13  17
ENDBRANCH  10  12
ENDBRANCH   1  10
BRANCH   7  19
HETATM   19  C10 UNL     1      25.273   3.347  49.976  1.00  0.00     0.029 A 
HETATM   20  C11 UNL     1      26.581   3.045  49.587  1.00  0.00     0.154 A 
HETATM   21  N3  UNL     1      27.191   4.168  49.167  1.00  0.00    -0.185 NA
HETATM   22  N4  UNL     1      26.343   5.177  49.265  1.00  0.00    -0.285 N 
HETATM   23  C12 UNL     1      26.677   6.544  48.892  1.00  0.00     0.179 C 
HETATM   24  C13 UNL     1      25.177   4.703  49.752  1.00  0.00     0.127 A 
ENDBRANCH   7  19
TORSDOF 4
ENDMDL
MODEL 3
REMARK VINA RESULT:      -7.9      3.200      6.118
REMARK  4 active torsions:
REMARK  status: ('A' for Active; 'I' for Inactive)
REMARK    1  A    between atoms: O1_2  and  C2_3 
REMARK    2  A    between atoms: C3_4  and  N1_5 
REMARK    3  A    between atoms: N1_5  and  C4_6 
REMARK    4  A    between atoms: C9_12  and  C10_13 
ROOT
HETATM    1  C4  UNL     1      25.167  -0.790  54.101  1.00  0.00     0.743 A 
HETATM    2  N2  UNL     1      24.774  -1.302  55.281  1.00  0.00    -0.071 NA
HETATM    3  C5  UNL     1      23.453  -1.322  55.627  1.00  0.00     0.168 A 
HETATM    4  C6  UNL     1      22.603  -0.786  54.680  1.00  0.00     0.077 A 
HETATM    5  C7  UNL     1      21.244  -0.651  54.705  1.00  0.00     0.035 A 
HETATM    6  C8  UNL     1      20.825  -0.052  53.527  1.00  0.00     0.035 A 
HETATM    7  C9  UNL     1      21.977   0.170  52.789  1.00  0.00     0.072 A 
HETATM    8  N5  UNL     1      23.031  -0.274  53.491  1.00  0.00    -0.216 N 
HETATM    9  N6  UNL     1      24.314  -0.283  53.216  1.00  0.00     0.027 NA
ENDROOT
BRANCH   1  10
HETATM   10  N1  UNL     1      26.554  -0.793  53.786  1.00  0.00    -0.187 N 
HETATM   11  H4  UNL     1      27.062  -1.663  53.523  1.00  0.00     0.184 HD
BRANCH  10  12
HETATM   12  C3  UNL     1      27.348   0.395  53.807  1.00  0.00     0.063 A 
HETATM   13  C2  UNL     1      28.640   0.306  54.091  1.00  0.00     0.091 A 
HETATM   14  C16 UNL     1      29.253   1.630  54.057  1.00  0.00     0.035 A 
HETATM   15  C15 UNL     1      28.301   2.496  53.750  1.00  0.00    -0.018 A 
HETATM   16  C14 UNL     1      26.994   1.816  53.558  1.00  0.00     0.087 A 
BRANCH  13  17
HETATM   17  O1  UNL     1      29.095  -0.978  54.346  1.00  0.00    -0.354 OA
HETATM   18  C1  UNL     1      29.877  -1.760  53.498  1.00  0.00     0.210 C 
ENDBRANCH  13  17
ENDBRANCH  10  12
ENDBRANCH   1  10
BRANCH   7  19
HETATM   19  C10 UNL     1      22.055   0.783  51.466  1.00  0.00     0.029 A 
HETATM   20  C11 UNL     1      21.332   0.540  50.294  1.00  0.00     0.154 A 
HETATM   21  N3  UNL     1      21.768   1.364  49.324  1.00  0.00    -0.185 NA
HETATM   22  N4  UNL     1      22.734   2.123  49.810  1.00  0.00    -0.285 N 
HETATM   23  C12 UNL     1      23.433   3.132  49.026  1.00  0.00     0.179 C 
HETATM   24  C13 UNL     1      22.924   1.788  51.103  1.00  0.00     0.127 A 
ENDBRANCH   7  19
TORSDOF 4
ENDMDL
MODEL 4
REMARK VINA RESULT:      -7.9      3.795      6.219
REMARK  4 active torsions:
REMARK  status: ('A' for Active; 'I' for Inactive)
REMARK    1  A    between atoms: O1_2  and  C2_3 
REMARK    2  A    between atoms: C3_4  and  N1_5 
REMARK    3  A    between atoms: N1_5  and  C4_6 
REMARK    4  A    between atoms: C9_12  and  C10_13 
ROOT
HETATM    1  C4  UNL     1      25.101  -0.116  53.958  1.00  0.00     0.743 A 
HETATM    2  N2  UNL     1      25.037  -0.971  54.994  1.00  0.00    -0.071 NA
HETATM    3  C5  UNL     1      23.840  -1.488  55.400  1.00  0.00     0.168 A 
HETATM    4  C6  UNL     1      22.752  -1.060  54.666  1.00  0.00     0.077 A 
HETATM    5  C7  UNL     1      21.430  -1.376  54.801  1.00  0.00     0.035 A 
HETATM    6  C8  UNL     1      20.700  -0.703  53.834  1.00  0.00     0.035 A 
HETATM    7  C9  UNL     1      21.625   0.033  53.110  1.00  0.00     0.072 A 
HETATM    8  N5  UNL     1      22.846  -0.192  53.618  1.00  0.00    -0.216 N 
HETATM    9  N6  UNL     1      24.026   0.271  53.276  1.00  0.00     0.027 NA
ENDROOT
BRANCH   1  10
HETATM   10  N1  UNL     1      26.372   0.394  53.573  1.00  0.00    -0.187 N 
HETATM   11  H4  UNL     1      26.518   1.397  53.336  1.00  0.00     0.184 HD
BRANCH  10  12
HETATM   12  C3  UNL     1      27.535  -0.430  53.485  1.00  0.00     0.063 A 
HETATM   13  C2  UNL     1      28.693   0.033  53.936  1.00  0.00     0.091 A 
HETATM   14  C16 UNL     1      29.739  -0.967  53.749  1.00  0.00     0.035 A 
HETATM   15  C15 UNL     1      29.178  -2.022  53.181  1.00  0.00    -0.018 A 
HETATM   16  C14 UNL     1      27.726  -1.804  52.951  1.00  0.00     0.087 A 
BRANCH  13  17
HETATM   17  O1  UNL     1      28.645   1.314  54.462  1.00  0.00    -0.354 OA
HETATM   18  C1  UNL     1      28.913   2.497  53.777  1.00  0.00     0.210 C 
ENDBRANCH  13  17
ENDBRANCH  10  12
ENDBRANCH   1  10
BRANCH   7  19
HETATM   19  C10 UNL     1      21.342   0.910  51.978  1.00  0.00     0.029 A 
HETATM   20  C11 UNL     1      20.882   2.229  51.927  1.00  0.00     0.154 A 
HETATM   21  N3  UNL     1      20.773   2.613  50.642  1.00  0.00    -0.185 NA
HETATM   22  N4  UNL     1      21.139   1.609  49.864  1.00  0.00    -0.285 N 
HETATM   23  C12 UNL     1      21.142   1.682  48.409  1.00  0.00     0.179 C 
HETATM   24  C13 UNL     1      21.486   0.570  50.651  1.00  0.00     0.127 A 
ENDBRANCH   7  19
TORSDOF 4
ENDMDL
MODEL 5
REMARK VINA RESULT:      -7.7      2.735      6.214
REMARK  4 active torsions:
REMARK  status: ('A' for Active; 'I' for Inactive)
REMARK    1  A    between atoms: O1_2  and  C2_3 
REMARK    2  A    between atoms: C3_4  and  N1_5 
REMARK    3  A    between atoms: N1_5  and  C4_6 
REMARK    4  A    between atoms: C9_12  and  C10_13 
ROOT
HETATM    1  C4  UNL     1      25.208   2.406  52.847  1.00  0.00     0.743 A 
HETATM    2  N2  UNL     1      24.109   1.635  52.928  1.00  0.00    -0.071 NA
HETATM    3  C5  UNL     1      23.211   1.588  51.900  1.00  0.00     0.168 A 
HETATM    4  C6  UNL     1      23.537   2.380  50.818  1.00  0.00     0.077 A 
HETATM    5  C7  UNL     1      22.869   2.565  49.641  1.00  0.00     0.035 A 
HETATM    6  C8  UNL     1      23.579   3.456  48.850  1.00  0.00     0.035 A 
HETATM    7  C9  UNL     1      24.699   3.804  49.590  1.00  0.00     0.072 A 
HETATM    8  N5  UNL     1      24.659   3.153  50.762  1.00  0.00    -0.216 N 
HETATM    9  N6  UNL     1      25.484   3.155  51.783  1.00  0.00     0.027 NA
ENDROOT
BRANCH   1  10
HETATM   10  N1  UNL     1      26.113   2.420  53.944  1.00  0.00    -0.187 N 
HETATM   11  H4  UNL     1      25.946   2.999  54.793  1.00  0.00     0.184 HD
BRANCH  10  12
HETATM   12  C3  UNL     1      27.311   1.643  53.960  1.00  0.00     0.063 A 
HETATM   13  C2  UNL     1      27.337   0.507  54.643  1.00  0.00     0.091 A 
HETATM   14  C16 UNL     1      28.650  -0.120  54.523  1.00  0.00     0.035 A 
HETATM   15  C15 UNL     1      29.392   0.666  53.760  1.00  0.00    -0.018 A 
HETATM   16  C14 UNL     1      28.633   1.864  53.319  1.00  0.00     0.087 A 
BRANCH  13  17
HETATM   17  O1  UNL     1      26.155   0.187  55.292  1.00  0.00    -0.354 OA
HETATM   18  C1  UNL     1      25.316  -0.886  54.997  1.00  0.00     0.210 C 
ENDBRANCH  13  17
ENDBRANCH  10  12
ENDBRANCH   1  10
BRANCH   7  19
HETATM   19  C10 UNL     1      25.757   4.722  49.181  1.00  0.00     0.029 A 
HETATM   20  C11 UNL     1      25.735   6.094  48.914  1.00  0.00     0.154 A 
HETATM   21  N3  UNL     1      26.970   6.500  48.569  1.00  0.00    -0.185 NA
HETATM   22  N4  UNL     1      27.786   5.461  48.599  1.00  0.00    -0.285 N 
HETATM   23  C12 UNL     1      29.204   5.545  48.278  1.00  0.00     0.179 C 
HETATM   24  C13 UNL     1      27.073   4.376  48.967  1.00  0.00     0.127 A 
ENDBRANCH   7  19
TORSDOF 4
ENDMDL
MODEL 6
REMARK VINA RESULT:      -7.5      1.116      1.876
REMARK  4 active torsions:
REMARK  status: ('A' for Active; 'I' for Inactive)
REMARK    1  A    between atoms: O1_2  and  C2_3 
REMARK    2  A    between atoms: C3_4  and  N1_5 
REMARK    3  A    between atoms: N1_5  and  C4_6 
REMARK    4  A    between atoms: C9_12  and  C10_13 
ROOT
HETATM    1  C4  UNL     1      23.644   3.439  52.359  1.00  0.00     0.743 A 
HETATM    2  N2  UNL     1      22.329   3.309  52.110  1.00  0.00    -0.071 NA
HETATM    3  C5  UNL     1      21.692   2.120  52.326  1.00  0.00     0.168 A 
HETATM    4  C6  UNL     1      22.505   1.113  52.806  1.00  0.00     0.077 A 
HETATM    5  C7  UNL     1      22.196  -0.179  53.125  1.00  0.00     0.035 A 
HETATM    6  C8  UNL     1      23.340  -0.824  53.570  1.00  0.00     0.035 A 
HETATM    7  C9  UNL     1      24.352   0.122  53.508  1.00  0.00     0.072 A 
HETATM    8  N5  UNL     1      23.837   1.274  53.051  1.00  0.00    -0.216 N 
HETATM    9  N6  UNL     1      24.391   2.441  52.823  1.00  0.00     0.027 NA
ENDROOT
BRANCH   1  10
HETATM   10  N1  UNL     1      24.261   4.698  52.119  1.00  0.00    -0.187 N 
HETATM   11  H4  UNL     1      24.834   5.182  52.841  1.00  0.00     0.184 HD
BRANCH  10  12
HETATM   12  C3  UNL     1      24.141   5.386  50.873  1.00  0.00     0.063 A 
HETATM   13  C2  UNL     1      25.065   5.203  49.940  1.00  0.00     0.091 A 
HETATM   14  C16 UNL     1      24.747   5.996  48.757  1.00  0.00     0.035 A 
HETATM   15  C15 UNL     1      23.622   6.647  49.011  1.00  0.00    -0.018 A 
HETATM   16  C14 UNL     1      23.113   6.336  50.371  1.00  0.00     0.087 A 
BRANCH  13  17
HETATM   17  O1  UNL     1      26.085   4.332  50.290  1.00  0.00    -0.354 OA
HETATM   18  C1  UNL     1      26.473   3.192  49.590  1.00  0.00     0.210 C 
ENDBRANCH  13  17
ENDBRANCH  10  12
ENDBRANCH   1  10
BRANCH   7  19
HETATM   19  C10 UNL     1      25.750  -0.078  53.876  1.00  0.00     0.029 A 
HETATM   20  C11 UNL     1      26.453   0.249  55.039  1.00  0.00     0.154 A 
HETATM   21  N3  UNL     1      27.735  -0.138  54.908  1.00  0.00    -0.185 NA
HETATM   22  N4  UNL     1      27.893  -0.696  53.721  1.00  0.00    -0.285 N 
HETATM   23  C12 UNL     1      29.164  -1.228  53.248  1.00  0.00     0.179 C 
HETATM   24  C13 UNL     1      26.706  -0.670  53.080  1.00  0.00     0.127 A 
ENDBRANCH   7  19
TORSDOF 4
ENDMDL
MODEL 7
REMARK VINA RESULT:      -7.2      2.465      3.335
REMARK  4 active torsions:
REMARK  status: ('A' for Active; 'I' for Inactive)
REMARK    1  A    between atoms: O1_2  and  C2_3 
REMARK    2  A    between atoms: C3_4  and  N1_5 
REMARK    3  A    between atoms: N1_5  and  C4_6 
REMARK    4  A    between atoms: C9_12  and  C10_13 
ROOT
HETATM    1  C4  UNL     1      26.500   3.882  49.547  1.00  0.00     0.743 A 
HETATM    2  N2  UNL     1      25.206   4.105  49.258  1.00  0.00    -0.071 NA
HETATM    3  C5  UNL     1      24.216   3.554  50.020  1.00  0.00     0.168 A 
HETATM    4  C6  UNL     1      24.664   2.780  51.072  1.00  0.00     0.077 A 
HETATM    5  C7  UNL     1      23.953   2.095  52.015  1.00  0.00     0.035 A 
HETATM    6  C8  UNL     1      24.835   1.458  52.875  1.00  0.00     0.035 A 
HETATM    7  C9  UNL     1      26.103   1.781  52.419  1.00  0.00     0.072 A 
HETATM    8  N5  UNL     1      25.985   2.572  51.342  1.00  0.00    -0.216 N 
HETATM    9  N6  UNL     1      26.890   3.128  50.571  1.00  0.00     0.027 NA
ENDROOT
BRANCH   1  10
HETATM   10  N1  UNL     1      27.495   4.478  48.723  1.00  0.00    -0.187 N 
HETATM   11  H4  UNL     1      28.285   3.931  48.323  1.00  0.00     0.184 HD
BRANCH  10  12
HETATM   12  C3  UNL     1      27.480   5.866  48.385  1.00  0.00     0.063 A 
HETATM   13  C2  UNL     1      28.601   6.446  47.979  1.00  0.00     0.091 A 
HETATM   14  C16 UNL     1      28.359   7.856  47.689  1.00  0.00     0.035 A 
HETATM   15  C15 UNL     1      27.080   8.093  47.932  1.00  0.00    -0.018 A 
HETATM   16  C14 UNL     1      26.382   6.867  48.397  1.00  0.00     0.087 A 
BRANCH  13  17
HETATM   17  O1  UNL     1      29.705   5.610  47.926  1.00  0.00    -0.354 OA
HETATM   18  C1  UNL     1      30.903   5.782  48.616  1.00  0.00     0.210 C 
ENDBRANCH  13  17
ENDBRANCH  10  12
ENDBRANCH   1  10
BRANCH   7  19
HETATM   19  C10 UNL     1      27.370   1.346  52.999  1.00  0.00     0.029 A 
HETATM   20  C11 UNL     1      28.369   2.058  53.668  1.00  0.00     0.154 A 
HETATM   21  N3  UNL     1      29.358   1.215  54.019  1.00  0.00    -0.185 NA
HETATM   22  N4  UNL     1      29.046  -0.002  53.609  1.00  0.00    -0.285 N 
HETATM   23  C12 UNL     1      29.899  -1.163  53.824  1.00  0.00     0.179 C 
HETATM   24  C13 UNL     1      27.849   0.054  52.990  1.00  0.00     0.127 A 
ENDBRANCH   7  19
TORSDOF 4
ENDMDL
MODEL 8
REMARK VINA RESULT:      -7.2      2.726      5.777
REMARK  4 active torsions:
REMARK  status: ('A' for Active; 'I' for Inactive)
REMARK    1  A    between atoms: O1_2  and  C2_3 
REMARK    2  A    between atoms: C3_4  and  N1_5 
REMARK    3  A    between atoms: N1_5  and  C4_6 
REMARK    4  A    between atoms: C9_12  and  C10_13 
ROOT
HETATM    1  C4  UNL     1      25.330   2.627  52.316  1.00  0.00     0.743 A 
HETATM    2  N2  UNL     1      25.893   3.283  51.286  1.00  0.00    -0.071 NA
HETATM    3  C5  UNL     1      25.265   3.354  50.076  1.00  0.00     0.168 A 
HETATM    4  C6  UNL     1      24.045   2.712  50.024  1.00  0.00     0.077 A 
HETATM    5  C7  UNL     1      23.167   2.590  48.984  1.00  0.00     0.035 A 
HETATM    6  C8  UNL     1      22.068   1.853  49.401  1.00  0.00     0.035 A 
HETATM    7  C9  UNL     1      22.312   1.533  50.727  1.00  0.00     0.072 A 
HETATM    8  N5  UNL     1      23.496   2.053  51.085  1.00  0.00    -0.216 N 
HETATM    9  N6  UNL     1      24.150   2.019  52.223  1.00  0.00     0.027 NA
ENDROOT
BRANCH   1  10
HETATM   10  N1  UNL     1      26.023   2.581  53.557  1.00  0.00    -0.187 N 
HETATM   11  H4  UNL     1      25.688   3.094  54.398  1.00  0.00     0.184 HD
BRANCH  10  12
HETATM   12  C3  UNL     1      27.224   1.829  53.737  1.00  0.00     0.063 A 
HETATM   13  C2  UNL     1      27.171   0.664  54.367  1.00  0.00     0.091 A 
HETATM   14  C16 UNL     1      28.502   0.071  54.438  1.00  0.00     0.035 A 
HETATM   15  C15 UNL     1      29.337   0.906  53.841  1.00  0.00    -0.018 A 
HETATM   16  C14 UNL     1      28.627   2.108  53.331  1.00  0.00     0.087 A 
BRANCH  13  17
HETATM   17  O1  UNL     1      25.908   0.290  54.798  1.00  0.00    -0.354 OA
HETATM   18  C1  UNL     1      25.152  -0.775  54.313  1.00  0.00     0.210 C 
ENDBRANCH  13  17
ENDBRANCH  10  12
ENDBRANCH   1  10
BRANCH   7  19
HETATM   19  C10 UNL     1      21.440   0.761  51.608  1.00  0.00     0.029 A 
HETATM   20  C11 UNL     1      20.048   0.723  51.723  1.00  0.00     0.154 A 
HETATM   21  N3  UNL     1      19.705  -0.151  52.687  1.00  0.00    -0.185 NA
HETATM   22  N4  UNL     1      20.805  -0.676  53.198  1.00  0.00    -0.285 N 
HETATM   23  C12 UNL     1      20.799  -1.664  54.268  1.00  0.00     0.179 C 
HETATM   24  C13 UNL     1      21.865  -0.138  52.560  1.00  0.00     0.127 A 
ENDBRANCH   7  19
TORSDOF 4
ENDMDL
MODEL 9
REMARK VINA RESULT:      -7.2      2.332      2.593
REMARK  4 active torsions:
REMARK  status: ('A' for Active; 'I' for Inactive)
REMARK    1  A    between atoms: O1_2  and  C2_3 
REMARK    2  A    between atoms: C3_4  and  N1_5 
REMARK    3  A    between atoms: N1_5  and  C4_6 
REMARK    4  A    between atoms: C9_12  and  C10_13 
ROOT
HETATM    1  C4  UNL     1      23.110   2.119  50.910  1.00  0.00     0.743 A 
HETATM    2  N2  UNL     1      21.775   2.103  51.065  1.00  0.00    -0.071 NA
HETATM    3  C5  UNL     1      21.191   1.315  52.015  1.00  0.00     0.168 A 
HETATM    4  C6  UNL     1      22.078   0.571  52.767  1.00  0.00     0.077 A 
HETATM    5  C7  UNL     1      21.835  -0.307  53.785  1.00  0.00     0.035 A 
HETATM    6  C8  UNL     1      23.041  -0.819  54.241  1.00  0.00     0.035 A 
HETATM    7  C9  UNL     1      24.020  -0.221  53.464  1.00  0.00     0.072 A 
HETATM    8  N5  UNL     1      23.430   0.607  52.589  1.00  0.00    -0.216 N 
HETATM    9  N6  UNL     1      23.930   1.385  51.657  1.00  0.00     0.027 NA
ENDROOT
BRANCH   1  10
HETATM   10  N1  UNL     1      23.670   2.957  49.906  1.00  0.00    -0.187 N 
HETATM   11  H4  UNL     1      24.596   3.418  50.022  1.00  0.00     0.184 HD
BRANCH  10  12
HETATM   12  C3  UNL     1      23.005   3.223  48.671  1.00  0.00     0.063 A 
HETATM   13  C2  UNL     1      22.751   4.478  48.328  1.00  0.00     0.091 A 
HETATM   14  C16 UNL     1      22.071   4.519  47.038  1.00  0.00     0.035 A 
HETATM   15  C15 UNL     1      21.930   3.268  46.629  1.00  0.00    -0.018 A 
HETATM   16  C14 UNL     1      22.502   2.310  47.610  1.00  0.00     0.087 A 
BRANCH  13  17
HETATM   17  O1  UNL     1      23.174   5.430  49.243  1.00  0.00    -0.354 OA
HETATM   18  C1  UNL     1      22.974   6.806  49.154  1.00  0.00     0.210 C 
ENDBRANCH  13  17
ENDBRANCH  10  12
ENDBRANCH   1  10
BRANCH   7  19
HETATM   19  C10 UNL     1      25.460  -0.439  53.564  1.00  0.00     0.029 A 
HETATM   20  C11 UNL     1      26.300  -1.356  52.926  1.00  0.00     0.154 A 
HETATM   21  N3  UNL     1      27.564  -1.170  53.347  1.00  0.00    -0.185 NA
HETATM   22  N4  UNL     1      27.581  -0.181  54.223  1.00  0.00    -0.285 N 
HETATM   23  C12 UNL     1      28.793   0.286  54.882  1.00  0.00     0.179 C 
HETATM   24  C13 UNL     1      26.320   0.276  54.369  1.00  0.00     0.127 A 
ENDBRANCH   7  19
TORSDOF 4
ENDMDL
