MODEL 1
REMARK VINA RESULT:      -8.0      0.000      0.000
REMARK  7 active torsions:
REMARK  status: ('A' for Active; 'I' for Inactive)
REMARK    1  A    between atoms: O1_2  and  C2_3 
REMARK    2  A    between atoms: C2_3  and  C3_4 
REMARK    3  A    between atoms: C3_4  and  O2_5 
REMARK    4  A    between atoms: O2_5  and  C4_6 
REMARK    5  A    between atoms: C8_12  and  N3_13 
REMARK    6  A    between atoms: N3_13  and  C9_14 
REMARK    7  A    between atoms: C13_18  and  O3_19 
ROOT
HETATM    1  C4  UNL     1      25.677  -0.472  53.004  1.00  0.00     0.071 C 
HETATM    2  C5  UNL     1      25.209   0.500  52.252  1.00  0.00     0.059 C 
HETATM    3  C6  UNL     1      24.632   1.623  51.474  1.00  0.00     0.076 A 
HETATM    4  N1  UNL     1      23.407   1.442  50.994  1.00  0.00    -0.065 NA
HETATM    5  C7  UNL     1      22.768   2.449  50.300  1.00  0.00     0.371 A 
HETATM    6  N2  UNL     1      23.823   2.865  50.605  1.00  0.00     0.090 N 
HETATM    7  C8  UNL     1      24.644   3.860  50.572  1.00  0.00     0.335 A 
HETATM    8  C16 UNL     1      25.304   2.934  51.245  1.00  0.00     0.305 A 
HETATM    9  C17 UNL     1      26.296   2.438  51.871  1.00  0.00    -0.103 C 
HETATM   10  P1  UNL     1      27.212   1.953  52.457  1.00  0.00    -0.055 P 
HETATM   11  C18 UNL     1      29.077   0.907  53.677  1.00  0.00     0.070 C 
HETATM   12  C19 UNL     1      28.148  -0.184  53.453  1.00  0.00     0.173 C 
HETATM   13  O4  UNL     1      27.818  -1.426  53.690  1.00  0.00    -0.384 OA
HETATM   14  C20 UNL     1      26.668  -1.571  52.759  1.00  0.00     0.232 C 
HETATM   15  H18 UNL     1      27.579   1.769  52.690  1.00  0.00     0.070 HD
ENDROOT
BRANCH   7  16
HETATM   16  N3  UNL     1      25.709   4.822  50.658  1.00  0.00    -0.348 N 
HETATM   17  H10 UNL     1      26.503   5.044  51.285  1.00  0.00     0.162 HD
BRANCH  16  18
HETATM   18  C9  UNL     1      25.691   5.776  49.578  1.00  0.00     0.032 A 
HETATM   19  C10 UNL     1      24.422   6.234  49.209  1.00  0.00     0.029 A 
HETATM   20  C11 UNL     1      24.483   7.137  48.140  1.00  0.00     0.005 A 
HETATM   21  C12 UNL     1      25.555   7.596  47.457  1.00  0.00     0.037 A 
HETATM   22  C13 UNL     1      26.759   7.114  47.859  1.00  0.00     0.070 A 
HETATM   23  C15 UNL     1      26.857   6.202  48.920  1.00  0.00     0.065 A 
BRANCH  22  24
HETATM   24  O3  UNL     1      27.984   7.431  47.316  1.00  0.00    -0.356 OA
HETATM   25  C14 UNL     1      29.140   6.739  47.659  1.00  0.00     0.210 C 
ENDBRANCH  22  24
ENDBRANCH  16  18
ENDBRANCH   7  16
BRANCH   1  26
HETATM   26  O2  UNL     1      24.951  -0.150  54.116  1.00  0.00    -0.351 OA
BRANCH  26  27
HETATM   27  C3  UNL     1      23.599  -0.607  54.190  1.00  0.00     0.201 C 
BRANCH  27  28
HETATM   28  C2  UNL     1      23.339  -1.367  55.452  1.00  0.00     0.193 C 
BRANCH  28  29
HETATM   29  O1  UNL     1      22.135  -2.030  55.359  1.00  0.00    -0.394 OA
HETATM   30  C1  UNL     1      21.273  -1.493  54.439  1.00  0.00     0.201 C 
ENDBRANCH  28  29
ENDBRANCH  27  28
ENDBRANCH  26  27
ENDBRANCH   1  26
TORSDOF 7
ENDMDL
MODEL 2
REMARK VINA RESULT:      -7.7      3.463      6.801
REMARK  7 active torsions:
REMARK  status: ('A' for Active; 'I' for Inactive)
REMARK    1  A    between atoms: O1_2  and  C2_3 
REMARK    2  A    between atoms: C2_3  and  C3_4 
REMARK    3  A    between atoms: C3_4  and  O2_5 
REMARK    4  A    between atoms: O2_5  and  C4_6 
REMARK    5  A    between atoms: C8_12  and  N3_13 
REMARK    6  A    between atoms: N3_13  and  C9_14 
REMARK    7  A    between atoms: C13_18  and  O3_19 
ROOT
HETATM    1  C4  UNL     1      25.947   0.855  52.822  1.00  0.00     0.071 C 
HETATM    2  C5  UNL     1      24.718   0.466  53.079  1.00  0.00     0.059 C 
HETATM    3  C6  UNL     1      23.343   0.057  53.453  1.00  0.00     0.076 A 
HETATM    4  N1  UNL     1      23.227  -1.084  54.126  1.00  0.00    -0.065 NA
HETATM    5  C7  UNL     1      21.993  -1.521  54.561  1.00  0.00     0.371 A 
HETATM    6  N2  UNL     1      21.813  -0.505  54.000  1.00  0.00     0.090 N 
HETATM    7  C8  UNL     1      20.958   0.381  53.615  1.00  0.00     0.335 A 
HETATM    8  C16 UNL     1      22.112   0.851  53.176  1.00  0.00     0.305 A 
HETATM    9  C17 UNL     1      22.880   1.668  52.571  1.00  0.00    -0.103 C 
HETATM   10  P1  UNL     1      23.615   2.416  52.009  1.00  0.00    -0.055 P 
HETATM   11  C18 UNL     1      25.178   3.934  50.861  1.00  0.00     0.070 C 
HETATM   12  C19 UNL     1      25.983   2.768  51.169  1.00  0.00     0.173 C 
HETATM   13  O4  UNL     1      27.167   2.212  51.199  1.00  0.00    -0.384 OA
HETATM   14  C20 UNL     1      26.793   0.826  51.583  1.00  0.00     0.232 C 
HETATM   15  H18 UNL     1      23.901   2.719  51.786  1.00  0.00     0.070 HD
ENDROOT
BRANCH   7  16
HETATM   16  N3  UNL     1      20.197   1.482  53.088  1.00  0.00    -0.348 N 
HETATM   17  H10 UNL     1      20.121   2.505  53.223  1.00  0.00     0.162 HD
BRANCH  16  18
HETATM   18  C9  UNL     1      19.246   1.076  52.084  1.00  0.00     0.032 A 
HETATM   19  C10 UNL     1      18.604  -0.143  52.330  1.00  0.00     0.029 A 
HETATM   20  C11 UNL     1      17.715  -0.481  51.302  1.00  0.00     0.005 A 
HETATM   21  C12 UNL     1      17.416   0.184  50.164  1.00  0.00     0.037 A 
HETATM   22  C13 UNL     1      18.073   1.359  49.980  1.00  0.00     0.070 A 
HETATM   23  C15 UNL     1      18.993   1.830  50.926  1.00  0.00     0.065 A 
BRANCH  22  24
HETATM   24  O3  UNL     1      17.938   2.205  48.902  1.00  0.00    -0.356 OA
HETATM   25  C14 UNL     1      18.955   3.070  48.516  1.00  0.00     0.210 C 
ENDBRANCH  22  24
ENDBRANCH  16  18
ENDBRANCH   7  16
BRANCH   1  26
HETATM   26  O2  UNL     1      26.217   1.309  54.082  1.00  0.00    -0.351 OA
BRANCH  26  27
HETATM   27  C3  UNL     1      26.727   0.377  55.037  1.00  0.00     0.201 C 
BRANCH  27  28
HETATM   28  C2  UNL     1      28.212   0.233  54.931  1.00  0.00     0.193 C 
BRANCH  28  29
HETATM   29  O1  UNL     1      28.524  -0.897  54.208  1.00  0.00    -0.394 OA
HETATM   30  C1  UNL     1      29.793  -0.894  53.689  1.00  0.00     0.201 C 
ENDBRANCH  28  29
ENDBRANCH  27  28
ENDBRANCH  26  27
ENDBRANCH   1  26
TORSDOF 7
ENDMDL
MODEL 3
REMARK VINA RESULT:      -7.6      3.428      7.396
REMARK  7 active torsions:
REMARK  status: ('A' for Active; 'I' for Inactive)
REMARK    1  A    between atoms: O1_2  and  C2_3 
REMARK    2  A    between atoms: C2_3  and  C3_4 
REMARK    3  A    between atoms: C3_4  and  O2_5 
REMARK    4  A    between atoms: O2_5  and  C4_6 
REMARK    5  A    between atoms: C8_12  and  N3_13 
REMARK    6  A    between atoms: N3_13  and  C9_14 
REMARK    7  A    between atoms: C13_18  and  O3_19 
ROOT
HETATM    1  C4  UNL     1      25.894   0.762  52.837  1.00  0.00     0.071 C 
HETATM    2  C5  UNL     1      24.655   0.397  53.081  1.00  0.00     0.059 C 
HETATM    3  C6  UNL     1      23.267   0.017  53.440  1.00  0.00     0.076 A 
HETATM    4  N1  UNL     1      23.123  -1.106  54.134  1.00  0.00    -0.065 NA
HETATM    5  C7  UNL     1      21.874  -1.516  54.557  1.00  0.00     0.371 A 
HETATM    6  N2  UNL     1      21.720  -0.509  53.971  1.00  0.00     0.090 N 
HETATM    7  C8  UNL     1      20.886   0.381  53.552  1.00  0.00     0.335 A 
HETATM    8  C16 UNL     1      22.054   0.823  53.123  1.00  0.00     0.305 A 
HETATM    9  C17 UNL     1      22.845   1.615  52.515  1.00  0.00    -0.103 C 
HETATM   10  P1  UNL     1      23.601   2.340  51.949  1.00  0.00    -0.055 P 
HETATM   11  C18 UNL     1      25.207   3.808  50.797  1.00  0.00     0.070 C 
HETATM   12  C19 UNL     1      25.989   2.637  51.144  1.00  0.00     0.173 C 
HETATM   13  O4  UNL     1      27.162   2.065  51.207  1.00  0.00    -0.384 OA
HETATM   14  C20 UNL     1      26.761   0.693  51.613  1.00  0.00     0.232 C 
HETATM   15  H18 UNL     1      23.895   2.633  51.725  1.00  0.00     0.070 HD
ENDROOT
BRANCH   7  16
HETATM   16  N3  UNL     1      20.151   1.481  52.988  1.00  0.00    -0.348 N 
HETATM   17  H10 UNL     1      20.078   2.506  53.110  1.00  0.00     0.162 HD
BRANCH  16  18
HETATM   18  C9  UNL     1      19.231   1.071  51.957  1.00  0.00     0.032 A 
HETATM   19  C10 UNL     1      19.392   1.715  50.726  1.00  0.00     0.029 A 
HETATM   20  C11 UNL     1      18.450   1.283  49.784  1.00  0.00     0.005 A 
HETATM   21  C12 UNL     1      17.458   0.373  49.908  1.00  0.00     0.037 A 
HETATM   22  C13 UNL     1      17.351  -0.216  51.127  1.00  0.00     0.070 A 
HETATM   23  C15 UNL     1      18.226   0.113  52.171  1.00  0.00     0.065 A 
BRANCH  22  24
HETATM   24  O3  UNL     1      16.422  -1.165  51.491  1.00  0.00    -0.356 OA
HETATM   25  C14 UNL     1      15.537  -0.960  52.544  1.00  0.00     0.210 C 
ENDBRANCH  22  24
ENDBRANCH  16  18
ENDBRANCH   7  16
BRANCH   1  26
HETATM   26  O2  UNL     1      26.149   1.240  54.091  1.00  0.00    -0.351 OA
BRANCH  26  27
HETATM   27  C3  UNL     1      26.708   0.341  55.051  1.00  0.00     0.201 C 
BRANCH  27  28
HETATM   28  C2  UNL     1      28.194   0.239  54.915  1.00  0.00     0.193 C 
BRANCH  28  29
HETATM   29  O1  UNL     1      28.526  -0.922  54.251  1.00  0.00    -0.394 OA
HETATM   30  C1  UNL     1      29.723  -0.859  53.585  1.00  0.00     0.201 C 
ENDBRANCH  28  29
ENDBRANCH  27  28
ENDBRANCH  26  27
ENDBRANCH   1  26
TORSDOF 7
ENDMDL
MODEL 4
REMARK VINA RESULT:      -7.4      4.032      7.513
REMARK  7 active torsions:
REMARK  status: ('A' for Active; 'I' for Inactive)
REMARK    1  A    between atoms: O1_2  and  C2_3 
REMARK    2  A    between atoms: C2_3  and  C3_4 
REMARK    3  A    between atoms: C3_4  and  O2_5 
REMARK    4  A    between atoms: O2_5  and  C4_6 
REMARK    5  A    between atoms: C8_12  and  N3_13 
REMARK    6  A    between atoms: N3_13  and  C9_14 
REMARK    7  A    between atoms: C13_18  and  O3_19 
ROOT
HETATM    1  C4  UNL     1      19.340   1.865  51.185  1.00  0.00     0.071 C 
HETATM    2  C5  UNL     1      20.635   2.010  51.355  1.00  0.00     0.059 C 
HETATM    3  C6  UNL     1      22.079   2.243  51.602  1.00  0.00     0.076 A 
HETATM    4  N1  UNL     1      22.640   3.240  50.926  1.00  0.00    -0.065 NA
HETATM    5  C7  UNL     1      23.967   3.565  51.127  1.00  0.00     0.371 A 
HETATM    6  N2  UNL     1      23.730   2.659  51.836  1.00  0.00     0.090 N 
HETATM    7  C8  UNL     1      24.175   1.836  52.724  1.00  0.00     0.335 A 
HETATM    8  C16 UNL     1      22.911   1.481  52.576  1.00  0.00     0.305 A 
HETATM    9  C17 UNL     1      21.868   0.781  52.787  1.00  0.00    -0.103 C 
HETATM   10  P1  UNL     1      20.883   0.137  52.967  1.00  0.00    -0.055 P 
HETATM   11  C18 UNL     1      18.818  -1.161  53.304  1.00  0.00     0.070 C 
HETATM   12  C19 UNL     1      18.520  -0.319  52.162  1.00  0.00     0.173 C 
HETATM   13  O4  UNL     1      17.632   0.123  51.310  1.00  0.00    -0.384 OA
HETATM   14  C20 UNL     1      18.512   0.894  50.394  1.00  0.00     0.232 C 
HETATM   15  H18 UNL     1      20.496  -0.121  53.045  1.00  0.00     0.070 HD
ENDROOT
BRANCH   7  16
HETATM   16  N3  UNL     1      24.446   0.825  53.709  1.00  0.00    -0.348 N 
HETATM   17  H10 UNL     1      23.977   0.392  54.524  1.00  0.00     0.162 HD
BRANCH  16  18
HETATM   18  C9  UNL     1      25.746   0.224  53.551  1.00  0.00     0.032 A 
HETATM   19  C10 UNL     1      25.765  -0.974  52.828  1.00  0.00     0.029 A 
HETATM   20  C11 UNL     1      27.056  -1.509  52.738  1.00  0.00     0.005 A 
HETATM   21  C12 UNL     1      28.223  -1.041  53.235  1.00  0.00     0.037 A 
HETATM   22  C13 UNL     1      28.141   0.123  53.929  1.00  0.00     0.070 A 
HETATM   23  C15 UNL     1      26.914   0.778  54.102  1.00  0.00     0.065 A 
BRANCH  22  24
HETATM   24  O3  UNL     1      29.187   0.787  54.528  1.00  0.00    -0.356 OA
HETATM   25  C14 UNL     1      29.404   2.146  54.330  1.00  0.00     0.210 C 
ENDBRANCH  22  24
ENDBRANCH  16  18
ENDBRANCH   7  16
BRANCH   1  26
HETATM   26  O2  UNL     1      18.975   2.910  51.986  1.00  0.00    -0.351 OA
BRANCH  26  27
HETATM   27  C3  UNL     1      18.130   3.918  51.428  1.00  0.00     0.201 C 
BRANCH  27  28
HETATM   28  C2  UNL     1      16.688   3.667  51.739  1.00  0.00     0.193 C 
BRANCH  28  29
HETATM   29  O1  UNL     1      16.272   4.508  52.747  1.00  0.00    -0.394 OA
HETATM   30  C1  UNL     1      15.045   4.188  53.268  1.00  0.00     0.201 C 
ENDBRANCH  28  29
ENDBRANCH  27  28
ENDBRANCH  26  27
ENDBRANCH   1  26
TORSDOF 7
ENDMDL
MODEL 5
REMARK VINA RESULT:      -7.2      2.409      4.105
REMARK  7 active torsions:
REMARK  status: ('A' for Active; 'I' for Inactive)
REMARK    1  A    between atoms: O1_2  and  C2_3 
REMARK    2  A    between atoms: C2_3  and  C3_4 
REMARK    3  A    between atoms: C3_4  and  O2_5 
REMARK    4  A    between atoms: O2_5  and  C4_6 
REMARK    5  A    between atoms: C8_12  and  N3_13 
REMARK    6  A    between atoms: N3_13  and  C9_14 
REMARK    7  A    between atoms: C13_18  and  O3_19 
ROOT
HETATM    1  C4  UNL     1      21.682   1.018  52.553  1.00  0.00     0.071 C 
HETATM    2  C5  UNL     1      22.877   1.523  52.344  1.00  0.00     0.059 C 
HETATM    3  C6  UNL     1      24.256   2.010  52.096  1.00  0.00     0.076 A 
HETATM    4  N1  UNL     1      25.113   1.898  53.105  1.00  0.00    -0.065 NA
HETATM    5  C7  UNL     1      26.432   2.277  52.952  1.00  0.00     0.371 A 
HETATM    6  N2  UNL     1      25.900   2.481  51.925  1.00  0.00     0.090 N 
HETATM    7  C8  UNL     1      26.017   2.906  50.712  1.00  0.00     0.335 A 
HETATM    8  C16 UNL     1      24.746   2.557  50.799  1.00  0.00     0.305 A 
HETATM    9  C17 UNL     1      23.550   2.411  50.385  1.00  0.00    -0.103 C 
HETATM   10  P1  UNL     1      22.426   2.269  50.019  1.00  0.00    -0.055 P 
HETATM   11  C18 UNL     1      20.089   1.954  49.312  1.00  0.00     0.070 C 
HETATM   12  C19 UNL     1      20.059   1.708  50.741  1.00  0.00     0.173 C 
HETATM   13  O4  UNL     1      19.382   1.305  51.784  1.00  0.00    -0.384 OA
HETATM   14  C20 UNL     1      20.349   1.633  52.864  1.00  0.00     0.232 C 
HETATM   15  H18 UNL     1      21.983   2.214  49.867  1.00  0.00     0.070 HD
ENDROOT
BRANCH   7  16
HETATM   16  N3  UNL     1      25.910   3.330  49.342  1.00  0.00    -0.348 N 
HETATM   17  H10 UNL     1      25.509   2.983  48.454  1.00  0.00     0.162 HD
BRANCH  16  18
HETATM   18  C9  UNL     1      26.544   4.601  49.098  1.00  0.00     0.032 A 
HETATM   19  C10 UNL     1      25.758   5.723  49.380  1.00  0.00     0.029 A 
HETATM   20  C11 UNL     1      26.432   6.917  49.096  1.00  0.00     0.005 A 
HETATM   21  C12 UNL     1      27.678   7.113  48.609  1.00  0.00     0.037 A 
HETATM   22  C13 UNL     1      28.391   5.986  48.352  1.00  0.00     0.070 A 
HETATM   23  C15 UNL     1      27.849   4.715  48.589  1.00  0.00     0.065 A 
BRANCH  22  24
HETATM   24  O3  UNL     1      29.672   5.932  47.852  1.00  0.00    -0.356 OA
HETATM   25  C14 UNL     1      30.778   6.265  48.626  1.00  0.00     0.210 C 
ENDBRANCH  22  24
ENDBRANCH  16  18
ENDBRANCH   7  16
BRANCH   1  26
HETATM   26  O2  UNL     1      22.051  -0.288  52.388  1.00  0.00    -0.351 OA
BRANCH  26  27
HETATM   27  C3  UNL     1      22.722  -0.936  53.470  1.00  0.00     0.201 C 
BRANCH  27  28
HETATM   28  C2  UNL     1      21.769  -1.346  54.548  1.00  0.00     0.193 C 
BRANCH  28  29
HETATM   29  O1  UNL     1      22.464  -1.883  55.609  1.00  0.00    -0.394 OA
HETATM   30  C1  UNL     1      23.751  -1.423  55.721  1.00  0.00     0.201 C 
ENDBRANCH  28  29
ENDBRANCH  27  28
ENDBRANCH  26  27
ENDBRANCH   1  26
TORSDOF 7
ENDMDL
MODEL 6
REMARK VINA RESULT:      -7.2      2.399      4.359
REMARK  7 active torsions:
REMARK  status: ('A' for Active; 'I' for Inactive)
REMARK    1  A    between atoms: O1_2  and  C2_3 
REMARK    2  A    between atoms: C2_3  and  C3_4 
REMARK    3  A    between atoms: C3_4  and  O2_5 
REMARK    4  A    between atoms: O2_5  and  C4_6 
REMARK    5  A    between atoms: C8_12  and  N3_13 
REMARK    6  A    between atoms: N3_13  and  C9_14 
REMARK    7  A    between atoms: C13_18  and  O3_19 
ROOT
HETATM    1  C4  UNL     1      26.265   0.165  53.151  1.00  0.00     0.071 C 
HETATM    2  C5  UNL     1      26.055   1.148  52.303  1.00  0.00     0.059 C 
HETATM    3  C6  UNL     1      25.843   2.201  51.281  1.00  0.00     0.076 A 
HETATM    4  N1  UNL     1      26.931   2.823  50.839  1.00  0.00    -0.065 NA
HETATM    5  C7  UNL     1      26.839   3.783  49.851  1.00  0.00     0.371 A 
HETATM    6  N2  UNL     1      25.747   3.401  50.054  1.00  0.00     0.090 N 
HETATM    7  C8  UNL     1      24.496   3.491  49.752  1.00  0.00     0.335 A 
HETATM    8  C16 UNL     1      24.523   2.564  50.692  1.00  0.00     0.305 A 
HETATM    9  C17 UNL     1      24.027   1.710  51.497  1.00  0.00    -0.103 C 
HETATM   10  P1  UNL     1      23.584   0.910  52.260  1.00  0.00    -0.055 P 
HETATM   11  C18 UNL     1      22.719  -0.757  53.852  1.00  0.00     0.070 C 
HETATM   12  C19 UNL     1      24.110  -0.599  54.230  1.00  0.00     0.173 C 
HETATM   13  O4  UNL     1      25.116  -1.009  54.958  1.00  0.00    -0.384 OA
HETATM   14  C20 UNL     1      26.114   0.045  54.639  1.00  0.00     0.232 C 
HETATM   15  H18 UNL     1      23.401   0.593  52.558  1.00  0.00     0.070 HD
ENDROOT
BRANCH   7  16
HETATM   16  N3  UNL     1      23.069   3.422  49.586  1.00  0.00    -0.348 N 
HETATM   17  H10 UNL     1      22.241   3.121  50.129  1.00  0.00     0.162 HD
BRANCH  16  18
HETATM   18  C9  UNL     1      22.632   3.892  48.296  1.00  0.00     0.032 A 
HETATM   19  C10 UNL     1      22.087   2.913  47.459  1.00  0.00     0.029 A 
HETATM   20  C11 UNL     1      21.708   3.438  46.218  1.00  0.00     0.005 A 
HETATM   21  C12 UNL     1      21.798   4.705  45.751  1.00  0.00     0.037 A 
HETATM   22  C13 UNL     1      22.338   5.609  46.608  1.00  0.00     0.070 A 
HETATM   23  C15 UNL     1      22.762   5.230  47.889  1.00  0.00     0.065 A 
BRANCH  22  24
HETATM   24  O3  UNL     1      22.534   6.949  46.357  1.00  0.00    -0.356 OA
HETATM   25  C14 UNL     1      23.192   7.393  45.216  1.00  0.00     0.210 C 
ENDBRANCH  22  24
ENDBRANCH  16  18
ENDBRANCH   7  16
BRANCH   1  26
HETATM   26  O2  UNL     1      26.676  -0.742  52.215  1.00  0.00    -0.351 OA
BRANCH  26  27
HETATM   27  C3  UNL     1      27.011  -2.058  52.658  1.00  0.00     0.201 C 
BRANCH  27  28
HETATM   28  C2  UNL     1      28.490  -2.279  52.669  1.00  0.00     0.193 C 
BRANCH  28  29
HETATM   29  O1  UNL     1      29.031  -1.771  53.829  1.00  0.00    -0.394 OA
HETATM   30  C1  UNL     1      29.898  -0.728  53.628  1.00  0.00     0.201 C 
ENDBRANCH  28  29
ENDBRANCH  27  28
ENDBRANCH  26  27
ENDBRANCH   1  26
TORSDOF 7
ENDMDL
MODEL 7
REMARK VINA RESULT:      -7.1      3.079      8.001
REMARK  7 active torsions:
REMARK  status: ('A' for Active; 'I' for Inactive)
REMARK    1  A    between atoms: O1_2  and  C2_3 
REMARK    2  A    between atoms: C2_3  and  C3_4 
REMARK    3  A    between atoms: C3_4  and  O2_5 
REMARK    4  A    between atoms: O2_5  and  C4_6 
REMARK    5  A    between atoms: C8_12  and  N3_13 
REMARK    6  A    between atoms: N3_13  and  C9_14 
REMARK    7  A    between atoms: C13_18  and  O3_19 
ROOT
HETATM    1  C4  UNL     1      26.288   2.285  52.214  1.00  0.00     0.071 C 
HETATM    2  C5  UNL     1      24.988   2.387  52.381  1.00  0.00     0.059 C 
HETATM    3  C6  UNL     1      23.512   2.501  52.480  1.00  0.00     0.076 A 
HETATM    4  N1  UNL     1      22.996   3.706  52.261  1.00  0.00    -0.065 NA
HETATM    5  C7  UNL     1      21.630   3.899  52.282  1.00  0.00     0.371 A 
HETATM    6  N2  UNL     1      21.814   2.761  52.506  1.00  0.00     0.090 N 
HETATM    7  C8  UNL     1      21.289   1.611  52.762  1.00  0.00     0.335 A 
HETATM    8  C16 UNL     1      22.587   1.365  52.752  1.00  0.00     0.305 A 
HETATM    9  C17 UNL     1      23.635   0.651  52.868  1.00  0.00    -0.103 C 
HETATM   10  P1  UNL     1      24.628   0.003  52.975  1.00  0.00    -0.055 P 
HETATM   11  C18 UNL     1      26.711  -1.293  53.182  1.00  0.00     0.070 C 
HETATM   12  C19 UNL     1      27.161   0.083  53.099  1.00  0.00     0.173 C 
HETATM   13  O4  UNL     1      28.159   0.920  52.987  1.00  0.00    -0.384 OA
HETATM   14  C20 UNL     1      27.441   2.207  53.171  1.00  0.00     0.232 C 
HETATM   15  H18 UNL     1      25.017  -0.261  53.017  1.00  0.00     0.070 HD
ENDROOT
BRANCH   7  16
HETATM   16  N3  UNL     1      20.933   0.249  53.058  1.00  0.00    -0.348 N 
HETATM   17  H10 UNL     1      21.348  -0.575  53.526  1.00  0.00     0.162 HD
BRANCH  16  18
HETATM   18  C9  UNL     1      19.628  -0.109  52.563  1.00  0.00     0.032 A 
HETATM   19  C10 UNL     1      19.235   0.544  51.390  1.00  0.00     0.029 A 
HETATM   20  C11 UNL     1      17.950   0.164  50.985  1.00  0.00     0.005 A 
HETATM   21  C12 UNL     1      17.086  -0.706  51.555  1.00  0.00     0.037 A 
HETATM   22  C13 UNL     1      17.522  -1.306  52.693  1.00  0.00     0.070 A 
HETATM   23  C15 UNL     1      18.790  -1.027  53.219  1.00  0.00     0.065 A 
BRANCH  22  24
HETATM   24  O3  UNL     1      16.822  -2.220  53.448  1.00  0.00    -0.356 OA
HETATM   25  C14 UNL     1      17.219  -3.549  53.546  1.00  0.00     0.210 C 
ENDBRANCH  22  24
ENDBRANCH  16  18
ENDBRANCH   7  16
BRANCH   1  26
HETATM   26  O2  UNL     1      26.252   2.268  50.848  1.00  0.00    -0.351 OA
BRANCH  26  27
HETATM   27  C3  UNL     1      26.809   3.383  50.149  1.00  0.00     0.201 C 
BRANCH  27  28
HETATM   28  C2  UNL     1      25.753   4.353  49.722  1.00  0.00     0.193 C 
BRANCH  28  29
HETATM   29  O1  UNL     1      26.243   5.172  48.730  1.00  0.00    -0.394 OA
HETATM   30  C1  UNL     1      27.609   5.153  48.616  1.00  0.00     0.201 C 
ENDBRANCH  28  29
ENDBRANCH  27  28
ENDBRANCH  26  27
ENDBRANCH   1  26
TORSDOF 7
ENDMDL
MODEL 8
REMARK VINA RESULT:      -7.0      2.424      3.453
REMARK  7 active torsions:
REMARK  status: ('A' for Active; 'I' for Inactive)
REMARK    1  A    between atoms: O1_2  and  C2_3 
REMARK    2  A    between atoms: C2_3  and  C3_4 
REMARK    3  A    between atoms: C3_4  and  O2_5 
REMARK    4  A    between atoms: O2_5  and  C4_6 
REMARK    5  A    between atoms: C8_12  and  N3_13 
REMARK    6  A    between atoms: N3_13  and  C9_14 
REMARK    7  A    between atoms: C13_18  and  O3_19 
ROOT
HETATM    1  C4  UNL     1      22.486   0.576  52.486  1.00  0.00     0.071 C 
HETATM    2  C5  UNL     1      22.901   1.294  51.467  1.00  0.00     0.059 C 
HETATM    3  C6  UNL     1      23.330   2.176  50.353  1.00  0.00     0.076 A 
HETATM    4  N1  UNL     1      22.417   2.442  49.426  1.00  0.00    -0.065 NA
HETATM    5  C7  UNL     1      22.707   3.293  48.378  1.00  0.00     0.371 A 
HETATM    6  N2  UNL     1      23.675   3.230  49.041  1.00  0.00     0.090 N 
HETATM    7  C8  UNL     1      24.894   3.614  49.213  1.00  0.00     0.335 A 
HETATM    8  C16 UNL     1      24.673   2.811  50.238  1.00  0.00     0.305 A 
HETATM    9  C17 UNL     1      24.971   2.172  51.299  1.00  0.00    -0.103 C 
HETATM   10  P1  UNL     1      25.229   1.564  52.290  1.00  0.00    -0.055 P 
HETATM   11  C18 UNL     1      25.711   0.288  54.340  1.00  0.00     0.070 C 
HETATM   12  C19 UNL     1      24.421  -0.216  53.908  1.00  0.00     0.173 C 
HETATM   13  O4  UNL     1      23.376  -0.957  54.167  1.00  0.00    -0.384 OA
HETATM   14  C20 UNL     1      22.664  -0.865  52.865  1.00  0.00     0.232 C 
HETATM   15  H18 UNL     1      25.338   1.327  52.683  1.00  0.00     0.070 HD
ENDROOT
BRANCH   7  16
HETATM   16  N3  UNL     1      26.249   3.899  49.601  1.00  0.00    -0.348 N 
HETATM   17  H10 UNL     1      26.970   3.513  50.236  1.00  0.00     0.162 HD
BRANCH  16  18
HETATM   18  C9  UNL     1      26.789   5.060  48.940  1.00  0.00     0.032 A 
HETATM   19  C10 UNL     1      28.141   4.973  48.592  1.00  0.00     0.029 A 
HETATM   20  C11 UNL     1      28.599   6.145  47.977  1.00  0.00     0.005 A 
HETATM   21  C12 UNL     1      27.935   7.289  47.694  1.00  0.00     0.037 A 
HETATM   22  C13 UNL     1      26.627   7.315  48.058  1.00  0.00     0.070 A 
HETATM   23  C15 UNL     1      26.027   6.212  48.682  1.00  0.00     0.065 A 
BRANCH  22  24
HETATM   24  O3  UNL     1      25.754   8.364  47.878  1.00  0.00    -0.356 OA
HETATM   25  C14 UNL     1      25.720   9.096  46.697  1.00  0.00     0.210 C 
ENDBRANCH  22  24
ENDBRANCH  16  18
ENDBRANCH   7  16
BRANCH   1  26
HETATM   26  O2  UNL     1      21.821   1.593  53.112  1.00  0.00    -0.351 OA
BRANCH  26  27
HETATM   27  C3  UNL     1      20.481   1.871  52.701  1.00  0.00     0.201 C 
BRANCH  27  28
HETATM   28  C2  UNL     1      20.306   3.305  52.315  1.00  0.00     0.193 C 
BRANCH  28  29
HETATM   29  O1  UNL     1      18.967   3.589  52.163  1.00  0.00    -0.394 OA
HETATM   30  C1  UNL     1      18.266   2.623  51.488  1.00  0.00     0.201 C 
ENDBRANCH  28  29
ENDBRANCH  27  28
ENDBRANCH  26  27
ENDBRANCH   1  26
TORSDOF 7
ENDMDL
MODEL 9
REMARK VINA RESULT:      -6.9      3.134      8.094
REMARK  7 active torsions:
REMARK  status: ('A' for Active; 'I' for Inactive)
REMARK    1  A    between atoms: O1_2  and  C2_3 
REMARK    2  A    between atoms: C2_3  and  C3_4 
REMARK    3  A    between atoms: C3_4  and  O2_5 
REMARK    4  A    between atoms: O2_5  and  C4_6 
REMARK    5  A    between atoms: C8_12  and  N3_13 
REMARK    6  A    between atoms: N3_13  and  C9_14 
REMARK    7  A    between atoms: C13_18  and  O3_19 
ROOT
HETATM    1  C4  UNL     1      22.530   5.675  50.017  1.00  0.00     0.071 C 
HETATM    2  C5  UNL     1      23.638   4.970  49.976  1.00  0.00     0.059 C 
HETATM    3  C6  UNL     1      24.926   4.234  49.987  1.00  0.00     0.076 A 
HETATM    4  N1  UNL     1      25.897   4.730  49.228  1.00  0.00    -0.065 NA
HETATM    5  C7  UNL     1      27.146   4.142  49.211  1.00  0.00     0.371 A 
HETATM    6  N2  UNL     1      26.486   3.513  49.951  1.00  0.00     0.090 N 
HETATM    7  C8  UNL     1      26.424   2.508  50.758  1.00  0.00     0.335 A 
HETATM    8  C16 UNL     1      25.211   3.028  50.816  1.00  0.00     0.305 A 
HETATM    9  C17 UNL     1      23.997   3.107  51.194  1.00  0.00    -0.103 C 
HETATM   10  P1  UNL     1      22.859   3.198  51.531  1.00  0.00    -0.055 P 
HETATM   11  C18 UNL     1      20.501   3.431  52.199  1.00  0.00     0.070 C 
HETATM   12  C19 UNL     1      20.655   4.385  51.117  1.00  0.00     0.173 C 
HETATM   13  O4  UNL     1      20.141   5.363  50.419  1.00  0.00    -0.384 OA
HETATM   14  C20 UNL     1      21.185   5.510  49.371  1.00  0.00     0.232 C 
HETATM   15  H18 UNL     1      22.409   3.228  51.671  1.00  0.00     0.070 HD
ENDROOT
BRANCH   7  16
HETATM   16  N3  UNL     1      26.123   1.454  51.689  1.00  0.00    -0.348 N 
HETATM   17  H10 UNL     1      25.326   0.839  51.932  1.00  0.00     0.162 HD
BRANCH  16  18
HETATM   18  C9  UNL     1      27.229   1.144  52.560  1.00  0.00     0.032 A 
HETATM   19  C10 UNL     1      27.827   2.247  53.179  1.00  0.00     0.029 A 
HETATM   20  C11 UNL     1      28.906   1.870  53.988  1.00  0.00     0.005 A 
HETATM   21  C12 UNL     1      29.415   0.642  54.234  1.00  0.00     0.037 A 
HETATM   22  C13 UNL     1      28.794  -0.388  53.603  1.00  0.00     0.070 A 
HETATM   23  C15 UNL     1      27.696  -0.166  52.761  1.00  0.00     0.065 A 
BRANCH  22  24
HETATM   24  O3  UNL     1      29.133  -1.719  53.694  1.00  0.00    -0.356 OA
HETATM   25  C14 UNL     1      28.461  -2.700  52.972  1.00  0.00     0.210 C 
ENDBRANCH  22  24
ENDBRANCH  16  18
ENDBRANCH   7  16
BRANCH   1  26
HETATM   26  O2  UNL     1      23.006   6.636  50.863  1.00  0.00    -0.351 OA
BRANCH  26  27
HETATM   27  C3  UNL     1      22.905   8.001  50.453  1.00  0.00     0.201 C 
BRANCH  27  28
HETATM   28  C2  UNL     1      24.150   8.467  49.767  1.00  0.00     0.193 C 
BRANCH  28  29
HETATM   29  O1  UNL     1      23.960   8.474  48.403  1.00  0.00    -0.394 OA
HETATM   30  C1  UNL     1      23.501   9.669  47.911  1.00  0.00     0.201 C 
ENDBRANCH  28  29
ENDBRANCH  27  28
ENDBRANCH  26  27
ENDBRANCH   1  26
TORSDOF 7
ENDMDL
