MODEL 1
REMARK VINA RESULT:      -6.9      0.000      0.000
REMARK  8 active torsions:
REMARK  status: ('A' for Active; 'I' for Inactive)
REMARK    1  A    between atoms: C2_2  and  C3_4 
REMARK    2  A    between atoms: C4_5  and  C5_6 
REMARK    3  A    between atoms: C5_6  and  C6_7 
REMARK    4  A    between atoms: C6_7  and  C7_8 
REMARK    5  A    between atoms: C7_8  and  N1_9 
REMARK    6  A    between atoms: N1_9  and  C8_10 
REMARK    7  A    between atoms: C8_10  and  C9_11 
REMARK    8  A    between atoms: C9_11  and  S1_12 
ROOT
HETATM    1  C3  UNL     1      21.894   0.032  52.894  1.00  0.00     0.093 C 
HETATM    2  C4  UNL     1      22.907   0.649  52.310  1.00  0.00    -0.023 C 
HETATM    3  C11 UNL     1      22.915   1.480  51.115  1.00  0.00     0.010 C 
HETATM    4  C12 UNL     1      22.049   1.683  50.131  1.00  0.00     0.000 C 
HETATM    5  C13 UNL     1      20.712   1.134  49.861  1.00  0.00    -0.002 C 
HETATM    6  C14 UNL     1      19.713   0.706  50.615  1.00  0.00    -0.000 C 
HETATM    7  C15 UNL     1      19.489   0.588  52.079  1.00  0.00     0.203 C 
HETATM    8  O3  UNL     1      20.529  -0.116  52.720  1.00  0.00    -0.345 OA
ENDROOT
BRANCH   2   9
HETATM    9  C5  UNL     1      24.244   0.507  52.889  1.00  0.00     0.043 C 
BRANCH   9  10
HETATM   10  C6  UNL     1      25.173   1.602  52.439  1.00  0.00     0.034 C 
BRANCH  10  11
HETATM   11  C7  UNL     1      25.325   2.524  53.660  1.00  0.00     0.270 C 
BRANCH  11  12
HETATM   12  N1  UNL     1      26.727   2.462  54.030  1.00  0.00     0.084 N 
HETATM   13  H9  UNL     1      26.871   1.884  54.885  1.00  0.00     0.315 HD
BRANCH  12  14
HETATM   14  C8  UNL     1      27.531   1.985  52.947  1.00  0.00     0.284 C 
BRANCH  14  15
HETATM   15  C9  UNL     1      28.814   1.407  53.451  1.00  0.00     0.169 C 
BRANCH  15  16
HETATM   16  S1  UNL     1      28.509  -0.288  53.891  1.00  0.00     0.142 S 
HETATM   17  C10 UNL     1      27.514  -1.098  52.655  1.00  0.00     0.161 C 
HETATM   18  O1  UNL     1      29.795  -1.041  53.988  1.00  0.00    -0.228 OA
HETATM   19  O2  UNL     1      27.736  -0.305  55.175  1.00  0.00    -0.228 OA
ENDBRANCH  15  16
ENDBRANCH  14  15
ENDBRANCH  12  14
ENDBRANCH  11  12
ENDBRANCH  10  11
ENDBRANCH   9  10
ENDBRANCH   2   9
BRANCH   1  20
HETATM   20  C2  UNL     1      22.313  -0.716  54.064  1.00  0.00     0.043 A 
HETATM   21  C1  UNL     1      21.620  -1.714  54.584  1.00  0.00     0.155 A 
HETATM   22 CL1  UNL     1      23.030  -1.457  55.473  1.00  0.00    -0.179 Cl
ENDBRANCH   1  20
TORSDOF 8
ENDMDL
MODEL 2
REMARK VINA RESULT:      -6.8      3.754      5.804
REMARK  8 active torsions:
REMARK  status: ('A' for Active; 'I' for Inactive)
REMARK    1  A    between atoms: C2_2  and  C3_4 
REMARK    2  A    between atoms: C4_5  and  C5_6 
REMARK    3  A    between atoms: C5_6  and  C6_7 
REMARK    4  A    between atoms: C6_7  and  C7_8 
REMARK    5  A    between atoms: C7_8  and  N1_9 
REMARK    6  A    between atoms: N1_9  and  C8_10 
REMARK    7  A    between atoms: C8_10  and  C9_11 
REMARK    8  A    between atoms: C9_11  and  S1_12 
ROOT
HETATM    1  C3  UNL     1      26.259  -0.345  53.928  1.00  0.00     0.093 C 
HETATM    2  C4  UNL     1      25.717   0.352  52.944  1.00  0.00    -0.023 C 
HETATM    3  C11 UNL     1      24.316   0.660  52.695  1.00  0.00     0.010 C 
HETATM    4  C12 UNL     1      23.173   0.181  53.167  1.00  0.00     0.000 C 
HETATM    5  C13 UNL     1      22.871  -0.872  54.149  1.00  0.00    -0.002 C 
HETATM    6  C14 UNL     1      23.480  -1.341  55.226  1.00  0.00    -0.000 C 
HETATM    7  C15 UNL     1      24.745  -1.015  55.932  1.00  0.00     0.203 C 
HETATM    8  O3  UNL     1      25.856  -1.027  55.062  1.00  0.00    -0.345 OA
ENDROOT
BRANCH   2   9
HETATM    9  C5  UNL     1      26.593   0.913  51.914  1.00  0.00     0.043 C 
BRANCH   9  10
HETATM   10  C6  UNL     1      26.625   2.417  51.958  1.00  0.00     0.034 C 
BRANCH  10  11
HETATM   11  C7  UNL     1      26.556   2.861  50.488  1.00  0.00     0.270 C 
BRANCH  11  12
HETATM   12  N1  UNL     1      26.096   4.238  50.513  1.00  0.00     0.084 N 
HETATM   13  H9  UNL     1      26.895   4.907  50.529  1.00  0.00     0.315 HD
BRANCH  12  14
HETATM   14  C8  UNL     1      25.218   4.514  49.418  1.00  0.00     0.284 C 
BRANCH  14  15
HETATM   15  C9  UNL     1      23.799   4.228  49.788  1.00  0.00     0.169 C 
BRANCH  15  16
HETATM   16  S1  UNL     1      23.438   5.119  51.284  1.00  0.00     0.142 S 
HETATM   17  C10 UNL     1      21.725   5.601  51.342  1.00  0.00     0.161 C 
HETATM   18  O1  UNL     1      23.699   4.260  52.477  1.00  0.00    -0.228 OA
HETATM   19  O2  UNL     1      24.260   6.373  51.289  1.00  0.00    -0.228 OA
ENDBRANCH  15  16
ENDBRANCH  14  15
ENDBRANCH  12  14
ENDBRANCH  11  12
ENDBRANCH  10  11
ENDBRANCH   9  10
ENDBRANCH   2   9
BRANCH   1  20
HETATM   20  C2  UNL     1      27.702  -0.434  53.801  1.00  0.00     0.043 A 
HETATM   21  C1  UNL     1      28.547  -0.030  54.734  1.00  0.00     0.155 A 
HETATM   22 CL1  UNL     1      29.390  -0.650  53.411  1.00  0.00    -0.179 Cl
ENDBRANCH   1  20
TORSDOF 8
ENDMDL
MODEL 3
REMARK VINA RESULT:      -6.4      2.325      3.275
REMARK  8 active torsions:
REMARK  status: ('A' for Active; 'I' for Inactive)
REMARK    1  A    between atoms: C2_2  and  C3_4 
REMARK    2  A    between atoms: C4_5  and  C5_6 
REMARK    3  A    between atoms: C5_6  and  C6_7 
REMARK    4  A    between atoms: C6_7  and  C7_8 
REMARK    5  A    between atoms: C7_8  and  N1_9 
REMARK    6  A    between atoms: N1_9  and  C8_10 
REMARK    7  A    between atoms: C8_10  and  C9_11 
REMARK    8  A    between atoms: C9_11  and  S1_12 
ROOT
HETATM    1  C3  UNL     1      21.421   1.636  52.699  1.00  0.00     0.093 C 
HETATM    2  C4  UNL     1      22.728   1.448  52.735  1.00  0.00    -0.023 C 
HETATM    3  C11 UNL     1      23.482   0.302  53.224  1.00  0.00     0.010 C 
HETATM    4  C12 UNL     1      23.175  -0.747  53.974  1.00  0.00     0.000 C 
HETATM    5  C13 UNL     1      21.922  -1.170  54.619  1.00  0.00    -0.002 C 
HETATM    6  C14 UNL     1      20.638  -1.032  54.334  1.00  0.00    -0.000 C 
HETATM    7  C15 UNL     1      19.879  -0.388  53.232  1.00  0.00     0.203 C 
HETATM    8  O3  UNL     1      20.264   0.954  53.036  1.00  0.00    -0.345 OA
ENDROOT
BRANCH   2   9
HETATM    9  C5  UNL     1      23.605   2.511  52.241  1.00  0.00     0.043 C 
BRANCH   9  10
HETATM   10  C6  UNL     1      24.766   1.965  51.453  1.00  0.00     0.034 C 
BRANCH  10  11
HETATM   11  C7  UNL     1      25.460   3.200  50.857  1.00  0.00     0.270 C 
BRANCH  11  12
HETATM   12  N1  UNL     1      26.803   3.201  51.407  1.00  0.00     0.084 N 
HETATM   13  H9  UNL     1      26.926   3.956  52.116  1.00  0.00     0.315 HD
BRANCH  12  14
HETATM   14  C8  UNL     1      27.143   1.924  51.955  1.00  0.00     0.284 C 
BRANCH  14  15
HETATM   15  C9  UNL     1      27.908   2.078  53.230  1.00  0.00     0.169 C 
BRANCH  15  16
HETATM   16  S1  UNL     1      27.677   0.595  54.183  1.00  0.00     0.142 S 
HETATM   17  C10 UNL     1      27.211  -0.769  53.136  1.00  0.00     0.161 C 
HETATM   18  O1  UNL     1      28.947   0.213  54.869  1.00  0.00    -0.228 OA
HETATM   19  O2  UNL     1      26.552   0.829  55.146  1.00  0.00    -0.228 OA
ENDBRANCH  15  16
ENDBRANCH  14  15
ENDBRANCH  12  14
ENDBRANCH  11  12
ENDBRANCH  10  11
ENDBRANCH   9  10
ENDBRANCH   2   9
BRANCH   1  20
HETATM   20  C2  UNL     1      21.072   2.932  52.148  1.00  0.00     0.043 A 
HETATM   21  C1  UNL     1      19.829   3.369  52.030  1.00  0.00     0.155 A 
HETATM   22 CL1  UNL     1      20.912   4.526  51.456  1.00  0.00    -0.179 Cl
ENDBRANCH   1  20
TORSDOF 8
ENDMDL
MODEL 4
REMARK VINA RESULT:      -6.2      2.257      3.295
REMARK  8 active torsions:
REMARK  status: ('A' for Active; 'I' for Inactive)
REMARK    1  A    between atoms: C2_2  and  C3_4 
REMARK    2  A    between atoms: C4_5  and  C5_6 
REMARK    3  A    between atoms: C5_6  and  C6_7 
REMARK    4  A    between atoms: C6_7  and  C7_8 
REMARK    5  A    between atoms: C7_8  and  N1_9 
REMARK    6  A    between atoms: N1_9  and  C8_10 
REMARK    7  A    between atoms: C8_10  and  C9_11 
REMARK    8  A    between atoms: C9_11  and  S1_12 
ROOT
HETATM    1  C3  UNL     1      21.482   1.100  51.093  1.00  0.00     0.093 C 
HETATM    2  C4  UNL     1      22.335   0.630  51.985  1.00  0.00    -0.023 C 
HETATM    3  C11 UNL     1      22.104  -0.295  53.086  1.00  0.00     0.010 C 
HETATM    4  C12 UNL     1      21.014  -0.747  53.691  1.00  0.00     0.000 C 
HETATM    5  C13 UNL     1      19.583  -0.484  53.479  1.00  0.00    -0.002 C 
HETATM    6  C14 UNL     1      18.839  -0.180  52.428  1.00  0.00    -0.000 C 
HETATM    7  C15 UNL     1      19.114   0.032  50.984  1.00  0.00     0.203 C 
HETATM    8  O3  UNL     1      20.141   0.975  50.772  1.00  0.00    -0.345 OA
ENDROOT
BRANCH   2   9
HETATM    9  C5  UNL     1      23.730   1.072  51.925  1.00  0.00     0.043 C 
BRANCH   9  10
HETATM   10  C6  UNL     1      24.081   1.989  53.066  1.00  0.00     0.034 C 
BRANCH  10  11
HETATM   11  C7  UNL     1      25.592   2.238  52.928  1.00  0.00     0.270 C 
BRANCH  11  12
HETATM   12  N1  UNL     1      26.158   1.967  54.236  1.00  0.00     0.084 N 
HETATM   13  H9  UNL     1      25.651   2.482  54.987  1.00  0.00     0.315 HD
BRANCH  12  14
HETATM   14  C8  UNL     1      26.188   0.563  54.511  1.00  0.00     0.284 C 
BRANCH  14  15
HETATM   15  C9  UNL     1      27.142  -0.138  53.599  1.00  0.00     0.169 C 
BRANCH  15  16
HETATM   16  S1  UNL     1      28.757   0.557  53.866  1.00  0.00     0.142 S 
HETATM   17  C10 UNL     1      30.029  -0.653  53.570  1.00  0.00     0.161 C 
HETATM   18  O1  UNL     1      28.997   1.693  52.926  1.00  0.00    -0.228 OA
HETATM   19  O2  UNL     1      28.853   0.972  55.304  1.00  0.00    -0.228 OA
ENDBRANCH  15  16
ENDBRANCH  14  15
ENDBRANCH  12  14
ENDBRANCH  11  12
ENDBRANCH  10  11
ENDBRANCH   9  10
ENDBRANCH   2   9
BRANCH   1  20
HETATM   20  C2  UNL     1      22.114   2.020  50.166  1.00  0.00     0.043 A 
HETATM   21  C1  UNL     1      21.448   2.890  49.427  1.00  0.00     0.155 A 
HETATM   22 CL1  UNL     1      23.102   3.018  49.130  1.00  0.00    -0.179 Cl
ENDBRANCH   1  20
TORSDOF 8
ENDMDL
MODEL 5
REMARK VINA RESULT:      -6.2      3.602      7.265
REMARK  8 active torsions:
REMARK  status: ('A' for Active; 'I' for Inactive)
REMARK    1  A    between atoms: C2_2  and  C3_4 
REMARK    2  A    between atoms: C4_5  and  C5_6 
REMARK    3  A    between atoms: C5_6  and  C6_7 
REMARK    4  A    between atoms: C6_7  and  C7_8 
REMARK    5  A    between atoms: C7_8  and  N1_9 
REMARK    6  A    between atoms: N1_9  and  C8_10 
REMARK    7  A    between atoms: C8_10  and  C9_11 
REMARK    8  A    between atoms: C9_11  and  S1_12 
ROOT
HETATM    1  C3  UNL     1      26.431   1.917  52.356  1.00  0.00     0.093 C 
HETATM    2  C4  UNL     1      25.577   1.136  52.995  1.00  0.00    -0.023 C 
HETATM    3  C11 UNL     1      25.771   0.357  54.210  1.00  0.00     0.010 C 
HETATM    4  C12 UNL     1      26.840  -0.021  54.897  1.00  0.00     0.000 C 
HETATM    5  C13 UNL     1      28.279   0.205  54.694  1.00  0.00    -0.002 C 
HETATM    6  C14 UNL     1      29.000   1.176  54.160  1.00  0.00    -0.000 C 
HETATM    7  C15 UNL     1      28.683   2.481  53.525  1.00  0.00     0.203 C 
HETATM    8  O3  UNL     1      27.739   2.350  52.486  1.00  0.00    -0.345 OA
ENDROOT
BRANCH   2   9
HETATM    9  C5  UNL     1      24.228   0.975  52.450  1.00  0.00     0.043 C 
BRANCH   9  10
HETATM   10  C6  UNL     1      23.440  -0.071  53.191  1.00  0.00     0.034 C 
BRANCH  10  11
HETATM   11  C7  UNL     1      21.967   0.288  52.944  1.00  0.00     0.270 C 
BRANCH  11  12
HETATM   12  N1  UNL     1      21.818   0.374  51.503  1.00  0.00     0.084 N 
HETATM   13  H9  UNL     1      21.693  -0.567  51.074  1.00  0.00     0.315 HD
BRANCH  12  14
HETATM   14  C8  UNL     1      20.744   1.247  51.141  1.00  0.00     0.284 C 
BRANCH  14  15
HETATM   15  C9  UNL     1      21.260   2.475  50.463  1.00  0.00     0.169 C 
BRANCH  15  16
HETATM   16  S1  UNL     1      20.962   3.856  51.543  1.00  0.00     0.142 S 
HETATM   17  C10 UNL     1      22.477   4.419  52.291  1.00  0.00     0.161 C 
HETATM   18  O1  UNL     1      20.393   5.003  50.776  1.00  0.00    -0.228 OA
HETATM   19  O2  UNL     1      20.056   3.397  52.647  1.00  0.00    -0.228 OA
ENDBRANCH  15  16
ENDBRANCH  14  15
ENDBRANCH  12  14
ENDBRANCH  11  12
ENDBRANCH  10  11
ENDBRANCH   9  10
ENDBRANCH   2   9
BRANCH   1  20
HETATM   20  C2  UNL     1      25.846   2.503  51.165  1.00  0.00     0.043 A 
HETATM   21  C1  UNL     1      26.532   3.210  50.283  1.00  0.00     0.155 A 
HETATM   22 CL1  UNL     1      24.916   3.101  49.814  1.00  0.00    -0.179 Cl
ENDBRANCH   1  20
TORSDOF 8
ENDMDL
MODEL 6
REMARK VINA RESULT:      -6.1      3.297      6.819
REMARK  8 active torsions:
REMARK  status: ('A' for Active; 'I' for Inactive)
REMARK    1  A    between atoms: C2_2  and  C3_4 
REMARK    2  A    between atoms: C4_5  and  C5_6 
REMARK    3  A    between atoms: C5_6  and  C6_7 
REMARK    4  A    between atoms: C6_7  and  C7_8 
REMARK    5  A    between atoms: C7_8  and  N1_9 
REMARK    6  A    between atoms: N1_9  and  C8_10 
REMARK    7  A    between atoms: C8_10  and  C9_11 
REMARK    8  A    between atoms: C9_11  and  S1_12 
ROOT
HETATM    1  C3  UNL     1      24.534   0.002  53.123  1.00  0.00     0.093 C 
HETATM    2  C4  UNL     1      24.477   1.217  52.607  1.00  0.00    -0.023 C 
HETATM    3  C11 UNL     1      25.549   2.044  52.073  1.00  0.00     0.010 C 
HETATM    4  C12 UNL     1      26.873   1.991  52.144  1.00  0.00     0.000 C 
HETATM    5  C13 UNL     1      27.791   1.051  52.806  1.00  0.00    -0.002 C 
HETATM    6  C14 UNL     1      27.751  -0.238  53.097  1.00  0.00    -0.000 C 
HETATM    7  C15 UNL     1      26.759  -1.323  52.887  1.00  0.00     0.203 C 
HETATM    8  O3  UNL     1      25.481  -0.976  53.374  1.00  0.00    -0.345 OA
ENDROOT
BRANCH   2   9
HETATM    9  C5  UNL     1      23.181   1.895  52.548  1.00  0.00     0.043 C 
BRANCH   9  10
HETATM   10  C6  UNL     1      22.934   2.525  51.203  1.00  0.00     0.034 C 
BRANCH  10  11
HETATM   11  C7  UNL     1      22.410   1.385  50.317  1.00  0.00     0.270 C 
BRANCH  11  12
HETATM   12  N1  UNL     1      21.106   1.038  50.850  1.00  0.00     0.084 N 
HETATM   13  H9  UNL     1      20.979   1.403  51.818  1.00  0.00     0.315 HD
BRANCH  12  14
HETATM   14  C8  UNL     1      20.054   1.489  49.992  1.00  0.00     0.284 C 
BRANCH  14  15
HETATM   15  C9  UNL     1      18.804   1.747  50.770  1.00  0.00     0.169 C 
BRANCH  15  16
HETATM   16  S1  UNL     1      18.980   3.326  51.569  1.00  0.00     0.142 S 
HETATM   17  C10 UNL     1      19.728   4.514  50.474  1.00  0.00     0.161 C 
HETATM   18  O1  UNL     1      17.642   3.863  51.959  1.00  0.00    -0.228 OA
HETATM   19  O2  UNL     1      19.895   3.155  52.744  1.00  0.00    -0.228 OA
ENDBRANCH  15  16
ENDBRANCH  14  15
ENDBRANCH  12  14
ENDBRANCH  11  12
ENDBRANCH  10  11
ENDBRANCH   9  10
ENDBRANCH   2   9
BRANCH   1  20
HETATM   20  C2  UNL     1      23.233  -0.467  53.560  1.00  0.00     0.043 A 
HETATM   21  C1  UNL     1      23.015  -1.041  54.731  1.00  0.00     0.155 A 
HETATM   22 CL1  UNL     1      21.579  -0.941  53.854  1.00  0.00    -0.179 Cl
ENDBRANCH   1  20
TORSDOF 8
ENDMDL
MODEL 7
REMARK VINA RESULT:      -6.1      4.638      5.576
REMARK  8 active torsions:
REMARK  status: ('A' for Active; 'I' for Inactive)
REMARK    1  A    between atoms: C2_2  and  C3_4 
REMARK    2  A    between atoms: C4_5  and  C5_6 
REMARK    3  A    between atoms: C5_6  and  C6_7 
REMARK    4  A    between atoms: C6_7  and  C7_8 
REMARK    5  A    between atoms: C7_8  and  N1_9 
REMARK    6  A    between atoms: N1_9  and  C8_10 
REMARK    7  A    between atoms: C8_10  and  C9_11 
REMARK    8  A    between atoms: C9_11  and  S1_12 
ROOT
HETATM    1  C3  UNL     1      24.290  -0.030  53.396  1.00  0.00     0.093 C 
HETATM    2  C4  UNL     1      23.681   0.949  52.751  1.00  0.00    -0.023 C 
HETATM    3  C11 UNL     1      22.285   1.358  52.800  1.00  0.00     0.010 C 
HETATM    4  C12 UNL     1      21.178   0.792  53.261  1.00  0.00     0.000 C 
HETATM    5  C13 UNL     1      20.926  -0.501  53.916  1.00  0.00    -0.002 C 
HETATM    6  C14 UNL     1      21.629  -1.294  54.708  1.00  0.00    -0.000 C 
HETATM    7  C15 UNL     1      22.990  -1.236  55.298  1.00  0.00     0.203 C 
HETATM    8  O3  UNL     1      23.982  -1.014  54.320  1.00  0.00    -0.345 OA
ENDROOT
BRANCH   2   9
HETATM    9  C5  UNL     1      24.461   1.771  51.824  1.00  0.00     0.043 C 
BRANCH   9  10
HETATM   10  C6  UNL     1      24.525   3.210  52.263  1.00  0.00     0.034 C 
BRANCH  10  11
HETATM   11  C7  UNL     1      24.398   4.029  50.968  1.00  0.00     0.270 C 
BRANCH  11  12
HETATM   12  N1  UNL     1      25.738   4.497  50.664  1.00  0.00     0.084 N 
HETATM   13  H9  UNL     1      26.442   4.091  51.316  1.00  0.00     0.315 HD
BRANCH  12  14
HETATM   14  C8  UNL     1      26.087   4.230  49.303  1.00  0.00     0.284 C 
BRANCH  14  15
HETATM   15  C9  UNL     1      27.070   5.236  48.798  1.00  0.00     0.169 C 
BRANCH  15  16
HETATM   16  S1  UNL     1      26.273   6.826  48.810  1.00  0.00     0.142 S 
HETATM   17  C10 UNL     1      24.633   6.721  48.125  1.00  0.00     0.161 C 
HETATM   18  O1  UNL     1      26.139   7.330  50.209  1.00  0.00    -0.228 OA
HETATM   19  O2  UNL     1      27.068   7.752  47.940  1.00  0.00    -0.228 OA
ENDBRANCH  15  16
ENDBRANCH  14  15
ENDBRANCH  12  14
ENDBRANCH  11  12
ENDBRANCH  10  11
ENDBRANCH   9  10
ENDBRANCH   2   9
BRANCH   1  20
HETATM   20  C2  UNL     1      25.697  -0.119  53.051  1.00  0.00     0.043 A 
HETATM   21  C1  UNL     1      26.357  -1.259  52.950  1.00  0.00     0.155 A 
HETATM   22 CL1  UNL     1      27.381   0.039  52.622  1.00  0.00    -0.179 Cl
ENDBRANCH   1  20
TORSDOF 8
ENDMDL
MODEL 8
REMARK VINA RESULT:      -6.1      3.535      5.843
REMARK  8 active torsions:
REMARK  status: ('A' for Active; 'I' for Inactive)
REMARK    1  A    between atoms: C2_2  and  C3_4 
REMARK    2  A    between atoms: C4_5  and  C5_6 
REMARK    3  A    between atoms: C5_6  and  C6_7 
REMARK    4  A    between atoms: C6_7  and  C7_8 
REMARK    5  A    between atoms: C7_8  and  N1_9 
REMARK    6  A    between atoms: N1_9  and  C8_10 
REMARK    7  A    between atoms: C8_10  and  C9_11 
REMARK    8  A    between atoms: C9_11  and  S1_12 
ROOT
HETATM    1  C3  UNL     1      23.904  -0.079  53.556  1.00  0.00     0.093 C 
HETATM    2  C4  UNL     1      23.588   0.657  52.504  1.00  0.00    -0.023 C 
HETATM    3  C11 UNL     1      24.428   1.546  51.714  1.00  0.00     0.010 C 
HETATM    4  C12 UNL     1      25.623   2.087  51.903  1.00  0.00     0.000 C 
HETATM    5  C13 UNL     1      26.588   1.997  53.010  1.00  0.00    -0.002 C 
HETATM    6  C14 UNL     1      26.900   1.067  53.897  1.00  0.00    -0.000 C 
HETATM    7  C15 UNL     1      26.418  -0.310  54.175  1.00  0.00     0.203 C 
HETATM    8  O3  UNL     1      25.017  -0.362  54.328  1.00  0.00    -0.345 OA
ENDROOT
BRANCH   2   9
HETATM    9  C5  UNL     1      22.207   0.632  52.019  1.00  0.00     0.043 C 
BRANCH   9  10
HETATM   10  C6  UNL     1      22.037   1.434  50.756  1.00  0.00     0.034 C 
BRANCH  10  11
HETATM   11  C7  UNL     1      20.805   2.317  51.006  1.00  0.00     0.270 C 
BRANCH  11  12
HETATM   12  N1  UNL     1      21.315   3.563  51.546  1.00  0.00     0.084 N 
HETATM   13  H9  UNL     1      22.357   3.574  51.566  1.00  0.00     0.315 HD
BRANCH  12  14
HETATM   14  C8  UNL     1      20.805   4.690  50.827  1.00  0.00     0.284 C 
BRANCH  14  15
HETATM   15  C9  UNL     1      21.568   5.929  51.169  1.00  0.00     0.169 C 
BRANCH  15  16
HETATM   16  S1  UNL     1      23.288   5.494  51.280  1.00  0.00     0.142 S 
HETATM   17  C10 UNL     1      24.322   6.935  51.122  1.00  0.00     0.161 C 
HETATM   18  O1  UNL     1      23.584   4.877  52.607  1.00  0.00    -0.228 OA
HETATM   19  O2  UNL     1      23.612   4.579  50.137  1.00  0.00    -0.228 OA
ENDBRANCH  15  16
ENDBRANCH  14  15
ENDBRANCH  12  14
ENDBRANCH  11  12
ENDBRANCH  10  11
ENDBRANCH   9  10
ENDBRANCH   2   9
BRANCH   1  20
HETATM   20  C2  UNL     1      22.764  -0.817  54.067  1.00  0.00     0.043 A 
HETATM   21  C1  UNL     1      22.720  -1.356  55.273  1.00  0.00     0.155 A 
HETATM   22 CL1  UNL     1      21.280  -1.652  54.449  1.00  0.00    -0.179 Cl
ENDBRANCH   1  20
TORSDOF 8
ENDMDL
MODEL 9
REMARK VINA RESULT:      -6.1      4.289      6.168
REMARK  8 active torsions:
REMARK  status: ('A' for Active; 'I' for Inactive)
REMARK    1  A    between atoms: C2_2  and  C3_4 
REMARK    2  A    between atoms: C4_5  and  C5_6 
REMARK    3  A    between atoms: C5_6  and  C6_7 
REMARK    4  A    between atoms: C6_7  and  C7_8 
REMARK    5  A    between atoms: C7_8  and  N1_9 
REMARK    6  A    between atoms: N1_9  and  C8_10 
REMARK    7  A    between atoms: C8_10  and  C9_11 
REMARK    8  A    between atoms: C9_11  and  S1_12 
ROOT
HETATM    1  C3  UNL     1      24.995   0.052  52.989  1.00  0.00     0.093 C 
HETATM    2  C4  UNL     1      25.091   1.316  52.616  1.00  0.00    -0.023 C 
HETATM    3  C11 UNL     1      26.280   2.109  52.340  1.00  0.00     0.010 C 
HETATM    4  C12 UNL     1      27.571   1.945  52.592  1.00  0.00     0.000 C 
HETATM    5  C13 UNL     1      28.321   0.873  53.264  1.00  0.00    -0.002 C 
HETATM    6  C14 UNL     1      28.158  -0.434  53.394  1.00  0.00    -0.000 C 
HETATM    7  C15 UNL     1      27.144  -1.409  52.919  1.00  0.00     0.203 C 
HETATM    8  O3  UNL     1      25.832  -1.018  53.256  1.00  0.00    -0.345 OA
ENDROOT
BRANCH   2   9
HETATM    9  C5  UNL     1      23.862   2.094  52.452  1.00  0.00     0.043 C 
BRANCH   9  10
HETATM   10  C6  UNL     1      24.025   3.514  52.925  1.00  0.00     0.034 C 
BRANCH  10  11
HETATM   11  C7  UNL     1      23.445   4.381  51.797  1.00  0.00     0.270 C 
BRANCH  11  12
HETATM   12  N1  UNL     1      24.552   5.180  51.304  1.00  0.00     0.084 N 
HETATM   13  H9  UNL     1      24.923   4.807  50.404  1.00  0.00     0.315 HD
BRANCH  12  14
HETATM   14  C8  UNL     1      24.184   6.557  51.174  1.00  0.00     0.284 C 
BRANCH  14  15
HETATM   15  C9  UNL     1      25.226   7.318  50.420  1.00  0.00     0.169 C 
BRANCH  15  16
HETATM   16  S1  UNL     1      25.578   6.419  48.927  1.00  0.00     0.142 S 
HETATM   17  C10 UNL     1      26.253   7.497  47.679  1.00  0.00     0.161 C 
HETATM   18  O1  UNL     1      26.590   5.353  49.187  1.00  0.00    -0.228 OA
HETATM   19  O2  UNL     1      24.288   5.869  48.398  1.00  0.00    -0.228 OA
ENDBRANCH  15  16
ENDBRANCH  14  15
ENDBRANCH  12  14
ENDBRANCH  11  12
ENDBRANCH  10  11
ENDBRANCH   9  10
ENDBRANCH   2   9
BRANCH   1  20
HETATM   20  C2  UNL     1      23.616  -0.358  53.179  1.00  0.00     0.043 A 
HETATM   21  C1  UNL     1      23.153  -0.875  54.304  1.00  0.00     0.155 A 
HETATM   22 CL1  UNL     1      21.920  -0.769  53.159  1.00  0.00    -0.179 Cl
ENDBRANCH   1  20
TORSDOF 8
ENDMDL
