MODEL 1
REMARK VINA RESULT:      -7.0      0.000      0.000
REMARK  6 active torsions:
REMARK  status: ('A' for Active; 'I' for Inactive)
REMARK    1  A    between atoms: N1_3  and  C3_4 
REMARK    2  A    between atoms: C3_4  and  C9_12 
REMARK    3  A    between atoms: C4_5  and  C6_7 
REMARK    4  A    between atoms: C6_7  and  C7_8 
REMARK    5  A    between atoms: C7_8  and  C8_9 
REMARK    6  A    between atoms: C8_9  and  O2_11 
ROOT
HETATM    1  C3  UNL     1      24.786   2.531  51.231  1.00  0.00     0.053 C 
HETATM    2  C4  UNL     1      25.112   1.451  51.975  1.00  0.00    -0.057 C 
HETATM    3  C5  UNL     1      24.087   0.825  52.831  1.00  0.00     0.045 C 
ENDROOT
BRANCH   1   4
HETATM    4  N1  UNL     1      25.911   3.018  50.449  1.00  0.00    -0.269 NA
HETATM    5  C2  UNL     1      25.800   4.128  49.769  1.00  0.00     0.085 C 
HETATM    6  C1  UNL     1      27.082   4.395  49.066  1.00  0.00     0.057 C 
ENDBRANCH   1   4
BRANCH   1   7
HETATM    7  C9  UNL     1      23.643   3.391  50.932  1.00  0.00     0.165 A 
HETATM    8  C10 UNL     1      22.989   4.016  52.110  1.00  0.00     0.236 A 
HETATM    9  O3  UNL     1      23.399   4.845  52.974  1.00  0.00    -0.272 OA
HETATM   10  N2  UNL     1      21.638   3.579  52.274  1.00  0.00    -0.326 N 
HETATM   11  C11 UNL     1      21.358   2.698  51.174  1.00  0.00     0.042 A 
HETATM   12  H14 UNL     1      20.923   3.808  53.020  1.00  0.00     0.169 HD
HETATM   13  C12 UNL     1      20.185   2.034  50.866  1.00  0.00     0.030 A 
HETATM   14  C16 UNL     1      22.486   2.605  50.386  1.00  0.00    -0.012 A 
HETATM   15  C13 UNL     1      20.167   1.258  49.725  1.00  0.00     0.002 A 
HETATM   16  C14 UNL     1      21.256   1.126  48.901  1.00  0.00     0.001 A 
HETATM   17  C15 UNL     1      22.423   1.815  49.252  1.00  0.00     0.011 A 
ENDBRANCH   1   7
BRANCH   2  18
HETATM   18  C6  UNL     1      26.462   0.874  51.932  1.00  0.00     0.046 C 
BRANCH  18  19
HETATM   19  C7  UNL     1      27.236   0.891  53.191  1.00  0.00     0.114 C 
BRANCH  19  20
HETATM   20  C8  UNL     1      28.094   2.076  53.422  1.00  0.00     0.139 C 
HETATM   21  O1  UNL     1      28.772   2.451  54.438  1.00  0.00    -0.650 OA
BRANCH  20  22
HETATM   22  O2  UNL     1      28.149   2.921  52.299  1.00  0.00    -0.776 OA
HETATM   23  H12 UNL     1      28.976   3.493  52.198  1.00  0.00     0.167 HD
ENDBRANCH  20  22
ENDBRANCH  19  20
ENDBRANCH  18  19
ENDBRANCH   2  18
TORSDOF 6
ENDMDL
MODEL 2
REMARK VINA RESULT:      -6.8      3.302      6.834
REMARK  6 active torsions:
REMARK  status: ('A' for Active; 'I' for Inactive)
REMARK    1  A    between atoms: N1_3  and  C3_4 
REMARK    2  A    between atoms: C3_4  and  C9_12 
REMARK    3  A    between atoms: C4_5  and  C6_7 
REMARK    4  A    between atoms: C6_7  and  C7_8 
REMARK    5  A    between atoms: C7_8  and  C8_9 
REMARK    6  A    between atoms: C8_9  and  O2_11 
ROOT
HETATM    1  C3  UNL     1      25.060   0.041  52.642  1.00  0.00     0.053 C 
HETATM    2  C4  UNL     1      24.315  -0.179  53.748  1.00  0.00    -0.057 C 
HETATM    3  C5  UNL     1      24.907  -0.902  54.888  1.00  0.00     0.045 C 
ENDROOT
BRANCH   1   4
HETATM    4  N1  UNL     1      24.323   0.766  51.620  1.00  0.00    -0.269 NA
HETATM    5  C2  UNL     1      24.480   2.057  51.495  1.00  0.00     0.085 C 
HETATM    6  C1  UNL     1      23.620   2.544  50.386  1.00  0.00     0.057 C 
ENDBRANCH   1   4
BRANCH   1   7
HETATM    7  C9  UNL     1      26.403  -0.205  52.119  1.00  0.00     0.165 A 
HETATM    8  C10 UNL     1      26.925  -1.580  52.323  1.00  0.00     0.236 A 
HETATM    9  O3  UNL     1      26.544  -2.710  51.899  1.00  0.00    -0.272 OA
HETATM   10  N2  UNL     1      28.081  -1.601  53.163  1.00  0.00    -0.326 N 
HETATM   11  C11 UNL     1      28.376  -0.231  53.485  1.00  0.00     0.042 A 
HETATM   12  H14 UNL     1      28.663  -2.410  53.520  1.00  0.00     0.169 HD
HETATM   13  C12 UNL     1      29.409   0.281  54.249  1.00  0.00     0.030 A 
HETATM   14  C16 UNL     1      27.440   0.575  52.872  1.00  0.00    -0.012 A 
HETATM   15  C13 UNL     1      29.485   1.652  54.386  1.00  0.00     0.002 A 
HETATM   16  C14 UNL     1      28.586   2.507  53.802  1.00  0.00     0.001 A 
HETATM   17  C15 UNL     1      27.556   1.944  53.038  1.00  0.00     0.011 A 
ENDBRANCH   1   7
BRANCH   2  18
HETATM   18  C6  UNL     1      22.933   0.308  53.846  1.00  0.00     0.046 C 
BRANCH  18  19
HETATM   19  C7  UNL     1      21.949  -0.596  54.479  1.00  0.00     0.114 C 
BRANCH  19  20
HETATM   20  C8  UNL     1      20.612  -0.662  53.847  1.00  0.00     0.139 C 
HETATM   21  O1  UNL     1      20.024   0.112  53.018  1.00  0.00    -0.650 OA
BRANCH  20  22
HETATM   22  O2  UNL     1      19.884  -1.795  54.253  1.00  0.00    -0.776 OA
HETATM   23  H12 UNL     1      19.079  -2.044  53.698  1.00  0.00     0.167 HD
ENDBRANCH  20  22
ENDBRANCH  19  20
ENDBRANCH  18  19
ENDBRANCH   2  18
TORSDOF 6
ENDMDL
MODEL 3
REMARK VINA RESULT:      -6.5      2.680      6.433
REMARK  6 active torsions:
REMARK  status: ('A' for Active; 'I' for Inactive)
REMARK    1  A    between atoms: N1_3  and  C3_4 
REMARK    2  A    between atoms: C3_4  and  C9_12 
REMARK    3  A    between atoms: C4_5  and  C6_7 
REMARK    4  A    between atoms: C6_7  and  C7_8 
REMARK    5  A    between atoms: C7_8  and  C8_9 
REMARK    6  A    between atoms: C8_9  and  O2_11 
ROOT
HETATM    1  C3  UNL     1      22.783   1.040  52.077  1.00  0.00     0.053 C 
HETATM    2  C4  UNL     1      22.444   1.317  50.799  1.00  0.00    -0.057 C 
HETATM    3  C5  UNL     1      23.159   2.383  50.074  1.00  0.00     0.045 C 
ENDROOT
BRANCH   1   4
HETATM    4  N1  UNL     1      21.981  -0.035  52.638  1.00  0.00    -0.269 NA
HETATM    5  C2  UNL     1      21.613   0.010  53.891  1.00  0.00     0.085 C 
HETATM    6  C1  UNL     1      20.811  -1.200  54.203  1.00  0.00     0.057 C 
ENDBRANCH   1   4
BRANCH   1   7
HETATM    7  C9  UNL     1      23.724   1.466  53.112  1.00  0.00     0.165 A 
HETATM    8  C10 UNL     1      24.224   2.859  52.985  1.00  0.00     0.236 A 
HETATM    9  O3  UNL     1      23.645   3.983  53.036  1.00  0.00    -0.272 OA
HETATM   10  N2  UNL     1      25.635   2.909  52.764  1.00  0.00    -0.326 N 
HETATM   11  C11 UNL     1      26.101   1.549  52.795  1.00  0.00     0.042 A 
HETATM   12  H14 UNL     1      26.282   3.730  52.602  1.00  0.00     0.169 HD
HETATM   13  C12 UNL     1      27.389   1.065  52.656  1.00  0.00     0.030 A 
HETATM   14  C16 UNL     1      25.022   0.720  53.021  1.00  0.00    -0.012 A 
HETATM   15  C13 UNL     1      27.576  -0.298  52.752  1.00  0.00     0.002 A 
HETATM   16  C14 UNL     1      26.545  -1.175  52.975  1.00  0.00     0.001 A 
HETATM   17  C15 UNL     1      25.257  -0.641  53.109  1.00  0.00     0.011 A 
ENDBRANCH   1   7
BRANCH   2  18
HETATM   18  C6  UNL     1      21.390   0.561  50.109  1.00  0.00     0.046 C 
BRANCH  18  19
HETATM   19  C7  UNL     1      20.118   1.270  49.853  1.00  0.00     0.114 C 
BRANCH  19  20
HETATM   20  C8  UNL     1      19.104   1.214  50.931  1.00  0.00     0.139 C 
HETATM   21  O1  UNL     1      18.352   2.114  51.438  1.00  0.00    -0.650 OA
BRANCH  20  22
HETATM   22  O2  UNL     1      18.970  -0.077  51.472  1.00  0.00    -0.776 OA
HETATM   23  H12 UNL     1      19.359  -0.230  52.392  1.00  0.00     0.167 HD
ENDBRANCH  20  22
ENDBRANCH  19  20
ENDBRANCH  18  19
ENDBRANCH   2  18
TORSDOF 6
ENDMDL
MODEL 4
REMARK VINA RESULT:      -6.2      2.410      4.323
REMARK  6 active torsions:
REMARK  status: ('A' for Active; 'I' for Inactive)
REMARK    1  A    between atoms: N1_3  and  C3_4 
REMARK    2  A    between atoms: C3_4  and  C9_12 
REMARK    3  A    between atoms: C4_5  and  C6_7 
REMARK    4  A    between atoms: C6_7  and  C7_8 
REMARK    5  A    between atoms: C7_8  and  C8_9 
REMARK    6  A    between atoms: C8_9  and  O2_11 
ROOT
HETATM    1  C3  UNL     1      23.483   0.917  52.667  1.00  0.00     0.053 C 
HETATM    2  C4  UNL     1      24.810   0.669  52.644  1.00  0.00    -0.057 C 
HETATM    3  C5  UNL     1      25.662   1.369  51.665  1.00  0.00     0.045 C 
ENDROOT
BRANCH   1   4
HETATM    4  N1  UNL     1      22.798   0.145  53.691  1.00  0.00    -0.269 NA
HETATM    5  C2  UNL     1      22.059  -0.878  53.351  1.00  0.00     0.085 C 
HETATM    6  C1  UNL     1      21.479  -1.484  54.577  1.00  0.00     0.057 C 
ENDBRANCH   1   4
BRANCH   1   7
HETATM    7  C9  UNL     1      22.476   1.736  51.993  1.00  0.00     0.165 A 
HETATM    8  C10 UNL     1      22.165   1.342  50.595  1.00  0.00     0.236 A 
HETATM    9  O3  UNL     1      21.661   0.294  50.095  1.00  0.00    -0.272 OA
HETATM   10  N2  UNL     1      22.511   2.362  49.655  1.00  0.00    -0.326 N 
HETATM   11  C11 UNL     1      23.009   3.471  50.423  1.00  0.00     0.042 A 
HETATM   12  H14 UNL     1      22.447   2.381  48.599  1.00  0.00     0.169 HD
HETATM   13  C12 UNL     1      23.450   4.706  49.984  1.00  0.00     0.030 A 
HETATM   14  C16 UNL     1      22.967   3.135  51.760  1.00  0.00    -0.012 A 
HETATM   15  C13 UNL     1      23.857   5.617  50.937  1.00  0.00     0.002 A 
HETATM   16  C14 UNL     1      23.839   5.343  52.281  1.00  0.00     0.001 A 
HETATM   17  C15 UNL     1      23.385   4.080  52.680  1.00  0.00     0.011 A 
ENDBRANCH   1   7
BRANCH   2  18
HETATM   18  C6  UNL     1      25.428  -0.269  53.590  1.00  0.00     0.046 C 
BRANCH  18  19
HETATM   19  C7  UNL     1      26.197   0.319  54.708  1.00  0.00     0.114 C 
BRANCH  19  20
HETATM   20  C8  UNL     1      27.670   0.185  54.637  1.00  0.00     0.139 C 
HETATM   21  O1  UNL     1      28.614   0.938  55.054  1.00  0.00    -0.650 OA
BRANCH  20  22
HETATM   22  O2  UNL     1      28.068  -0.997  53.987  1.00  0.00    -0.776 OA
HETATM   23  H12 UNL     1      28.497  -0.896  53.078  1.00  0.00     0.167 HD
ENDBRANCH  20  22
ENDBRANCH  19  20
ENDBRANCH  18  19
ENDBRANCH   2  18
TORSDOF 6
ENDMDL
MODEL 5
REMARK VINA RESULT:      -6.1      2.660      5.416
REMARK  6 active torsions:
REMARK  status: ('A' for Active; 'I' for Inactive)
REMARK    1  A    between atoms: N1_3  and  C3_4 
REMARK    2  A    between atoms: C3_4  and  C9_12 
REMARK    3  A    between atoms: C4_5  and  C6_7 
REMARK    4  A    between atoms: C6_7  and  C7_8 
REMARK    5  A    between atoms: C7_8  and  C8_9 
REMARK    6  A    between atoms: C8_9  and  O2_11 
ROOT
HETATM    1  C3  UNL     1      23.506   1.836  51.564  1.00  0.00     0.053 C 
HETATM    2  C4  UNL     1      23.609   3.117  51.978  1.00  0.00    -0.057 C 
HETATM    3  C5  UNL     1      24.169   3.406  53.311  1.00  0.00     0.045 C 
ENDROOT
BRANCH   1   4
HETATM    4  N1  UNL     1      22.936   1.734  50.230  1.00  0.00    -0.269 NA
HETATM    5  C2  UNL     1      21.777   1.156  50.059  1.00  0.00     0.085 C 
HETATM    6  C1  UNL     1      21.430   1.186  48.615  1.00  0.00     0.057 C 
ENDBRANCH   1   4
BRANCH   1   7
HETATM    7  C9  UNL     1      23.796   0.476  52.019  1.00  0.00     0.165 A 
HETATM    8  C10 UNL     1      22.986   0.003  53.170  1.00  0.00     0.236 A 
HETATM    9  O3  UNL     1      21.746  -0.203  53.315  1.00  0.00    -0.272 OA
HETATM   10  N2  UNL     1      23.788  -0.265  54.323  1.00  0.00    -0.326 N 
HETATM   11  C11 UNL     1      25.152  -0.023  53.935  1.00  0.00     0.042 A 
HETATM   12  H14 UNL     1      23.519  -0.579  55.296  1.00  0.00     0.169 HD
HETATM   13  C12 UNL     1      26.307  -0.161  54.681  1.00  0.00     0.030 A 
HETATM   14  C16 UNL     1      25.169   0.373  52.614  1.00  0.00    -0.012 A 
HETATM   15  C13 UNL     1      27.509   0.112  54.060  1.00  0.00     0.002 A 
HETATM   16  C14 UNL     1      27.593   0.510  52.750  1.00  0.00     0.001 A 
HETATM   17  C15 UNL     1      26.397   0.638  52.032  1.00  0.00     0.011 A 
ENDBRANCH   1   7
BRANCH   2  18
HETATM   18  C6  UNL     1      23.194   4.233  51.117  1.00  0.00     0.046 C 
BRANCH  18  19
HETATM   19  C7  UNL     1      23.252   5.588  51.705  1.00  0.00     0.114 C 
BRANCH  19  20
HETATM   20  C8  UNL     1      24.269   6.507  51.146  1.00  0.00     0.139 C 
HETATM   21  O1  UNL     1      25.273   6.301  50.383  1.00  0.00    -0.650 OA
BRANCH  20  22
HETATM   22  O2  UNL     1      24.064   7.839  51.546  1.00  0.00    -0.776 OA
HETATM   23  H12 UNL     1      24.378   8.560  50.914  1.00  0.00     0.167 HD
ENDBRANCH  20  22
ENDBRANCH  19  20
ENDBRANCH  18  19
ENDBRANCH   2  18
TORSDOF 6
ENDMDL
MODEL 6
REMARK VINA RESULT:      -6.1      2.612      4.243
REMARK  6 active torsions:
REMARK  status: ('A' for Active; 'I' for Inactive)
REMARK    1  A    between atoms: N1_3  and  C3_4 
REMARK    2  A    between atoms: C3_4  and  C9_12 
REMARK    3  A    between atoms: C4_5  and  C6_7 
REMARK    4  A    between atoms: C6_7  and  C7_8 
REMARK    5  A    between atoms: C7_8  and  C8_9 
REMARK    6  A    between atoms: C8_9  and  O2_11 
ROOT
HETATM    1  C3  UNL     1      23.135   2.653  51.330  1.00  0.00     0.053 C 
HETATM    2  C4  UNL     1      22.662   3.830  51.796  1.00  0.00    -0.057 C 
HETATM    3  C5  UNL     1      21.207   4.012  51.958  1.00  0.00     0.045 C 
ENDROOT
BRANCH   1   4
HETATM    4  N1  UNL     1      24.586   2.645  51.234  1.00  0.00    -0.269 NA
HETATM    5  C2  UNL     1      25.270   1.669  51.768  1.00  0.00     0.085 C 
HETATM    6  C1  UNL     1      26.717   1.903  51.528  1.00  0.00     0.057 C 
ENDBRANCH   1   4
BRANCH   1   7
HETATM    7  C9  UNL     1      22.662   1.342  50.888  1.00  0.00     0.165 A 
HETATM    8  C10 UNL     1      21.773   1.352  49.699  1.00  0.00     0.236 A 
HETATM    9  O3  UNL     1      21.959   1.700  48.496  1.00  0.00    -0.272 OA
HETATM   10  N2  UNL     1      20.462   0.870  49.999  1.00  0.00    -0.326 N 
HETATM   11  C11 UNL     1      20.478   0.482  51.384  1.00  0.00     0.042 A 
HETATM   12  H14 UNL     1      19.600   0.781  49.391  1.00  0.00     0.169 HD
HETATM   13  C12 UNL     1      19.463  -0.067  52.146  1.00  0.00     0.030 A 
HETATM   14  C16 UNL     1      21.737   0.721  51.893  1.00  0.00    -0.012 A 
HETATM   15  C13 UNL     1      19.745  -0.378  53.460  1.00  0.00     0.002 A 
HETATM   16  C14 UNL     1      20.977  -0.164  54.026  1.00  0.00     0.001 A 
HETATM   17  C15 UNL     1      21.974   0.394  53.217  1.00  0.00     0.011 A 
ENDBRANCH   1   7
BRANCH   2  18
HETATM   18  C6  UNL     1      23.568   4.925  52.165  1.00  0.00     0.046 C 
BRANCH  18  19
HETATM   19  C7  UNL     1      23.629   6.081  51.245  1.00  0.00     0.114 C 
BRANCH  19  20
HETATM   20  C8  UNL     1      24.957   6.399  50.673  1.00  0.00     0.139 C 
HETATM   21  O1  UNL     1      25.493   7.507  50.330  1.00  0.00    -0.650 OA
BRANCH  20  22
HETATM   22  O2  UNL     1      25.746   5.250  50.486  1.00  0.00    -0.776 OA
HETATM   23  H12 UNL     1      25.615   4.493  51.141  1.00  0.00     0.167 HD
ENDBRANCH  20  22
ENDBRANCH  19  20
ENDBRANCH  18  19
ENDBRANCH   2  18
TORSDOF 6
ENDMDL
MODEL 7
REMARK VINA RESULT:      -6.1      2.814      3.916
REMARK  6 active torsions:
REMARK  status: ('A' for Active; 'I' for Inactive)
REMARK    1  A    between atoms: N1_3  and  C3_4 
REMARK    2  A    between atoms: C3_4  and  C9_12 
REMARK    3  A    between atoms: C4_5  and  C6_7 
REMARK    4  A    between atoms: C6_7  and  C7_8 
REMARK    5  A    between atoms: C7_8  and  C8_9 
REMARK    6  A    between atoms: C8_9  and  O2_11 
ROOT
HETATM    1  C3  UNL     1      23.315   2.194  51.901  1.00  0.00     0.053 C 
HETATM    2  C4  UNL     1      22.158   1.595  52.258  1.00  0.00    -0.057 C 
HETATM    3  C5  UNL     1      20.932   2.405  52.386  1.00  0.00     0.045 C 
ENDROOT
BRANCH   1   4
HETATM    4  N1  UNL     1      24.419   1.251  51.822  1.00  0.00    -0.269 NA
HETATM    5  C2  UNL     1      25.641   1.657  52.044  1.00  0.00     0.085 C 
HETATM    6  C1  UNL     1      26.567   0.505  51.900  1.00  0.00     0.057 C 
ENDBRANCH   1   4
BRANCH   1   7
HETATM    7  C9  UNL     1      23.841   3.511  51.546  1.00  0.00     0.165 A 
HETATM    8  C10 UNL     1      23.484   4.613  52.476  1.00  0.00     0.236 A 
HETATM    9  O3  UNL     1      23.753   4.824  53.694  1.00  0.00    -0.272 OA
HETATM   10  N2  UNL     1      22.681   5.614  51.846  1.00  0.00    -0.326 N 
HETATM   11  C11 UNL     1      22.539   5.216  50.471  1.00  0.00     0.042 A 
HETATM   12  H14 UNL     1      22.242   6.495  52.234  1.00  0.00     0.169 HD
HETATM   13  C12 UNL     1      21.875   5.859  49.443  1.00  0.00     0.030 A 
HETATM   14  C16 UNL     1      23.221   4.033  50.283  1.00  0.00    -0.012 A 
HETATM   15  C13 UNL     1      21.910   5.276  48.193  1.00  0.00     0.002 A 
HETATM   16  C14 UNL     1      22.570   4.100  47.942  1.00  0.00     0.001 A 
HETATM   17  C15 UNL     1      23.229   3.483  49.013  1.00  0.00     0.011 A 
ENDBRANCH   1   7
BRANCH   2  18
HETATM   18  C6  UNL     1      22.091   0.149  52.501  1.00  0.00     0.046 C 
BRANCH  18  19
HETATM   19  C7  UNL     1      21.712  -0.284  53.863  1.00  0.00     0.114 C 
BRANCH  19  20
HETATM   20  C8  UNL     1      22.753  -0.992  54.643  1.00  0.00     0.139 C 
HETATM   21  O1  UNL     1      22.679  -1.755  55.665  1.00  0.00    -0.650 OA
BRANCH  20  22
HETATM   22  O2  UNL     1      24.046  -0.762  54.140  1.00  0.00    -0.776 OA
HETATM   23  H12 UNL     1      24.749  -1.455  54.352  1.00  0.00     0.167 HD
ENDBRANCH  20  22
ENDBRANCH  19  20
ENDBRANCH  18  19
ENDBRANCH   2  18
TORSDOF 6
ENDMDL
MODEL 8
REMARK VINA RESULT:      -6.1      2.763      6.183
REMARK  6 active torsions:
REMARK  status: ('A' for Active; 'I' for Inactive)
REMARK    1  A    between atoms: N1_3  and  C3_4 
REMARK    2  A    between atoms: C3_4  and  C9_12 
REMARK    3  A    between atoms: C4_5  and  C6_7 
REMARK    4  A    between atoms: C6_7  and  C7_8 
REMARK    5  A    between atoms: C7_8  and  C8_9 
REMARK    6  A    between atoms: C8_9  and  O2_11 
ROOT
HETATM    1  C3  UNL     1      22.205   2.424  50.618  1.00  0.00     0.053 C 
HETATM    2  C4  UNL     1      22.870   2.527  49.447  1.00  0.00    -0.057 C 
HETATM    3  C5  UNL     1      24.228   3.103  49.433  1.00  0.00     0.045 C 
ENDROOT
BRANCH   1   4
HETATM    4  N1  UNL     1      20.886   1.835  50.449  1.00  0.00    -0.269 NA
HETATM    5  C2  UNL     1      20.438   0.977  51.326  1.00  0.00     0.085 C 
HETATM    6  C1  UNL     1      19.080   0.534  50.920  1.00  0.00     0.057 C 
ENDBRANCH   1   4
BRANCH   1   7
HETATM    7  C9  UNL     1      22.377   2.705  52.042  1.00  0.00     0.165 A 
HETATM    8  C10 UNL     1      22.767   4.099  52.375  1.00  0.00     0.236 A 
HETATM    9  O3  UNL     1      22.182   5.211  52.217  1.00  0.00    -0.272 OA
HETATM   10  N2  UNL     1      24.055   4.169  52.991  1.00  0.00    -0.326 N 
HETATM   11  C11 UNL     1      24.515   2.814  53.125  1.00  0.00     0.042 A 
HETATM   12  H14 UNL     1      24.624   5.001  53.314  1.00  0.00     0.169 HD
HETATM   13  C12 UNL     1      25.692   2.345  53.681  1.00  0.00     0.030 A 
HETATM   14  C16 UNL     1      23.554   1.969  52.613  1.00  0.00    -0.012 A 
HETATM   15  C13 UNL     1      25.887   0.979  53.712  1.00  0.00     0.002 A 
HETATM   16  C14 UNL     1      24.969   0.088  53.218  1.00  0.00     0.001 A 
HETATM   17  C15 UNL     1      23.792   0.607  52.664  1.00  0.00     0.011 A 
ENDBRANCH   1   7
BRANCH   2  18
HETATM   18  C6  UNL     1      22.278   2.056  48.188  1.00  0.00     0.046 C 
BRANCH  18  19
HETATM   19  C7  UNL     1      21.814   3.091  47.240  1.00  0.00     0.114 C 
BRANCH  19  20
HETATM   20  C8  UNL     1      20.348   3.216  47.067  1.00  0.00     0.139 C 
HETATM   21  O1  UNL     1      19.641   3.994  46.341  1.00  0.00    -0.650 OA
BRANCH  20  22
HETATM   22  O2  UNL     1      19.636   2.298  47.859  1.00  0.00    -0.776 OA
HETATM   23  H12 UNL     1      19.977   1.347  47.874  1.00  0.00     0.167 HD
ENDBRANCH  20  22
ENDBRANCH  19  20
ENDBRANCH  18  19
ENDBRANCH   2  18
TORSDOF 6
ENDMDL
MODEL 9
REMARK VINA RESULT:      -6.0      2.875      6.100
REMARK  6 active torsions:
REMARK  status: ('A' for Active; 'I' for Inactive)
REMARK    1  A    between atoms: N1_3  and  C3_4 
REMARK    2  A    between atoms: C3_4  and  C9_12 
REMARK    3  A    between atoms: C4_5  and  C6_7 
REMARK    4  A    between atoms: C6_7  and  C7_8 
REMARK    5  A    between atoms: C7_8  and  C8_9 
REMARK    6  A    between atoms: C8_9  and  O2_11 
ROOT
HETATM    1  C3  UNL     1      23.810   3.574  49.798  1.00  0.00     0.053 C 
HETATM    2  C4  UNL     1      23.047   3.439  48.692  1.00  0.00    -0.057 C 
HETATM    3  C5  UNL     1      22.804   4.612  47.832  1.00  0.00     0.045 C 
ENDROOT
BRANCH   1   4
HETATM    4  N1  UNL     1      23.946   2.322  50.526  1.00  0.00    -0.269 NA
HETATM    5  C2  UNL     1      24.100   2.335  51.823  1.00  0.00     0.085 C 
HETATM    6  C1  UNL     1      24.214   0.937  52.311  1.00  0.00     0.057 C 
ENDBRANCH   1   4
BRANCH   1   7
HETATM    7  C9  UNL     1      24.576   4.585  50.525  1.00  0.00     0.165 A 
HETATM    8  C10 UNL     1      23.893   5.892  50.709  1.00  0.00     0.236 A 
HETATM    9  O3  UNL     1      22.843   6.227  51.331  1.00  0.00    -0.272 OA
HETATM   10  N2  UNL     1      24.577   6.957  50.045  1.00  0.00    -0.326 N 
HETATM   11  C11 UNL     1      25.754   6.381  49.455  1.00  0.00     0.042 A 
HETATM   12  H14 UNL     1      24.337   7.984  49.958  1.00  0.00     0.169 HD
HETATM   13  C12 UNL     1      26.755   6.999  48.727  1.00  0.00     0.030 A 
HETATM   14  C16 UNL     1      25.777   5.034  49.746  1.00  0.00    -0.012 A 
HETATM   15  C13 UNL     1      27.804   6.217  48.288  1.00  0.00     0.002 A 
HETATM   16  C14 UNL     1      27.885   4.872  48.545  1.00  0.00     0.001 A 
HETATM   17  C15 UNL     1      26.849   4.289  49.285  1.00  0.00     0.011 A 
ENDBRANCH   1   7
BRANCH   2  18
HETATM   18  C6  UNL     1      22.472   2.142  48.314  1.00  0.00     0.046 C 
BRANCH  18  19
HETATM   19  C7  UNL     1      20.999   2.027  48.350  1.00  0.00     0.114 C 
BRANCH  19  20
HETATM   20  C8  UNL     1      20.427   1.230  49.459  1.00  0.00     0.139 C 
HETATM   21  O1  UNL     1      19.224   1.064  49.856  1.00  0.00    -0.650 OA
BRANCH  20  22
HETATM   22  O2  UNL     1      21.414   0.542  50.187  1.00  0.00    -0.776 OA
HETATM   23  H12 UNL     1      22.243   1.062  50.438  1.00  0.00     0.167 HD
ENDBRANCH  20  22
ENDBRANCH  19  20
ENDBRANCH  18  19
ENDBRANCH   2  18
TORSDOF 6
ENDMDL
