MODEL 1
REMARK VINA RESULT:      -6.4      0.000      0.000
REMARK  11 active torsions:
REMARK  status: ('A' for Active; 'I' for Inactive)
REMARK    1  A    between atoms: C2_2  and  N1_3 
REMARK    2  A    between atoms: N1_3  and  C4_5 
REMARK    3  A    between atoms: C4_5  and  C5_6 
REMARK    4  A    between atoms: C5_6  and  C7_8 
REMARK    5  A    between atoms: C7_8  and  C18_20 
REMARK    6  A    between atoms: C8_9  and  C9_10 
REMARK    7  A    between atoms: C9_10  and  C10_11 
REMARK    8  A    between atoms: C10_11  and  O1_12 
REMARK    9  A    between atoms: O1_12  and  C11_13 
REMARK   10  A    between atoms: C11_13  and  C12_14 
REMARK   11  A    between atoms: C18_20  and  O2_21 
ROOT
HETATM    1  C7  UNL     1      25.467   2.600  52.163  1.00  0.00    -0.051 C 
HETATM    2  C8  UNL     1      24.392   3.004  52.868  1.00  0.00     0.007 C 
ENDROOT
BRANCH   1   3
HETATM    3  C5  UNL     1      26.435   1.550  52.605  1.00  0.00     0.041 C 
HETATM    4  C6  UNL     1      26.130   0.272  51.886  1.00  0.00     0.016 C 
BRANCH   3   5
HETATM    5  C4  UNL     1      26.739   1.510  54.034  1.00  0.00     0.280 C 
BRANCH   5   6
HETATM    6  N1  UNL     1      27.966   1.289  54.610  1.00  0.00     0.084 NA
HETATM    7  C3  UNL     1      28.981   2.190  53.973  1.00  0.00     0.309 C 
BRANCH   6   8
HETATM    8  C2  UNL     1      28.647   0.106  54.813  1.00  0.00     0.267 C 
HETATM    9  C1  UNL     1      29.513  -0.541  53.822  1.00  0.00     0.037 C 
ENDBRANCH   6   8
ENDBRANCH   5   6
ENDBRANCH   3   5
ENDBRANCH   1   3
BRANCH   1  10
HETATM   10  C18 UNL     1      25.695   3.243  50.843  1.00  0.00     0.198 C 
BRANCH  10  11
HETATM   11  O2  UNL     1      27.045   3.605  50.704  1.00  0.00    -0.397 OA
HETATM   12  H27 UNL     1      27.203   4.574  50.873  1.00  0.00     0.209 HD
ENDBRANCH  10  11
ENDBRANCH   1  10
BRANCH   2  13
HETATM   13  C9  UNL     1      23.485   4.034  52.387  1.00  0.00     0.024 C 
BRANCH  13  14
HETATM   14  C10 UNL     1      22.228   3.721  52.175  1.00  0.00     0.135 C 
BRANCH  14  15
HETATM   15  O1  UNL     1      21.044   3.068  51.886  1.00  0.00    -0.359 OA
BRANCH  15  16
HETATM   16  C11 UNL     1      21.018   1.707  51.475  1.00  0.00     0.213 C 
BRANCH  16  17
HETATM   17  C12 UNL     1      21.452   0.803  52.542  1.00  0.00    -0.034 A 
HETATM   18  C13 UNL     1      22.554  -0.054  52.479  1.00  0.00     0.009 A 
HETATM   19  C14 UNL     1      22.928  -0.894  53.526  1.00  0.00     0.001 A 
HETATM   20  C15 UNL     1      22.176  -0.888  54.696  1.00  0.00     0.000 A 
HETATM   21  C16 UNL     1      21.070  -0.062  54.826  1.00  0.00     0.001 A 
HETATM   22  C17 UNL     1      20.761   0.737  53.757  1.00  0.00     0.009 A 
ENDBRANCH  16  17
ENDBRANCH  15  16
ENDBRANCH  14  15
ENDBRANCH  13  14
ENDBRANCH   2  13
TORSDOF 11
ENDMDL
MODEL 2
REMARK VINA RESULT:      -6.1      2.514      4.013
REMARK  11 active torsions:
REMARK  status: ('A' for Active; 'I' for Inactive)
REMARK    1  A    between atoms: C2_2  and  N1_3 
REMARK    2  A    between atoms: N1_3  and  C4_5 
REMARK    3  A    between atoms: C4_5  and  C5_6 
REMARK    4  A    between atoms: C5_6  and  C7_8 
REMARK    5  A    between atoms: C7_8  and  C18_20 
REMARK    6  A    between atoms: C8_9  and  C9_10 
REMARK    7  A    between atoms: C9_10  and  C10_11 
REMARK    8  A    between atoms: C10_11  and  O1_12 
REMARK    9  A    between atoms: O1_12  and  C11_13 
REMARK   10  A    between atoms: C11_13  and  C12_14 
REMARK   11  A    between atoms: C18_20  and  O2_21 
ROOT
HETATM    1  C7  UNL     1      24.010  -0.738  54.341  1.00  0.00    -0.051 C 
HETATM    2  C8  UNL     1      22.915  -0.937  53.579  1.00  0.00     0.007 C 
ENDROOT
BRANCH   1   3
HETATM    3  C5  UNL     1      25.205   0.059  53.929  1.00  0.00     0.041 C 
HETATM    4  C6  UNL     1      24.746   1.320  53.264  1.00  0.00     0.016 C 
BRANCH   3   5
HETATM    5  C4  UNL     1      26.315  -0.693  53.345  1.00  0.00     0.280 C 
BRANCH   5   6
HETATM    6  N1  UNL     1      27.530  -0.955  53.928  1.00  0.00     0.084 NA
HETATM    7  C3  UNL     1      27.943   0.221  54.761  1.00  0.00     0.309 C 
BRANCH   6   8
HETATM    8  C2  UNL     1      28.708  -1.393  53.358  1.00  0.00     0.267 C 
HETATM    9  C1  UNL     1      30.000  -0.710  53.479  1.00  0.00     0.037 C 
ENDBRANCH   6   8
ENDBRANCH   5   6
ENDBRANCH   3   5
ENDBRANCH   1   3
BRANCH   1  10
HETATM   10  C18 UNL     1      24.015  -1.351  55.694  1.00  0.00     0.198 C 
BRANCH  10  11
HETATM   11  O2  UNL     1      25.276  -1.193  56.294  1.00  0.00    -0.397 OA
HETATM   12  H27 UNL     1      25.934  -1.879  55.993  1.00  0.00     0.209 HD
ENDBRANCH  10  11
ENDBRANCH   1  10
BRANCH   2  13
HETATM   13  C9  UNL     1      21.781  -1.726  54.033  1.00  0.00     0.024 C 
BRANCH  13  14
HETATM   14  C10 UNL     1      20.575  -1.222  53.916  1.00  0.00     0.135 C 
BRANCH  14  15
HETATM   15  O1  UNL     1      19.478  -0.438  53.611  1.00  0.00    -0.359 OA
BRANCH  15  16
HETATM   16  C11 UNL     1      19.223   0.014  52.287  1.00  0.00     0.213 C 
BRANCH  16  17
HETATM   17  C12 UNL     1      20.312   0.844  51.771  1.00  0.00    -0.034 A 
HETATM   18  C13 UNL     1      21.126   0.527  50.680  1.00  0.00     0.009 A 
HETATM   19  C14 UNL     1      22.151   1.355  50.226  1.00  0.00     0.001 A 
HETATM   20  C15 UNL     1      22.385   2.559  50.881  1.00  0.00     0.000 A 
HETATM   21  C16 UNL     1      21.615   2.937  51.971  1.00  0.00     0.001 A 
HETATM   22  C17 UNL     1      20.626   2.074  52.363  1.00  0.00     0.009 A 
ENDBRANCH  16  17
ENDBRANCH  15  16
ENDBRANCH  14  15
ENDBRANCH  13  14
ENDBRANCH   2  13
TORSDOF 11
ENDMDL
MODEL 3
REMARK VINA RESULT:      -5.9      2.235      3.853
REMARK  11 active torsions:
REMARK  status: ('A' for Active; 'I' for Inactive)
REMARK    1  A    between atoms: C2_2  and  N1_3 
REMARK    2  A    between atoms: N1_3  and  C4_5 
REMARK    3  A    between atoms: C4_5  and  C5_6 
REMARK    4  A    between atoms: C5_6  and  C7_8 
REMARK    5  A    between atoms: C7_8  and  C18_20 
REMARK    6  A    between atoms: C8_9  and  C9_10 
REMARK    7  A    between atoms: C9_10  and  C10_11 
REMARK    8  A    between atoms: C10_11  and  O1_12 
REMARK    9  A    between atoms: O1_12  and  C11_13 
REMARK   10  A    between atoms: C11_13  and  C12_14 
REMARK   11  A    between atoms: C18_20  and  O2_21 
ROOT
HETATM    1  C7  UNL     1      25.698   1.243  52.454  1.00  0.00    -0.051 C 
HETATM    2  C8  UNL     1      26.269   1.537  51.268  1.00  0.00     0.007 C 
ENDROOT
BRANCH   1   3
HETATM    3  C5  UNL     1      25.195  -0.108  52.849  1.00  0.00     0.041 C 
HETATM    4  C6  UNL     1      23.844   0.039  53.478  1.00  0.00     0.016 C 
BRANCH   3   5
HETATM    5  C4  UNL     1      26.172  -1.010  53.457  1.00  0.00     0.280 C 
BRANCH   5   6
HETATM    6  N1  UNL     1      27.517  -1.069  53.193  1.00  0.00     0.084 NA
HETATM    7  C3  UNL     1      27.894  -2.481  52.861  1.00  0.00     0.309 C 
BRANCH   6   8
HETATM    8  C2  UNL     1      28.585  -0.600  53.931  1.00  0.00     0.267 C 
HETATM    9  C1  UNL     1      29.993  -0.732  53.543  1.00  0.00     0.037 C 
ENDBRANCH   6   8
ENDBRANCH   5   6
ENDBRANCH   3   5
ENDBRANCH   1   3
BRANCH   1  10
HETATM   10  C18 UNL     1      25.572   2.347  53.439  1.00  0.00     0.198 C 
BRANCH  10  11
HETATM   11  O2  UNL     1      26.763   2.482  54.174  1.00  0.00    -0.397 OA
HETATM   12  H27 UNL     1      27.447   1.802  53.926  1.00  0.00     0.209 HD
ENDBRANCH  10  11
ENDBRANCH   1  10
BRANCH   2  13
HETATM   13  C9  UNL     1      26.738   2.873  50.938  1.00  0.00     0.024 C 
BRANCH  13  14
HETATM   14  C10 UNL     1      26.150   3.525  49.962  1.00  0.00     0.135 C 
BRANCH  14  15
HETATM   15  O1  UNL     1      25.250   4.196  49.155  1.00  0.00    -0.359 OA
BRANCH  15  16
HETATM   16  C11 UNL     1      23.903   4.419  49.556  1.00  0.00     0.213 C 
BRANCH  16  17
HETATM   17  C12 UNL     1      23.091   3.207  49.444  1.00  0.00    -0.034 A 
HETATM   18  C13 UNL     1      22.628   2.649  48.249  1.00  0.00     0.009 A 
HETATM   19  C14 UNL     1      21.858   1.489  48.197  1.00  0.00     0.001 A 
HETATM   20  C15 UNL     1      21.528   0.844  49.384  1.00  0.00     0.000 A 
HETATM   21  C16 UNL     1      21.954   1.343  50.606  1.00  0.00     0.001 A 
HETATM   22  C17 UNL     1      22.707   2.487  50.582  1.00  0.00     0.009 A 
ENDBRANCH  16  17
ENDBRANCH  15  16
ENDBRANCH  14  15
ENDBRANCH  13  14
ENDBRANCH   2  13
TORSDOF 11
ENDMDL
MODEL 4
REMARK VINA RESULT:      -5.6      4.962      7.447
REMARK  11 active torsions:
REMARK  status: ('A' for Active; 'I' for Inactive)
REMARK    1  A    between atoms: C2_2  and  N1_3 
REMARK    2  A    between atoms: N1_3  and  C4_5 
REMARK    3  A    between atoms: C4_5  and  C5_6 
REMARK    4  A    between atoms: C5_6  and  C7_8 
REMARK    5  A    between atoms: C7_8  and  C18_20 
REMARK    6  A    between atoms: C8_9  and  C9_10 
REMARK    7  A    between atoms: C9_10  and  C10_11 
REMARK    8  A    between atoms: C10_11  and  O1_12 
REMARK    9  A    between atoms: O1_12  and  C11_13 
REMARK   10  A    between atoms: C11_13  and  C12_14 
REMARK   11  A    between atoms: C18_20  and  O2_21 
ROOT
HETATM    1  C7  UNL     1      27.564   6.361  48.420  1.00  0.00    -0.051 C 
HETATM    2  C8  UNL     1      27.466   5.034  48.635  1.00  0.00     0.007 C 
ENDROOT
BRANCH   1   3
HETATM    3  C5  UNL     1      28.686   7.030  47.693  1.00  0.00     0.041 C 
HETATM    4  C6  UNL     1      29.949   6.261  47.931  1.00  0.00     0.016 C 
BRANCH   3   5
HETATM    5  C4  UNL     1      28.717   8.490  47.752  1.00  0.00     0.280 C 
BRANCH   5   6
HETATM    6  N1  UNL     1      29.082   9.265  48.825  1.00  0.00     0.084 NA
HETATM    7  C3  UNL     1      28.214  10.486  48.871  1.00  0.00     0.309 C 
BRANCH   6   8
HETATM    8  C2  UNL     1      30.328   9.724  49.200  1.00  0.00     0.267 C 
HETATM    9  C1  UNL     1      30.761  11.123  49.127  1.00  0.00     0.037 C 
ENDBRANCH   6   8
ENDBRANCH   5   6
ENDBRANCH   3   5
ENDBRANCH   1   3
BRANCH   1  10
HETATM   10  C18 UNL     1      26.465   7.215  48.939  1.00  0.00     0.198 C 
BRANCH  10  11
HETATM   11  O2  UNL     1      26.744   7.623  50.254  1.00  0.00    -0.397 OA
HETATM   12  H27 UNL     1      26.013   8.171  50.651  1.00  0.00     0.209 HD
ENDBRANCH  10  11
ENDBRANCH   1  10
BRANCH   2  13
HETATM   13  C9  UNL     1      26.350   4.439  49.352  1.00  0.00     0.024 C 
BRANCH  13  14
HETATM   14  C10 UNL     1      26.570   3.378  50.094  1.00  0.00     0.135 C 
BRANCH  14  15
HETATM   15  O1  UNL     1      26.570   2.111  50.647  1.00  0.00    -0.359 OA
BRANCH  15  16
HETATM   16  C11 UNL     1      26.331   1.897  52.033  1.00  0.00     0.213 C 
BRANCH  16  17
HETATM   17  C12 UNL     1      27.335   1.017  52.633  1.00  0.00    -0.034 A 
HETATM   18  C13 UNL     1      28.511   1.439  53.259  1.00  0.00     0.009 A 
HETATM   19  C14 UNL     1      29.435   0.559  53.820  1.00  0.00     0.001 A 
HETATM   20  C15 UNL     1      29.186  -0.807  53.760  1.00  0.00     0.000 A 
HETATM   21  C16 UNL     1      28.039  -1.296  53.154  1.00  0.00     0.001 A 
HETATM   22  C17 UNL     1      27.175  -0.374  52.624  1.00  0.00     0.009 A 
ENDBRANCH  16  17
ENDBRANCH  15  16
ENDBRANCH  14  15
ENDBRANCH  13  14
ENDBRANCH   2  13
TORSDOF 11
ENDMDL
MODEL 5
REMARK VINA RESULT:      -5.6      4.802      7.115
REMARK  11 active torsions:
REMARK  status: ('A' for Active; 'I' for Inactive)
REMARK    1  A    between atoms: C2_2  and  N1_3 
REMARK    2  A    between atoms: N1_3  and  C4_5 
REMARK    3  A    between atoms: C4_5  and  C5_6 
REMARK    4  A    between atoms: C5_6  and  C7_8 
REMARK    5  A    between atoms: C7_8  and  C18_20 
REMARK    6  A    between atoms: C8_9  and  C9_10 
REMARK    7  A    between atoms: C9_10  and  C10_11 
REMARK    8  A    between atoms: C10_11  and  O1_12 
REMARK    9  A    between atoms: O1_12  and  C11_13 
REMARK   10  A    between atoms: C11_13  and  C12_14 
REMARK   11  A    between atoms: C18_20  and  O2_21 
ROOT
HETATM    1  C7  UNL     1      27.691   6.338  48.563  1.00  0.00    -0.051 C 
HETATM    2  C8  UNL     1      27.453   5.012  48.624  1.00  0.00     0.007 C 
ENDROOT
BRANCH   1   3
HETATM    3  C5  UNL     1      28.890   6.964  47.926  1.00  0.00     0.041 C 
HETATM    4  C6  UNL     1      28.459   7.700  46.695  1.00  0.00     0.016 C 
BRANCH   3   5
HETATM    5  C4  UNL     1      30.101   6.147  47.883  1.00  0.00     0.280 C 
BRANCH   5   6
HETATM    6  N1  UNL     1      31.348   6.496  48.339  1.00  0.00     0.084 NA
HETATM    7  C3  UNL     1      31.231   7.705  49.219  1.00  0.00     0.309 C 
BRANCH   6   8
HETATM    8  C2  UNL     1      32.520   6.701  47.640  1.00  0.00     0.267 C 
HETATM    9  C1  UNL     1      32.618   6.784  46.179  1.00  0.00     0.037 C 
ENDBRANCH   6   8
ENDBRANCH   5   6
ENDBRANCH   3   5
ENDBRANCH   1   3
BRANCH   1  10
HETATM   10  C18 UNL     1      26.676   7.238  49.168  1.00  0.00     0.198 C 
BRANCH  10  11
HETATM   11  O2  UNL     1      27.286   8.117  50.080  1.00  0.00    -0.397 OA
HETATM   12  H27 UNL     1      27.738   7.641  50.829  1.00  0.00     0.209 HD
ENDBRANCH  10  11
ENDBRANCH   1  10
BRANCH   2  13
HETATM   13  C9  UNL     1      26.268   4.461  49.261  1.00  0.00     0.024 C 
BRANCH  13  14
HETATM   14  C10 UNL     1      26.406   3.441  50.076  1.00  0.00     0.135 C 
BRANCH  14  15
HETATM   15  O1  UNL     1      26.848   2.313  50.742  1.00  0.00    -0.359 OA
BRANCH  15  16
HETATM   16  C11 UNL     1      26.774   2.199  52.158  1.00  0.00     0.213 C 
BRANCH  16  17
HETATM   17  C12 UNL     1      27.511   1.036  52.655  1.00  0.00    -0.034 A 
HETATM   18  C13 UNL     1      27.098  -0.294  52.538  1.00  0.00     0.009 A 
HETATM   19  C14 UNL     1      27.840  -1.368  53.026  1.00  0.00     0.001 A 
HETATM   20  C15 UNL     1      29.051  -1.118  53.661  1.00  0.00     0.000 A 
HETATM   21  C16 UNL     1      29.521   0.178  53.811  1.00  0.00     0.001 A 
HETATM   22  C17 UNL     1      28.740   1.185  53.308  1.00  0.00     0.009 A 
ENDBRANCH  16  17
ENDBRANCH  15  16
ENDBRANCH  14  15
ENDBRANCH  13  14
ENDBRANCH   2  13
TORSDOF 11
ENDMDL
MODEL 6
REMARK VINA RESULT:      -5.6      4.553      7.043
REMARK  11 active torsions:
REMARK  status: ('A' for Active; 'I' for Inactive)
REMARK    1  A    between atoms: C2_2  and  N1_3 
REMARK    2  A    between atoms: N1_3  and  C4_5 
REMARK    3  A    between atoms: C4_5  and  C5_6 
REMARK    4  A    between atoms: C5_6  and  C7_8 
REMARK    5  A    between atoms: C7_8  and  C18_20 
REMARK    6  A    between atoms: C8_9  and  C9_10 
REMARK    7  A    between atoms: C9_10  and  C10_11 
REMARK    8  A    between atoms: C10_11  and  O1_12 
REMARK    9  A    between atoms: O1_12  and  C11_13 
REMARK   10  A    between atoms: C11_13  and  C12_14 
REMARK   11  A    between atoms: C18_20  and  O2_21 
ROOT
HETATM    1  C7  UNL     1      27.168   5.654  48.608  1.00  0.00    -0.051 C 
HETATM    2  C8  UNL     1      26.278   4.824  49.188  1.00  0.00     0.007 C 
ENDROOT
BRANCH   1   3
HETATM    3  C5  UNL     1      26.908   7.087  48.270  1.00  0.00     0.041 C 
HETATM    4  C6  UNL     1      25.441   7.275  48.036  1.00  0.00     0.016 C 
BRANCH   3   5
HETATM    5  C4  UNL     1      27.863   7.723  47.365  1.00  0.00     0.280 C 
BRANCH   5   6
HETATM    6  N1  UNL     1      28.743   8.731  47.670  1.00  0.00     0.084 NA
HETATM    7  C3  UNL     1      29.862   8.729  46.672  1.00  0.00     0.309 C 
BRANCH   6   8
HETATM    8  C2  UNL     1      29.361   9.034  48.866  1.00  0.00     0.267 C 
HETATM    9  C1  UNL     1      30.752   8.706  49.196  1.00  0.00     0.037 C 
ENDBRANCH   6   8
ENDBRANCH   5   6
ENDBRANCH   3   5
ENDBRANCH   1   3
BRANCH   1  10
HETATM   10  C18 UNL     1      28.509   5.098  48.293  1.00  0.00     0.198 C 
BRANCH  10  11
HETATM   11  O2  UNL     1      29.429   5.450  49.295  1.00  0.00    -0.397 OA
HETATM   12  H27 UNL     1      30.272   4.920  49.248  1.00  0.00     0.209 HD
ENDBRANCH  10  11
ENDBRANCH   1  10
BRANCH   2  13
HETATM   13  C9  UNL     1      26.587   3.436  49.491  1.00  0.00     0.024 C 
BRANCH  13  14
HETATM   14  C10 UNL     1      26.692   3.072  50.748  1.00  0.00     0.135 C 
BRANCH  14  15
HETATM   15  O1  UNL     1      26.790   2.361  51.929  1.00  0.00    -0.359 OA
BRANCH  15  16
HETATM   16  C11 UNL     1      26.075   1.149  52.138  1.00  0.00     0.213 C 
BRANCH  16  17
HETATM   17  C12 UNL     1      26.963   0.045  52.507  1.00  0.00    -0.034 A 
HETATM   18  C13 UNL     1      26.709  -1.310  52.278  1.00  0.00     0.009 A 
HETATM   19  C14 UNL     1      27.591  -2.324  52.647  1.00  0.00     0.001 A 
HETATM   20  C15 UNL     1      28.784  -1.985  53.274  1.00  0.00     0.000 A 
HETATM   21  C16 UNL     1      29.100  -0.660  53.533  1.00  0.00     0.001 A 
HETATM   22  C17 UNL     1      28.187   0.284  53.143  1.00  0.00     0.009 A 
ENDBRANCH  16  17
ENDBRANCH  15  16
ENDBRANCH  14  15
ENDBRANCH  13  14
ENDBRANCH   2  13
TORSDOF 11
ENDMDL
MODEL 7
REMARK VINA RESULT:      -5.6      1.480      2.222
REMARK  11 active torsions:
REMARK  status: ('A' for Active; 'I' for Inactive)
REMARK    1  A    between atoms: C2_2  and  N1_3 
REMARK    2  A    between atoms: N1_3  and  C4_5 
REMARK    3  A    between atoms: C4_5  and  C5_6 
REMARK    4  A    between atoms: C5_6  and  C7_8 
REMARK    5  A    between atoms: C7_8  and  C18_20 
REMARK    6  A    between atoms: C8_9  and  C9_10 
REMARK    7  A    between atoms: C9_10  and  C10_11 
REMARK    8  A    between atoms: C10_11  and  O1_12 
REMARK    9  A    between atoms: O1_12  and  C11_13 
REMARK   10  A    between atoms: C11_13  and  C12_14 
REMARK   11  A    between atoms: C18_20  and  O2_21 
ROOT
HETATM    1  C7  UNL     1      24.930   2.605  52.069  1.00  0.00    -0.051 C 
HETATM    2  C8  UNL     1      23.890   2.919  51.270  1.00  0.00     0.007 C 
ENDROOT
BRANCH   1   3
HETATM    3  C5  UNL     1      26.213   1.995  51.604  1.00  0.00     0.041 C 
HETATM    4  C6  UNL     1      26.653   2.683  50.349  1.00  0.00     0.016 C 
BRANCH   3   5
HETATM    5  C4  UNL     1      26.307   0.539  51.692  1.00  0.00     0.280 C 
BRANCH   5   6
HETATM    6  N1  UNL     1      27.246  -0.187  52.382  1.00  0.00     0.084 NA
HETATM    7  C3  UNL     1      26.756  -1.594  52.551  1.00  0.00     0.309 C 
BRANCH   6   8
HETATM    8  C2  UNL     1      27.879   0.095  53.575  1.00  0.00     0.267 C 
HETATM    9  C1  UNL     1      29.206   0.709  53.693  1.00  0.00     0.037 C 
ENDBRANCH   6   8
ENDBRANCH   5   6
ENDBRANCH   3   5
ENDBRANCH   1   3
BRANCH   1  10
HETATM   10  C18 UNL     1      24.786   2.901  53.518  1.00  0.00     0.198 C 
BRANCH  10  11
HETATM   11  O2  UNL     1      26.031   2.802  54.161  1.00  0.00    -0.397 OA
HETATM   12  H27 UNL     1      26.783   2.657  53.524  1.00  0.00     0.209 HD
ENDBRANCH  10  11
ENDBRANCH   1  10
BRANCH   2  13
HETATM   13  C9  UNL     1      22.664   3.510  51.781  1.00  0.00     0.024 C 
BRANCH  13  14
HETATM   14  C10 UNL     1      21.543   2.836  51.666  1.00  0.00     0.135 C 
BRANCH  14  15
HETATM   15  O1  UNL     1      20.587   1.848  51.520  1.00  0.00    -0.359 OA
BRANCH  15  16
HETATM   16  C11 UNL     1      20.939   0.481  51.346  1.00  0.00     0.213 C 
BRANCH  16  17
HETATM   17  C12 UNL     1      21.454  -0.114  52.580  1.00  0.00    -0.034 A 
HETATM   18  C13 UNL     1      20.675  -0.678  53.594  1.00  0.00     0.009 A 
HETATM   19  C14 UNL     1      21.216  -1.235  54.751  1.00  0.00     0.001 A 
HETATM   20  C15 UNL     1      22.597  -1.238  54.917  1.00  0.00     0.000 A 
HETATM   21  C16 UNL     1      23.430  -0.695  53.950  1.00  0.00     0.001 A 
HETATM   22  C17 UNL     1      22.829  -0.164  52.839  1.00  0.00     0.009 A 
ENDBRANCH  16  17
ENDBRANCH  15  16
ENDBRANCH  14  15
ENDBRANCH  13  14
ENDBRANCH   2  13
TORSDOF 11
ENDMDL
MODEL 8
REMARK VINA RESULT:      -5.6      2.852      5.167
REMARK  11 active torsions:
REMARK  status: ('A' for Active; 'I' for Inactive)
REMARK    1  A    between atoms: C2_2  and  N1_3 
REMARK    2  A    between atoms: N1_3  and  C4_5 
REMARK    3  A    between atoms: C4_5  and  C5_6 
REMARK    4  A    between atoms: C5_6  and  C7_8 
REMARK    5  A    between atoms: C7_8  and  C18_20 
REMARK    6  A    between atoms: C8_9  and  C9_10 
REMARK    7  A    between atoms: C9_10  and  C10_11 
REMARK    8  A    between atoms: C10_11  and  O1_12 
REMARK    9  A    between atoms: O1_12  and  C11_13 
REMARK   10  A    between atoms: C11_13  and  C12_14 
REMARK   11  A    between atoms: C18_20  and  O2_21 
ROOT
HETATM    1  C7  UNL     1      25.532   3.386  50.361  1.00  0.00    -0.051 C 
HETATM    2  C8  UNL     1      25.471   2.499  51.373  1.00  0.00     0.007 C 
ENDROOT
BRANCH   1   3
HETATM    3  C5  UNL     1      24.480   4.401  50.047  1.00  0.00     0.041 C 
HETATM    4  C6  UNL     1      23.933   4.949  51.329  1.00  0.00     0.016 C 
BRANCH   3   5
HETATM    5  C4  UNL     1      23.559   4.066  48.963  1.00  0.00     0.280 C 
BRANCH   5   6
HETATM    6  N1  UNL     1      23.006   2.837  48.701  1.00  0.00     0.084 NA
HETATM    7  C3  UNL     1      22.199   2.918  47.440  1.00  0.00     0.309 C 
BRANCH   6   8
HETATM    8  C2  UNL     1      22.269   2.007  49.520  1.00  0.00     0.267 C 
HETATM    9  C1  UNL     1      21.302   1.010  49.048  1.00  0.00     0.037 C 
ENDBRANCH   6   8
ENDBRANCH   5   6
ENDBRANCH   3   5
ENDBRANCH   1   3
BRANCH   1  10
HETATM   10  C18 UNL     1      26.745   3.355  49.503  1.00  0.00     0.198 C 
BRANCH  10  11
HETATM   11  O2  UNL     1      27.535   4.493  49.734  1.00  0.00    -0.397 OA
HETATM   12  H27 UNL     1      27.004   5.336  49.740  1.00  0.00     0.209 HD
ENDBRANCH  10  11
ENDBRANCH   1  10
BRANCH   2  13
HETATM   13  C9  UNL     1      26.525   1.532  51.629  1.00  0.00     0.024 C 
BRANCH  13  14
HETATM   14  C10 UNL     1      26.203   0.365  52.139  1.00  0.00     0.135 C 
BRANCH  14  15
HETATM   15  O1  UNL     1      25.839  -0.672  52.977  1.00  0.00    -0.359 OA
BRANCH  15  16
HETATM   16  C11 UNL     1      25.138  -0.443  54.193  1.00  0.00     0.213 C 
BRANCH  16  17
HETATM   17  C12 UNL     1      23.688  -0.553  54.019  1.00  0.00    -0.034 A 
HETATM   18  C13 UNL     1      22.824  -1.265  54.856  1.00  0.00     0.009 A 
HETATM   19  C14 UNL     1      21.448  -1.336  54.648  1.00  0.00     0.001 A 
HETATM   20  C15 UNL     1      20.895  -0.669  53.559  1.00  0.00     0.000 A 
HETATM   21  C16 UNL     1      21.695   0.056  52.689  1.00  0.00     0.001 A 
HETATM   22  C17 UNL     1      23.038   0.082  52.954  1.00  0.00     0.009 A 
ENDBRANCH  16  17
ENDBRANCH  15  16
ENDBRANCH  14  15
ENDBRANCH  13  14
ENDBRANCH   2  13
TORSDOF 11
ENDMDL
MODEL 9
REMARK VINA RESULT:      -5.5      2.754      5.149
REMARK  11 active torsions:
REMARK  status: ('A' for Active; 'I' for Inactive)
REMARK    1  A    between atoms: C2_2  and  N1_3 
REMARK    2  A    between atoms: N1_3  and  C4_5 
REMARK    3  A    between atoms: C4_5  and  C5_6 
REMARK    4  A    between atoms: C5_6  and  C7_8 
REMARK    5  A    between atoms: C7_8  and  C18_20 
REMARK    6  A    between atoms: C8_9  and  C9_10 
REMARK    7  A    between atoms: C9_10  and  C10_11 
REMARK    8  A    between atoms: C10_11  and  O1_12 
REMARK    9  A    between atoms: O1_12  and  C11_13 
REMARK   10  A    between atoms: C11_13  and  C12_14 
REMARK   11  A    between atoms: C18_20  and  O2_21 
ROOT
HETATM    1  C7  UNL     1      25.267   2.475  52.211  1.00  0.00    -0.051 C 
HETATM    2  C8  UNL     1      25.166   2.077  53.495  1.00  0.00     0.007 C 
ENDROOT
BRANCH   1   3
HETATM    3  C5  UNL     1      24.247   3.293  51.486  1.00  0.00     0.041 C 
HETATM    4  C6  UNL     1      23.256   3.826  52.475  1.00  0.00     0.016 C 
BRANCH   3   5
HETATM    5  C4  UNL     1      23.767   2.753  50.216  1.00  0.00     0.280 C 
BRANCH   5   6
HETATM    6  N1  UNL     1      22.704   3.207  49.475  1.00  0.00     0.084 NA
HETATM    7  C3  UNL     1      22.486   2.289  48.310  1.00  0.00     0.309 C 
BRANCH   6   8
HETATM    8  C2  UNL     1      22.457   4.464  48.963  1.00  0.00     0.267 C 
HETATM    9  C1  UNL     1      23.467   5.330  48.346  1.00  0.00     0.037 C 
ENDBRANCH   6   8
ENDBRANCH   5   6
ENDBRANCH   3   5
ENDBRANCH   1   3
BRANCH   1  10
HETATM   10  C18 UNL     1      26.492   2.077  51.471  1.00  0.00     0.198 C 
BRANCH  10  11
HETATM   11  O2  UNL     1      27.273   3.208  51.179  1.00  0.00    -0.397 OA
HETATM   12  H27 UNL     1      28.250   3.013  51.183  1.00  0.00     0.209 HD
ENDBRANCH  10  11
ENDBRANCH   1  10
BRANCH   2  13
HETATM   13  C9  UNL     1      26.191   1.279  54.148  1.00  0.00     0.024 C 
BRANCH  13  14
HETATM   14  C10 UNL     1      25.889   0.064  54.544  1.00  0.00     0.135 C 
BRANCH  14  15
HETATM   15  O1  UNL     1      25.309  -1.178  54.720  1.00  0.00    -0.359 OA
BRANCH  15  16
HETATM   16  C11 UNL     1      24.040  -1.333  55.344  1.00  0.00     0.213 C 
BRANCH  16  17
HETATM   17  C12 UNL     1      22.957  -0.784  54.528  1.00  0.00    -0.034 A 
HETATM   18  C13 UNL     1      21.747  -0.285  55.018  1.00  0.00     0.009 A 
HETATM   19  C14 UNL     1      20.746   0.231  54.197  1.00  0.00     0.001 A 
HETATM   20  C15 UNL     1      20.950   0.258  52.822  1.00  0.00     0.000 A 
HETATM   21  C16 UNL     1      22.127  -0.220  52.267  1.00  0.00     0.001 A 
HETATM   22  C17 UNL     1      23.067  -0.713  53.134  1.00  0.00     0.009 A 
ENDBRANCH  16  17
ENDBRANCH  15  16
ENDBRANCH  14  15
ENDBRANCH  13  14
ENDBRANCH   2  13
TORSDOF 11
ENDMDL
