MODEL 1
REMARK VINA RESULT:      -8.9      0.000      0.000
REMARK  6 active torsions:
REMARK  status: ('A' for Active; 'I' for Inactive)
REMARK    1  A    between atoms: C2_2  and  O2_4 
REMARK    2  A    between atoms: O2_4  and  C3_5 
REMARK    3  A    between atoms: C3_5  and  N1_6 
REMARK    4  A    between atoms: C8_13  and  C9_14 
REMARK    5  A    between atoms: C9_14  and  N4_15 
REMARK    6  A    between atoms: N4_15  and  C10_16 
ROOT
HETATM    1  N1  UNL     1      27.340   1.796  52.068  1.00  0.00    -0.168 N 
HETATM    2  N2  UNL     1      28.162   2.488  53.016  1.00  0.00    -0.052 NA
HETATM    3  N3  UNL     1      28.482   1.943  54.142  1.00  0.00    -0.157 NA
HETATM    4  C4  UNL     1      27.928   0.592  54.304  1.00  0.00     0.114 A 
HETATM    5  C5  UNL     1      29.164   0.282  53.844  1.00  0.00     0.079 A 
HETATM    6  C6  UNL     1      28.927  -1.009  53.448  1.00  0.00    -0.008 A 
HETATM    7  C7  UNL     1      27.785  -0.518  53.946  1.00  0.00     0.096 A 
HETATM    8  C8  UNL     1      26.589  -0.111  54.427  1.00  0.00     0.057 A 
HETATM    9  C16 UNL     1      26.824   1.180  54.824  1.00  0.00     0.000 A 
HETATM   10  N5  UNL     1      27.061  -1.491  53.103  1.00  0.00    -0.267 NA
HETATM   11  C17 UNL     1      26.769  -0.977  51.897  1.00  0.00     0.220 C 
HETATM   12  N6  UNL     1      27.266   0.379  51.812  1.00  0.00    -0.273 N 
HETATM   13  H17 UNL     1      28.103   0.422  51.167  1.00  0.00     0.189 HD
ENDROOT
BRANCH   8  14
HETATM   14  C9  UNL     1      25.206  -0.588  54.678  1.00  0.00     0.139 C 
BRANCH  14  15
HETATM   15  N4  UNL     1      24.293   0.017  53.728  1.00  0.00    -0.389 N 
HETATM   16  H10 UNL     1      24.645   0.726  53.043  1.00  0.00     0.159 HD
BRANCH  15  17
HETATM   17  C10 UNL     1      22.931  -0.321  53.700  1.00  0.00     0.029 A 
HETATM   18  C11 UNL     1      22.345  -1.197  54.613  1.00  0.00     0.029 A 
HETATM   19  C12 UNL     1      21.017  -1.499  54.560  1.00  0.00     0.004 A 
HETATM   20  C13 UNL     1      20.176  -0.953  53.593  1.00  0.00     0.024 A 
HETATM   21  C14 UNL     1      20.714  -0.075  52.660  1.00  0.00     0.036 A 
HETATM   22 CL1  UNL     1      19.758   0.685  51.382  1.00  0.00    -0.084 Cl
HETATM   23  C15 UNL     1      22.068   0.199  52.758  1.00  0.00     0.052 A 
ENDBRANCH  15  17
ENDBRANCH  14  15
ENDBRANCH   8  14
BRANCH   1  24
HETATM   24  C3  UNL     1      26.438   2.592  51.252  1.00  0.00     0.351 C 
BRANCH  24  25
HETATM   25  O2  UNL     1      26.888   2.906  49.980  1.00  0.00    -0.298 OA
BRANCH  25  26
HETATM   26  C2  UNL     1      26.873   4.088  49.313  1.00  0.00     0.256 C 
HETATM   27  C1  UNL     1      25.789   5.088  49.206  1.00  0.00     0.126 C 
HETATM   28  O1  UNL     1      27.850   4.480  48.674  1.00  0.00    -0.266 OA
ENDBRANCH  25  26
ENDBRANCH  24  25
ENDBRANCH   1  24
TORSDOF 6
ENDMDL
MODEL 2
REMARK VINA RESULT:      -8.9      1.296      1.682
REMARK  6 active torsions:
REMARK  status: ('A' for Active; 'I' for Inactive)
REMARK    1  A    between atoms: C2_2  and  O2_4 
REMARK    2  A    between atoms: O2_4  and  C3_5 
REMARK    3  A    between atoms: C3_5  and  N1_6 
REMARK    4  A    between atoms: C8_13  and  C9_14 
REMARK    5  A    between atoms: C9_14  and  N4_15 
REMARK    6  A    between atoms: N4_15  and  C10_16 
ROOT
HETATM    1  N1  UNL     1      27.430   1.808  52.135  1.00  0.00    -0.168 N 
HETATM    2  N2  UNL     1      28.292   2.462  53.074  1.00  0.00    -0.052 NA
HETATM    3  N3  UNL     1      28.617   1.894  54.187  1.00  0.00    -0.157 NA
HETATM    4  C4  UNL     1      28.024   0.560  54.345  1.00  0.00     0.114 A 
HETATM    5  C5  UNL     1      29.241   0.217  53.856  1.00  0.00     0.079 A 
HETATM    6  C6  UNL     1      28.955  -1.062  53.451  1.00  0.00    -0.008 A 
HETATM    7  C7  UNL     1      27.839  -0.541  53.977  1.00  0.00     0.096 A 
HETATM    8  C8  UNL     1      26.666  -0.102  54.486  1.00  0.00     0.057 A 
HETATM    9  C16 UNL     1      26.949   1.175  54.893  1.00  0.00     0.000 A 
HETATM   10  N5  UNL     1      27.069  -1.481  53.137  1.00  0.00    -0.267 NA
HETATM   11  C17 UNL     1      26.769  -0.943  51.943  1.00  0.00     0.220 C 
HETATM   12  N6  UNL     1      27.307   0.397  51.864  1.00  0.00    -0.273 N 
HETATM   13  H17 UNL     1      28.132   0.423  51.203  1.00  0.00     0.189 HD
ENDROOT
BRANCH   8  14
HETATM   14  C9  UNL     1      25.274  -0.539  54.759  1.00  0.00     0.139 C 
BRANCH  14  15
HETATM   15  N4  UNL     1      24.371   0.049  53.789  1.00  0.00    -0.389 N 
HETATM   16  H10 UNL     1      24.727   0.755  53.104  1.00  0.00     0.159 HD
BRANCH  15  17
HETATM   17  C10 UNL     1      23.012  -0.302  53.743  1.00  0.00     0.029 A 
HETATM   18  C11 UNL     1      22.425  -1.194  54.639  1.00  0.00     0.029 A 
HETATM   19  C12 UNL     1      21.101  -1.507  54.569  1.00  0.00     0.004 A 
HETATM   20  C13 UNL     1      20.265  -0.958  53.600  1.00  0.00     0.024 A 
HETATM   21  C14 UNL     1      20.804  -0.064  52.682  1.00  0.00     0.036 A 
HETATM   22 CL1  UNL     1      19.854   0.701  51.403  1.00  0.00    -0.084 Cl
HETATM   23  C15 UNL     1      22.155   0.221  52.798  1.00  0.00     0.052 A 
ENDBRANCH  15  17
ENDBRANCH  14  15
ENDBRANCH   8  14
BRANCH   1  24
HETATM   24  C3  UNL     1      26.538   2.642  51.346  1.00  0.00     0.351 C 
BRANCH  24  25
HETATM   25  O2  UNL     1      25.183   2.426  51.534  1.00  0.00    -0.298 OA
BRANCH  25  26
HETATM   26  C2  UNL     1      24.266   3.157  52.219  1.00  0.00     0.256 C 
HETATM   27  C1  UNL     1      23.148   3.976  51.704  1.00  0.00     0.126 C 
HETATM   28  O1  UNL     1      24.277   3.214  53.449  1.00  0.00    -0.266 OA
ENDBRANCH  25  26
ENDBRANCH  24  25
ENDBRANCH   1  24
TORSDOF 6
ENDMDL
MODEL 3
REMARK VINA RESULT:      -8.2      2.853      5.213
REMARK  6 active torsions:
REMARK  status: ('A' for Active; 'I' for Inactive)
REMARK    1  A    between atoms: C2_2  and  O2_4 
REMARK    2  A    between atoms: O2_4  and  C3_5 
REMARK    3  A    between atoms: C3_5  and  N1_6 
REMARK    4  A    between atoms: C8_13  and  C9_14 
REMARK    5  A    between atoms: C9_14  and  N4_15 
REMARK    6  A    between atoms: N4_15  and  C10_16 
ROOT
HETATM    1  N1  UNL     1      26.012   3.013  51.279  1.00  0.00    -0.168 N 
HETATM    2  N2  UNL     1      26.303   3.546  49.981  1.00  0.00    -0.052 NA
HETATM    3  N3  UNL     1      25.400   4.165  49.298  1.00  0.00    -0.157 NA
HETATM    4  C4  UNL     1      24.110   4.250  49.996  1.00  0.00     0.114 A 
HETATM    5  C5  UNL     1      24.634   5.456  50.327  1.00  0.00     0.079 A 
HETATM    6  C6  UNL     1      23.827   5.753  51.396  1.00  0.00    -0.008 A 
HETATM    7  C7  UNL     1      23.451   4.559  50.919  1.00  0.00     0.096 A 
HETATM    8  C8  UNL     1      23.002   3.350  50.511  1.00  0.00     0.057 A 
HETATM    9  C16 UNL     1      23.806   3.052  49.443  1.00  0.00     0.000 A 
HETATM   10  N5  UNL     1      22.935   4.243  52.266  1.00  0.00    -0.267 NA
HETATM   11  C17 UNL     1      23.873   3.655  53.028  1.00  0.00     0.220 C 
HETATM   12  N6  UNL     1      25.100   3.523  52.273  1.00  0.00    -0.273 N 
HETATM   13  H17 UNL     1      25.827   4.202  52.633  1.00  0.00     0.189 HD
ENDROOT
BRANCH   8  14
HETATM   14  C9  UNL     1      21.968   2.327  50.806  1.00  0.00     0.139 C 
BRANCH  14  15
HETATM   15  N4  UNL     1      22.600   1.065  51.137  1.00  0.00    -0.389 N 
HETATM   16  H10 UNL     1      23.289   0.636  50.476  1.00  0.00     0.159 HD
BRANCH  15  17
HETATM   17  C10 UNL     1      22.310   0.389  52.332  1.00  0.00     0.029 A 
HETATM   18  C11 UNL     1      21.011   0.103  52.749  1.00  0.00     0.029 A 
HETATM   19  C12 UNL     1      20.766  -0.560  53.913  1.00  0.00     0.004 A 
HETATM   20  C13 UNL     1      21.795  -0.987  54.749  1.00  0.00     0.024 A 
HETATM   21  C14 UNL     1      23.109  -0.725  54.376  1.00  0.00     0.036 A 
HETATM   22 CL1  UNL     1      24.505  -1.209  55.346  1.00  0.00    -0.084 Cl
HETATM   23  C15 UNL     1      23.303  -0.048  53.184  1.00  0.00     0.052 A 
ENDBRANCH  15  17
ENDBRANCH  14  15
ENDBRANCH   8  14
BRANCH   1  24
HETATM   24  C3  UNL     1      26.693   1.791  51.673  1.00  0.00     0.351 C 
BRANCH  24  25
HETATM   25  O2  UNL     1      27.896   1.955  52.339  1.00  0.00    -0.298 OA
BRANCH  25  26
HETATM   26  C2  UNL     1      28.222   1.705  53.634  1.00  0.00     0.256 C 
HETATM   27  C1  UNL     1      27.963   0.498  54.447  1.00  0.00     0.126 C 
HETATM   28  O1  UNL     1      28.821   2.534  54.319  1.00  0.00    -0.266 OA
ENDBRANCH  25  26
ENDBRANCH  24  25
ENDBRANCH   1  24
TORSDOF 6
ENDMDL
MODEL 4
REMARK VINA RESULT:      -8.1      2.572      5.071
REMARK  6 active torsions:
REMARK  status: ('A' for Active; 'I' for Inactive)
REMARK    1  A    between atoms: C2_2  and  O2_4 
REMARK    2  A    between atoms: O2_4  and  C3_5 
REMARK    3  A    between atoms: C3_5  and  N1_6 
REMARK    4  A    between atoms: C8_13  and  C9_14 
REMARK    5  A    between atoms: C9_14  and  N4_15 
REMARK    6  A    between atoms: N4_15  and  C10_16 
ROOT
HETATM    1  N1  UNL     1      26.116   3.038  51.094  1.00  0.00    -0.168 N 
HETATM    2  N2  UNL     1      26.378   3.636  49.819  1.00  0.00    -0.052 NA
HETATM    3  N3  UNL     1      25.457   4.277  49.182  1.00  0.00    -0.157 NA
HETATM    4  C4  UNL     1      24.179   4.314  49.906  1.00  0.00     0.114 A 
HETATM    5  C5  UNL     1      24.696   5.508  50.285  1.00  0.00     0.079 A 
HETATM    6  C6  UNL     1      23.906   5.745  51.381  1.00  0.00    -0.008 A 
HETATM    7  C7  UNL     1      23.533   4.571  50.854  1.00  0.00     0.096 A 
HETATM    8  C8  UNL     1      23.090   3.379  50.396  1.00  0.00     0.057 A 
HETATM    9  C16 UNL     1      23.877   3.141  49.300  1.00  0.00     0.000 A 
HETATM   10  N5  UNL     1      23.045   4.185  52.193  1.00  0.00    -0.267 NA
HETATM   11  C17 UNL     1      24.003   3.571  52.909  1.00  0.00     0.220 C 
HETATM   12  N6  UNL     1      25.217   3.489  52.128  1.00  0.00    -0.273 N 
HETATM   13  H17 UNL     1      25.943   4.159  52.507  1.00  0.00     0.189 HD
ENDROOT
BRANCH   8  14
HETATM   14  C9  UNL     1      22.072   2.331  50.659  1.00  0.00     0.139 C 
BRANCH  14  15
HETATM   15  N4  UNL     1      22.716   1.120  51.129  1.00  0.00    -0.389 N 
HETATM   16  H10 UNL     1      23.575   0.765  50.648  1.00  0.00     0.159 HD
BRANCH  15  17
HETATM   17  C10 UNL     1      22.215   0.398  52.222  1.00  0.00     0.029 A 
HETATM   18  C11 UNL     1      23.014  -0.038  53.278  1.00  0.00     0.029 A 
HETATM   19  C12 UNL     1      22.493  -0.733  54.327  1.00  0.00     0.004 A 
HETATM   20  C13 UNL     1      21.138  -1.046  54.402  1.00  0.00     0.024 A 
HETATM   21  C14 UNL     1      20.300  -0.634  53.373  1.00  0.00     0.036 A 
HETATM   22 CL1  UNL     1      18.564  -0.968  53.345  1.00  0.00    -0.084 Cl
HETATM   23  C15 UNL     1      20.880   0.069  52.331  1.00  0.00     0.052 A 
ENDBRANCH  15  17
ENDBRANCH  14  15
ENDBRANCH   8  14
BRANCH   1  24
HETATM   24  C3  UNL     1      26.817   1.806  51.417  1.00  0.00     0.351 C 
BRANCH  24  25
HETATM   25  O2  UNL     1      27.769   1.895  52.418  1.00  0.00    -0.298 OA
BRANCH  25  26
HETATM   26  C2  UNL     1      27.708   1.519  53.722  1.00  0.00     0.256 C 
HETATM   27  C1  UNL     1      28.536   0.536  54.452  1.00  0.00     0.126 C 
HETATM   28  O1  UNL     1      26.882   2.007  54.494  1.00  0.00    -0.266 OA
ENDBRANCH  25  26
ENDBRANCH  24  25
ENDBRANCH   1  24
TORSDOF 6
ENDMDL
MODEL 5
REMARK VINA RESULT:      -8.1      3.933      6.812
REMARK  6 active torsions:
REMARK  status: ('A' for Active; 'I' for Inactive)
REMARK    1  A    between atoms: C2_2  and  O2_4 
REMARK    2  A    between atoms: O2_4  and  C3_5 
REMARK    3  A    between atoms: C3_5  and  N1_6 
REMARK    4  A    between atoms: C8_13  and  C9_14 
REMARK    5  A    between atoms: C9_14  and  N4_15 
REMARK    6  A    between atoms: N4_15  and  C10_16 
ROOT
HETATM    1  N1  UNL     1      21.082   3.663  51.273  1.00  0.00    -0.168 N 
HETATM    2  N2  UNL     1      21.154   5.086  51.424  1.00  0.00    -0.052 NA
HETATM    3  N3  UNL     1      22.292   5.692  51.478  1.00  0.00    -0.157 NA
HETATM    4  C4  UNL     1      23.436   4.778  51.363  1.00  0.00     0.114 A 
HETATM    5  C5  UNL     1      23.326   5.177  50.072  1.00  0.00     0.079 A 
HETATM    6  C6  UNL     1      24.049   4.175  49.477  1.00  0.00    -0.008 A 
HETATM    7  C7  UNL     1      24.043   3.946  50.796  1.00  0.00     0.096 A 
HETATM    8  C8  UNL     1      24.092   3.632  52.110  1.00  0.00     0.057 A 
HETATM    9  C16 UNL     1      23.371   4.632  52.708  1.00  0.00     0.000 A 
HETATM   10  N5  UNL     1      24.249   2.515  50.495  1.00  0.00    -0.267 NA
HETATM   11  C17 UNL     1      23.080   1.865  50.367  1.00  0.00     0.220 C 
HETATM   12  N6  UNL     1      21.985   2.789  50.565  1.00  0.00    -0.273 N 
HETATM   13  H17 UNL     1      21.501   2.986  49.646  1.00  0.00     0.189 HD
ENDROOT
BRANCH   8  14
HETATM   14  C9  UNL     1      24.663   2.639  53.055  1.00  0.00     0.139 C 
BRANCH  14  15
HETATM   15  N4  UNL     1      26.100   2.808  53.142  1.00  0.00    -0.389 N 
HETATM   16  H10 UNL     1      26.514   3.769  53.151  1.00  0.00     0.159 HD
BRANCH  15  17
HETATM   17  C10 UNL     1      26.967   1.705  53.211  1.00  0.00     0.029 A 
HETATM   18  C11 UNL     1      28.275   1.794  53.683  1.00  0.00     0.029 A 
HETATM   19  C12 UNL     1      29.087   0.702  53.742  1.00  0.00     0.004 A 
HETATM   20  C13 UNL     1      28.657  -0.558  53.333  1.00  0.00     0.024 A 
HETATM   21  C14 UNL     1      27.360  -0.697  52.853  1.00  0.00     0.036 A 
HETATM   22 CL1  UNL     1      26.692  -2.238  52.302  1.00  0.00    -0.084 Cl
HETATM   23  C15 UNL     1      26.576   0.444  52.815  1.00  0.00     0.052 A 
ENDBRANCH  15  17
ENDBRANCH  14  15
ENDBRANCH   8  14
BRANCH   1  24
HETATM   24  C3  UNL     1      19.976   2.972  51.918  1.00  0.00     0.351 C 
BRANCH  24  25
HETATM   25  O2  UNL     1      20.283   2.298  53.088  1.00  0.00    -0.298 OA
BRANCH  25  26
HETATM   26  C2  UNL     1      20.639   1.002  53.285  1.00  0.00     0.256 C 
HETATM   27  C1  UNL     1      20.839   0.270  54.554  1.00  0.00     0.126 C 
HETATM   28  O1  UNL     1      20.848   0.241  52.340  1.00  0.00    -0.266 OA
ENDBRANCH  25  26
ENDBRANCH  24  25
ENDBRANCH   1  24
TORSDOF 6
ENDMDL
MODEL 6
REMARK VINA RESULT:      -7.7      4.364      6.680
REMARK  6 active torsions:
REMARK  status: ('A' for Active; 'I' for Inactive)
REMARK    1  A    between atoms: C2_2  and  O2_4 
REMARK    2  A    between atoms: O2_4  and  C3_5 
REMARK    3  A    between atoms: C3_5  and  N1_6 
REMARK    4  A    between atoms: C8_13  and  C9_14 
REMARK    5  A    between atoms: C9_14  and  N4_15 
REMARK    6  A    between atoms: N4_15  and  C10_16 
ROOT
HETATM    1  N1  UNL     1      21.624   4.596  50.056  1.00  0.00    -0.168 N 
HETATM    2  N2  UNL     1      21.739   5.952  50.501  1.00  0.00    -0.052 NA
HETATM    3  N3  UNL     1      22.811   6.373  51.085  1.00  0.00    -0.157 NA
HETATM    4  C4  UNL     1      23.839   5.332  51.217  1.00  0.00     0.114 A 
HETATM    5  C5  UNL     1      24.265   5.937  50.082  1.00  0.00     0.079 A 
HETATM    6  C6  UNL     1      25.084   4.945  49.606  1.00  0.00    -0.008 A 
HETATM    7  C7  UNL     1      24.553   4.519  50.759  1.00  0.00     0.096 A 
HETATM    8  C8  UNL     1      24.068   4.002  51.911  1.00  0.00     0.057 A 
HETATM    9  C16 UNL     1      23.250   4.991  52.389  1.00  0.00     0.000 A 
HETATM   10  N5  UNL     1      24.751   3.136  50.278  1.00  0.00    -0.267 NA
HETATM   11  C17 UNL     1      23.676   2.690  49.606  1.00  0.00     0.220 C 
HETATM   12  N6  UNL     1      22.662   3.721  49.569  1.00  0.00    -0.273 N 
HETATM   13  H17 UNL     1      22.586   4.125  48.595  1.00  0.00     0.189 HD
ENDROOT
BRANCH   8  14
HETATM   14  C9  UNL     1      24.155   2.803  52.782  1.00  0.00     0.139 C 
BRANCH  14  15
HETATM   15  N4  UNL     1      25.521   2.612  53.227  1.00  0.00    -0.389 N 
HETATM   16  H10 UNL     1      26.061   3.418  53.619  1.00  0.00     0.159 HD
BRANCH  15  17
HETATM   17  C10 UNL     1      26.153   1.361  53.144  1.00  0.00     0.029 A 
HETATM   18  C11 UNL     1      25.470   0.181  52.851  1.00  0.00     0.029 A 
HETATM   19  C12 UNL     1      26.116  -1.015  52.773  1.00  0.00     0.004 A 
HETATM   20  C13 UNL     1      27.489  -1.126  52.981  1.00  0.00     0.024 A 
HETATM   21  C14 UNL     1      28.213   0.022  53.276  1.00  0.00     0.036 A 
HETATM   22 CL1  UNL     1      29.958   0.019  53.564  1.00  0.00    -0.084 Cl
HETATM   23  C15 UNL     1      27.509   1.213  53.343  1.00  0.00     0.052 A 
ENDBRANCH  15  17
ENDBRANCH  14  15
ENDBRANCH   8  14
BRANCH   1  24
HETATM   24  C3  UNL     1      20.307   3.981  50.103  1.00  0.00     0.351 C 
BRANCH  24  25
HETATM   25  O2  UNL     1      20.232   2.757  50.748  1.00  0.00    -0.298 OA
BRANCH  25  26
HETATM   26  C2  UNL     1      20.391   2.447  52.060  1.00  0.00     0.256 C 
HETATM   27  C1  UNL     1      20.838   1.179  52.675  1.00  0.00     0.126 C 
HETATM   28  O1  UNL     1      20.159   3.268  52.948  1.00  0.00    -0.266 OA
ENDBRANCH  25  26
ENDBRANCH  24  25
ENDBRANCH   1  24
TORSDOF 6
ENDMDL
MODEL 7
REMARK VINA RESULT:      -7.4      3.993      6.324
REMARK  6 active torsions:
REMARK  status: ('A' for Active; 'I' for Inactive)
REMARK    1  A    between atoms: C2_2  and  O2_4 
REMARK    2  A    between atoms: O2_4  and  C3_5 
REMARK    3  A    between atoms: C3_5  and  N1_6 
REMARK    4  A    between atoms: C8_13  and  C9_14 
REMARK    5  A    between atoms: C9_14  and  N4_15 
REMARK    6  A    between atoms: N4_15  and  C10_16 
ROOT
HETATM    1  N1  UNL     1      23.772   5.483  50.529  1.00  0.00    -0.168 N 
HETATM    2  N2  UNL     1      24.584   5.181  49.387  1.00  0.00    -0.052 NA
HETATM    3  N3  UNL     1      24.979   3.975  49.152  1.00  0.00    -0.157 NA
HETATM    4  C4  UNL     1      24.503   3.010  50.151  1.00  0.00     0.114 A 
HETATM    5  C5  UNL     1      23.553   2.846  49.199  1.00  0.00     0.079 A 
HETATM    6  C6  UNL     1      22.592   2.231  49.961  1.00  0.00    -0.008 A 
HETATM    7  C7  UNL     1      23.643   2.481  50.752  1.00  0.00     0.096 A 
HETATM    8  C8  UNL     1      24.651   2.693  51.628  1.00  0.00     0.057 A 
HETATM    9  C16 UNL     1      25.613   3.307  50.869  1.00  0.00     0.000 A 
HETATM   10  N5  UNL     1      22.710   2.491  51.897  1.00  0.00    -0.267 NA
HETATM   11  C17 UNL     1      22.228   3.724  52.130  1.00  0.00     0.220 C 
HETATM   12  N6  UNL     1      22.783   4.652  51.170  1.00  0.00    -0.273 N 
HETATM   13  H17 UNL     1      22.043   4.945  50.473  1.00  0.00     0.189 HD
ENDROOT
BRANCH   8  14
HETATM   14  C9  UNL     1      25.039   2.462  53.042  1.00  0.00     0.139 C 
BRANCH  14  15
HETATM   15  N4  UNL     1      25.456   1.085  53.223  1.00  0.00    -0.389 N 
HETATM   16  H10 UNL     1      24.740   0.322  53.253  1.00  0.00     0.159 HD
BRANCH  15  17
HETATM   17  C10 UNL     1      26.809   0.739  53.364  1.00  0.00     0.029 A 
HETATM   18  C11 UNL     1      27.805   1.668  53.660  1.00  0.00     0.029 A 
HETATM   19  C12 UNL     1      29.109   1.296  53.797  1.00  0.00     0.004 A 
HETATM   20  C13 UNL     1      29.516  -0.027  53.647  1.00  0.00     0.024 A 
HETATM   21  C14 UNL     1      28.559  -0.990  53.350  1.00  0.00     0.036 A 
HETATM   22 CL1  UNL     1      28.944  -2.702  53.133  1.00  0.00    -0.084 Cl
HETATM   23  C15 UNL     1      27.249  -0.560  53.223  1.00  0.00     0.052 A 
ENDBRANCH  15  17
ENDBRANCH  14  15
ENDBRANCH   8  14
BRANCH   1  24
HETATM   24  C3  UNL     1      23.953   6.780  51.160  1.00  0.00     0.351 C 
BRANCH  24  25
HETATM   25  O2  UNL     1      23.052   7.765  50.791  1.00  0.00    -0.298 OA
BRANCH  25  26
HETATM   26  C2  UNL     1      22.970   8.493  49.648  1.00  0.00     0.256 C 
HETATM   27  C1  UNL     1      21.806   9.198  49.070  1.00  0.00     0.126 C 
HETATM   28  O1  UNL     1      23.945   8.652  48.914  1.00  0.00    -0.266 OA
ENDBRANCH  25  26
ENDBRANCH  24  25
ENDBRANCH   1  24
TORSDOF 6
ENDMDL
MODEL 8
REMARK VINA RESULT:      -7.4      3.989      6.318
REMARK  6 active torsions:
REMARK  status: ('A' for Active; 'I' for Inactive)
REMARK    1  A    between atoms: C2_2  and  O2_4 
REMARK    2  A    between atoms: O2_4  and  C3_5 
REMARK    3  A    between atoms: C3_5  and  N1_6 
REMARK    4  A    between atoms: C8_13  and  C9_14 
REMARK    5  A    between atoms: C9_14  and  N4_15 
REMARK    6  A    between atoms: N4_15  and  C10_16 
ROOT
HETATM    1  N1  UNL     1      21.766   4.368  49.615  1.00  0.00    -0.168 N 
HETATM    2  N2  UNL     1      22.449   3.784  48.500  1.00  0.00    -0.052 NA
HETATM    3  N3  UNL     1      22.917   2.583  48.561  1.00  0.00    -0.157 NA
HETATM    4  C4  UNL     1      22.661   1.932  49.852  1.00  0.00     0.114 A 
HETATM    5  C5  UNL     1      21.616   1.449  49.137  1.00  0.00     0.079 A 
HETATM    6  C6  UNL     1      20.819   1.039  50.175  1.00  0.00    -0.008 A 
HETATM    7  C7  UNL     1      21.935   1.561  50.699  1.00  0.00     0.096 A 
HETATM    8  C8  UNL     1      23.023   2.070  51.319  1.00  0.00     0.057 A 
HETATM    9  C16 UNL     1      23.822   2.480  50.284  1.00  0.00     0.000 A 
HETATM   10  N5  UNL     1      21.158   1.862  51.918  1.00  0.00    -0.267 NA
HETATM   11  C17 UNL     1      20.601   3.083  51.860  1.00  0.00     0.220 C 
HETATM   12  N6  UNL     1      20.944   3.715  50.605  1.00  0.00    -0.273 N 
HETATM   13  H17 UNL     1      20.098   3.754  49.971  1.00  0.00     0.189 HD
ENDROOT
BRANCH   8  14
HETATM   14  C9  UNL     1      23.607   2.284  52.667  1.00  0.00     0.139 C 
BRANCH  14  15
HETATM   15  N4  UNL     1      24.034   1.017  53.229  1.00  0.00    -0.389 N 
HETATM   16  H10 UNL     1      23.330   0.373  53.660  1.00  0.00     0.159 HD
BRANCH  15  17
HETATM   17  C10 UNL     1      25.381   0.624  53.215  1.00  0.00     0.029 A 
HETATM   18  C11 UNL     1      25.791  -0.678  52.930  1.00  0.00     0.029 A 
HETATM   19  C12 UNL     1      27.109  -1.024  52.920  1.00  0.00     0.004 A 
HETATM   20  C13 UNL     1      28.115  -0.100  53.193  1.00  0.00     0.024 A 
HETATM   21  C14 UNL     1      27.756   1.211  53.484  1.00  0.00     0.036 A 
HETATM   22 CL1  UNL     1      28.932   2.478  53.850  1.00  0.00    -0.084 Cl
HETATM   23  C15 UNL     1      26.404   1.510  53.480  1.00  0.00     0.052 A 
ENDBRANCH  15  17
ENDBRANCH  14  15
ENDBRANCH   8  14
BRANCH   1  24
HETATM   24  C3  UNL     1      21.908   5.801  49.819  1.00  0.00     0.351 C 
BRANCH  24  25
HETATM   25  O2  UNL     1      23.150   6.335  49.517  1.00  0.00    -0.298 OA
BRANCH  25  26
HETATM   26  C2  UNL     1      24.319   6.276  50.205  1.00  0.00     0.256 C 
HETATM   27  C1  UNL     1      25.625   5.724  49.784  1.00  0.00     0.126 C 
HETATM   28  O1  UNL     1      24.416   6.718  51.350  1.00  0.00    -0.266 OA
ENDBRANCH  25  26
ENDBRANCH  24  25
ENDBRANCH   1  24
TORSDOF 6
ENDMDL
MODEL 9
REMARK VINA RESULT:      -7.4      3.220      4.588
REMARK  6 active torsions:
REMARK  status: ('A' for Active; 'I' for Inactive)
REMARK    1  A    between atoms: C2_2  and  O2_4 
REMARK    2  A    between atoms: O2_4  and  C3_5 
REMARK    3  A    between atoms: C3_5  and  N1_6 
REMARK    4  A    between atoms: C8_13  and  C9_14 
REMARK    5  A    between atoms: C9_14  and  N4_15 
REMARK    6  A    between atoms: N4_15  and  C10_16 
ROOT
HETATM    1  N1  UNL     1      24.677   5.267  50.304  1.00  0.00    -0.168 N 
HETATM    2  N2  UNL     1      23.649   6.091  50.865  1.00  0.00    -0.052 NA
HETATM    3  N3  UNL     1      22.754   5.595  51.652  1.00  0.00    -0.157 NA
HETATM    4  C4  UNL     1      22.928   4.156  51.885  1.00  0.00     0.114 A 
HETATM    5  C5  UNL     1      23.563   4.647  52.977  1.00  0.00     0.079 A 
HETATM    6  C6  UNL     1      24.282   3.532  53.325  1.00  0.00    -0.008 A 
HETATM    7  C7  UNL     1      23.569   3.233  52.231  1.00  0.00     0.096 A 
HETATM    8  C8  UNL     1      22.891   2.840  51.130  1.00  0.00     0.057 A 
HETATM    9  C16 UNL     1      22.171   3.952  50.781  1.00  0.00     0.000 A 
HETATM   10  N5  UNL     1      24.584   2.209  51.914  1.00  0.00    -0.267 NA
HETATM   11  C17 UNL     1      25.568   2.710  51.148  1.00  0.00     0.220 C 
HETATM   12  N6  UNL     1      25.313   4.108  50.882  1.00  0.00    -0.273 N 
HETATM   13  H17 UNL     1      25.990   4.714  51.423  1.00  0.00     0.189 HD
ENDROOT
BRANCH   8  14
HETATM   14  C9  UNL     1      22.664   1.662  50.255  1.00  0.00     0.139 C 
BRANCH  14  15
HETATM   15  N4  UNL     1      21.352   1.100  50.511  1.00  0.00    -0.389 N 
HETATM   16  H10 UNL     1      20.572   1.267  49.834  1.00  0.00     0.159 HD
BRANCH  15  17
HETATM   17  C10 UNL     1      21.092   0.332  51.656  1.00  0.00     0.029 A 
HETATM   18  C11 UNL     1      22.096  -0.130  52.507  1.00  0.00     0.029 A 
HETATM   19  C12 UNL     1      21.807  -0.869  53.614  1.00  0.00     0.004 A 
HETATM   20  C13 UNL     1      20.498  -1.204  53.955  1.00  0.00     0.024 A 
HETATM   21  C14 UNL     1      19.463  -0.767  53.137  1.00  0.00     0.036 A 
HETATM   22 CL1  UNL     1      17.761  -1.124  53.456  1.00  0.00    -0.084 Cl
HETATM   23  C15 UNL     1      19.811  -0.019  52.025  1.00  0.00     0.052 A 
ENDBRANCH  15  17
ENDBRANCH  14  15
ENDBRANCH   8  14
BRANCH   1  24
HETATM   24  C3  UNL     1      25.156   5.600  48.972  1.00  0.00     0.351 C 
BRANCH  24  25
HETATM   25  O2  UNL     1      26.448   6.095  48.899  1.00  0.00    -0.298 OA
BRANCH  25  26
HETATM   26  C2  UNL     1      27.612   5.463  48.599  1.00  0.00     0.256 C 
HETATM   27  C1  UNL     1      28.864   6.022  48.046  1.00  0.00     0.126 C 
HETATM   28  O1  UNL     1      27.752   4.253  48.777  1.00  0.00    -0.266 OA
ENDBRANCH  25  26
ENDBRANCH  24  25
ENDBRANCH   1  24
TORSDOF 6
ENDMDL
