MODEL 1
REMARK VINA RESULT:      -7.4      0.000      0.000
REMARK  6 active torsions:
REMARK  status: ('A' for Active; 'I' for Inactive)
REMARK    1  A    between atoms: C3_3  and  O1_4 
REMARK    2  A    between atoms: O1_4  and  C4_5 
REMARK    3  A    between atoms: C5_6  and  O2_7 
REMARK    4  A    between atoms: C7_9  and  C8_10 
REMARK    5  A    between atoms: C10_14  and  N3_15 
REMARK    6  A    between atoms: N3_15  and  C11_16 
ROOT
HETATM    1  C1  UNL     1      22.151   2.018  48.015  1.00  0.00     0.014 C 
HETATM    2  C2  UNL     1      21.071   2.100  48.545  1.00  0.00    -0.091 C 
HETATM    3  C3  UNL     1      19.744   2.177  49.205  1.00  0.00     0.261 C 
ENDROOT
BRANCH   3   4
HETATM    4  O1  UNL     1      19.441   0.938  49.738  1.00  0.00    -0.363 OA
BRANCH   4   5
HETATM    5  C4  UNL     1      19.031   1.031  51.080  1.00  0.00     0.217 A 
HETATM    6  C5  UNL     1      18.577  -0.184  51.698  1.00  0.00     0.091 A 
HETATM    7  C7  UNL     1      19.874   0.291  52.019  1.00  0.00     0.039 A 
BRANCH   6   8
HETATM    8  O2  UNL     1      17.415  -0.916  51.622  1.00  0.00    -0.356 OA
HETATM    9  C6  UNL     1      16.354  -0.643  52.478  1.00  0.00     0.209 C 
ENDBRANCH   6   8
BRANCH   7  10
HETATM   10  C8  UNL     1      21.040  -0.022  52.822  1.00  0.00     0.079 A 
HETATM   11  N1  UNL     1      20.811  -1.005  53.707  1.00  0.00    -0.241 NA
HETATM   12  C9  UNL     1      21.772  -1.440  54.547  1.00  0.00     0.236 A 
HETATM   13  N2  UNL     1      22.964  -0.848  54.459  1.00  0.00    -0.224 NA
HETATM   14  C10 UNL     1      23.283   0.136  53.612  1.00  0.00     0.137 A 
HETATM   15  C17 UNL     1      22.279   0.573  52.750  1.00  0.00     0.013 A 
HETATM   16  C18 UNL     1      22.457   1.633  51.760  1.00  0.00     0.055 C 
BRANCH  14  17
HETATM   17  N3  UNL     1      24.557   0.757  53.533  1.00  0.00    -0.340 N 
HETATM   18  H9  UNL     1      24.586   1.811  53.580  1.00  0.00     0.167 HD
BRANCH  17  19
HETATM   19  C11 UNL     1      25.797   0.134  53.399  1.00  0.00     0.035 A 
HETATM   20  C12 UNL     1      26.058  -1.104  52.852  1.00  0.00     0.032 A 
HETATM   21  C13 UNL     1      27.281  -1.691  52.741  1.00  0.00     0.046 A 
HETATM   22  C14 UNL     1      28.395  -1.014  53.209  1.00  0.00     0.138 A 
HETATM   23  F1  UNL     1      29.630  -1.550  53.125  1.00  0.00    -0.204 F 
HETATM   24  C15 UNL     1      28.215   0.214  53.762  1.00  0.00     0.074 A 
HETATM   25 CL1  UNL     1      29.613   1.068  54.353  1.00  0.00    -0.081 Cl
HETATM   26  C16 UNL     1      26.964   0.753  53.847  1.00  0.00     0.056 A 
ENDBRANCH  17  19
ENDBRANCH  14  17
ENDBRANCH   7  10
ENDBRANCH   4   5
ENDBRANCH   3   4
TORSDOF 6
ENDMDL
MODEL 2
REMARK VINA RESULT:      -7.3      4.931      7.958
REMARK  6 active torsions:
REMARK  status: ('A' for Active; 'I' for Inactive)
REMARK    1  A    between atoms: C3_3  and  O1_4 
REMARK    2  A    between atoms: O1_4  and  C4_5 
REMARK    3  A    between atoms: C5_6  and  O2_7 
REMARK    4  A    between atoms: C7_9  and  C8_10 
REMARK    5  A    between atoms: C10_14  and  N3_15 
REMARK    6  A    between atoms: N3_15  and  C11_16 
ROOT
HETATM    1  C1  UNL     1      26.060   3.273  49.500  1.00  0.00     0.014 C 
HETATM    2  C2  UNL     1      26.567   2.893  50.526  1.00  0.00    -0.091 C 
HETATM    3  C3  UNL     1      27.168   2.417  51.797  1.00  0.00     0.261 C 
ENDROOT
BRANCH   3   4
HETATM    4  O1  UNL     1      26.151   2.034  52.651  1.00  0.00    -0.363 OA
BRANCH   4   5
HETATM    5  C4  UNL     1      26.051   0.634  52.752  1.00  0.00     0.217 A 
HETATM    6  C5  UNL     1      26.118   0.080  54.076  1.00  0.00     0.091 A 
HETATM    7  C7  UNL     1      24.851   0.165  53.444  1.00  0.00     0.039 A 
BRANCH   6   8
HETATM    8  O2  UNL     1      27.142  -0.148  54.965  1.00  0.00    -0.356 OA
HETATM    9  C6  UNL     1      28.466  -0.003  54.565  1.00  0.00     0.209 C 
ENDBRANCH   6   8
BRANCH   7  10
HETATM   10  C8  UNL     1      23.446  -0.128  53.653  1.00  0.00     0.079 A 
HETATM   11  N1  UNL     1      23.251  -1.233  54.390  1.00  0.00    -0.241 NA
HETATM   12  C9  UNL     1      22.014  -1.673  54.693  1.00  0.00     0.236 A 
HETATM   13  N2  UNL     1      20.988  -0.958  54.228  1.00  0.00    -0.224 NA
HETATM   14  C10 UNL     1      21.085   0.151  53.488  1.00  0.00     0.137 A 
HETATM   15  C17 UNL     1      22.372   0.592  53.184  1.00  0.00     0.013 A 
HETATM   16  C18 UNL     1      22.659   1.786  52.392  1.00  0.00     0.055 C 
BRANCH  14  17
HETATM   17  N3  UNL     1      19.982   0.898  52.998  1.00  0.00    -0.340 N 
HETATM   18  H9  UNL     1      19.900   1.903  53.311  1.00  0.00     0.167 HD
BRANCH  17  19
HETATM   19  C11 UNL     1      18.977   0.459  52.138  1.00  0.00     0.035 A 
HETATM   20  C12 UNL     1      18.744   0.868  50.842  1.00  0.00     0.032 A 
HETATM   21  C13 UNL     1      17.748   0.427  50.027  1.00  0.00     0.046 A 
HETATM   22  C14 UNL     1      16.862  -0.525  50.505  1.00  0.00     0.138 A 
HETATM   23  F1  UNL     1      15.857  -0.996  49.741  1.00  0.00    -0.204 F 
HETATM   24  C15 UNL     1      17.029  -0.977  51.775  1.00  0.00     0.074 A 
HETATM   25 CL1  UNL     1      15.917  -2.173  52.381  1.00  0.00    -0.081 Cl
HETATM   26  C16 UNL     1      18.048  -0.497  52.548  1.00  0.00     0.056 A 
ENDBRANCH  17  19
ENDBRANCH  14  17
ENDBRANCH   7  10
ENDBRANCH   4   5
ENDBRANCH   3   4
TORSDOF 6
ENDMDL
MODEL 3
REMARK VINA RESULT:      -7.2      5.002      6.410
REMARK  6 active torsions:
REMARK  status: ('A' for Active; 'I' for Inactive)
REMARK    1  A    between atoms: C3_3  and  O1_4 
REMARK    2  A    between atoms: O1_4  and  C4_5 
REMARK    3  A    between atoms: C5_6  and  O2_7 
REMARK    4  A    between atoms: C7_9  and  C8_10 
REMARK    5  A    between atoms: C10_14  and  N3_15 
REMARK    6  A    between atoms: N3_15  and  C11_16 
ROOT
HETATM    1  C1  UNL     1      18.323   0.389  50.411  1.00  0.00     0.014 C 
HETATM    2  C2  UNL     1      19.104   0.339  51.329  1.00  0.00    -0.091 C 
HETATM    3  C3  UNL     1      20.082   0.292  52.444  1.00  0.00     0.261 C 
ENDROOT
BRANCH   3   4
HETATM    4  O1  UNL     1      21.263   0.874  52.023  1.00  0.00    -0.363 OA
BRANCH   4   5
HETATM    5  C4  UNL     1      22.140   1.114  53.097  1.00  0.00     0.217 A 
HETATM    6  C5  UNL     1      23.061   0.060  53.421  1.00  0.00     0.091 A 
HETATM    7  C7  UNL     1      23.550   1.189  52.716  1.00  0.00     0.039 A 
BRANCH   6   8
HETATM    8  O2  UNL     1      22.940  -1.144  54.074  1.00  0.00    -0.356 OA
HETATM    9  C6  UNL     1      21.942  -1.334  55.022  1.00  0.00     0.209 C 
ENDBRANCH   6   8
BRANCH   7  10
HETATM   10  C8  UNL     1      24.760   1.739  52.136  1.00  0.00     0.079 A 
HETATM   11  N1  UNL     1      25.843   1.529  52.901  1.00  0.00    -0.241 NA
HETATM   12  C9  UNL     1      27.065   1.966  52.534  1.00  0.00     0.236 A 
HETATM   13  N2  UNL     1      27.149   2.618  51.374  1.00  0.00    -0.224 NA
HETATM   14  C10 UNL     1      26.128   2.875  50.549  1.00  0.00     0.137 A 
HETATM   15  C17 UNL     1      24.873   2.415  50.943  1.00  0.00     0.013 A 
HETATM   16  C18 UNL     1      23.653   2.605  50.161  1.00  0.00     0.055 C 
BRANCH  14  17
HETATM   17  N3  UNL     1      26.236   3.574  49.319  1.00  0.00    -0.340 N 
HETATM   18  H9  UNL     1      25.985   3.047  48.439  1.00  0.00     0.167 HD
BRANCH  17  19
HETATM   19  C11 UNL     1      26.638   4.895  49.127  1.00  0.00     0.035 A 
HETATM   20  C12 UNL     1      27.779   5.340  48.495  1.00  0.00     0.032 A 
HETATM   21  C13 UNL     1      28.150   6.639  48.329  1.00  0.00     0.046 A 
HETATM   22  C14 UNL     1      27.332   7.639  48.826  1.00  0.00     0.138 A 
HETATM   23  F1  UNL     1      27.653   8.942  48.691  1.00  0.00    -0.204 F 
HETATM   24  C15 UNL     1      26.188   7.277  49.463  1.00  0.00     0.074 A 
HETATM   25 CL1  UNL     1      25.157   8.532  50.092  1.00  0.00    -0.081 Cl
HETATM   26  C16 UNL     1      25.867   5.957  49.600  1.00  0.00     0.056 A 
ENDBRANCH  17  19
ENDBRANCH  14  17
ENDBRANCH   7  10
ENDBRANCH   4   5
ENDBRANCH   3   4
TORSDOF 6
ENDMDL
MODEL 4
REMARK VINA RESULT:      -7.1      5.018      6.819
REMARK  6 active torsions:
REMARK  status: ('A' for Active; 'I' for Inactive)
REMARK    1  A    between atoms: C3_3  and  O1_4 
REMARK    2  A    between atoms: O1_4  and  C4_5 
REMARK    3  A    between atoms: C5_6  and  O2_7 
REMARK    4  A    between atoms: C7_9  and  C8_10 
REMARK    5  A    between atoms: C10_14  and  N3_15 
REMARK    6  A    between atoms: N3_15  and  C11_16 
ROOT
HETATM    1  C1  UNL     1      27.112  -0.258  52.348  1.00  0.00     0.014 C 
HETATM    2  C2  UNL     1      26.113  -0.529  52.967  1.00  0.00    -0.091 C 
HETATM    3  C3  UNL     1      24.874  -0.839  53.723  1.00  0.00     0.261 C 
ENDROOT
BRANCH   3   4
HETATM    4  O1  UNL     1      24.100   0.304  53.793  1.00  0.00    -0.363 OA
BRANCH   4   5
HETATM    5  C4  UNL     1      22.997   0.243  52.923  1.00  0.00     0.217 A 
HETATM    6  C5  UNL     1      21.707   0.503  53.502  1.00  0.00     0.091 A 
HETATM    7  C7  UNL     1      22.316   1.523  52.726  1.00  0.00     0.039 A 
BRANCH   6   8
HETATM    8  O2  UNL     1      20.849  -0.231  54.287  1.00  0.00    -0.356 OA
HETATM    9  C6  UNL     1      20.931  -1.618  54.313  1.00  0.00     0.209 C 
ENDBRANCH   6   8
BRANCH   7  10
HETATM   10  C8  UNL     1      22.103   2.874  52.245  1.00  0.00     0.079 A 
HETATM   11  N1  UNL     1      20.906   3.034  51.660  1.00  0.00    -0.241 NA
HETATM   12  C9  UNL     1      20.521   4.220  51.148  1.00  0.00     0.236 A 
HETATM   13  N2  UNL     1      21.385   5.231  51.249  1.00  0.00    -0.224 NA
HETATM   14  C10 UNL     1      22.596   5.166  51.812  1.00  0.00     0.137 A 
HETATM   15  C17 UNL     1      22.978   3.932  52.338  1.00  0.00     0.013 A 
HETATM   16  C18 UNL     1      24.262   3.686  52.991  1.00  0.00     0.055 C 
BRANCH  14  17
HETATM   17  N3  UNL     1      23.505   6.251  51.908  1.00  0.00    -0.340 N 
HETATM   18  H9  UNL     1      23.622   6.703  52.855  1.00  0.00     0.167 HD
BRANCH  17  19
HETATM   19  C11 UNL     1      24.277   6.802  50.887  1.00  0.00     0.035 A 
HETATM   20  C12 UNL     1      24.183   8.071  50.356  1.00  0.00     0.032 A 
HETATM   21  C13 UNL     1      24.947   8.580  49.352  1.00  0.00     0.046 A 
HETATM   22  C14 UNL     1      25.925   7.783  48.783  1.00  0.00     0.138 A 
HETATM   23  F1  UNL     1      26.710   8.237  47.785  1.00  0.00    -0.204 F 
HETATM   24  C15 UNL     1      26.079   6.519  49.255  1.00  0.00     0.074 A 
HETATM   25 CL1  UNL     1      27.307   5.511  48.541  1.00  0.00    -0.081 Cl
HETATM   26  C16 UNL     1      25.282   6.061  50.265  1.00  0.00     0.056 A 
ENDBRANCH  17  19
ENDBRANCH  14  17
ENDBRANCH   7  10
ENDBRANCH   4   5
ENDBRANCH   3   4
TORSDOF 6
ENDMDL
MODEL 5
REMARK VINA RESULT:      -6.9      5.252      6.959
REMARK  6 active torsions:
REMARK  status: ('A' for Active; 'I' for Inactive)
REMARK    1  A    between atoms: C3_3  and  O1_4 
REMARK    2  A    between atoms: O1_4  and  C4_5 
REMARK    3  A    between atoms: C5_6  and  O2_7 
REMARK    4  A    between atoms: C7_9  and  C8_10 
REMARK    5  A    between atoms: C10_14  and  N3_15 
REMARK    6  A    between atoms: N3_15  and  C11_16 
ROOT
HETATM    1  C1  UNL     1      28.612   9.734  48.754  1.00  0.00     0.014 C 
HETATM    2  C2  UNL     1      28.257   8.750  48.154  1.00  0.00    -0.091 C 
HETATM    3  C3  UNL     1      27.811   7.530  47.436  1.00  0.00     0.261 C 
ENDROOT
BRANCH   3   4
HETATM    4  O1  UNL     1      27.383   6.601  48.366  1.00  0.00    -0.363 OA
BRANCH   4   5
HETATM    5  C4  UNL     1      26.268   7.060  49.090  1.00  0.00     0.217 A 
HETATM    6  C5  UNL     1      24.977   6.785  48.523  1.00  0.00     0.091 A 
HETATM    7  C7  UNL     1      25.414   5.997  49.618  1.00  0.00     0.039 A 
BRANCH   6   8
HETATM    8  O2  UNL     1      24.254   7.330  47.487  1.00  0.00    -0.356 OA
HETATM    9  C6  UNL     1      24.339   8.688  47.208  1.00  0.00     0.209 C 
ENDBRANCH   6   8
BRANCH   7  10
HETATM   10  C8  UNL     1      25.005   4.899  50.473  1.00  0.00     0.079 A 
HETATM   11  N1  UNL     1      24.072   5.260  51.368  1.00  0.00    -0.241 NA
HETATM   12  C9  UNL     1      23.563   4.380  52.254  1.00  0.00     0.236 A 
HETATM   13  N2  UNL     1      24.029   3.132  52.201  1.00  0.00    -0.224 NA
HETATM   14  C10 UNL     1      24.955   2.683  51.347  1.00  0.00     0.137 A 
HETATM   15  C17 UNL     1      25.470   3.605  50.437  1.00  0.00     0.013 A 
HETATM   16  C18 UNL     1      26.483   3.283  49.434  1.00  0.00     0.055 C 
BRANCH  14  17
HETATM   17  N3  UNL     1      25.443   1.351  51.306  1.00  0.00    -0.340 N 
HETATM   18  H9  UNL     1      25.000   0.694  50.607  1.00  0.00     0.167 HD
BRANCH  17  19
HETATM   19  C11 UNL     1      26.452   0.793  52.089  1.00  0.00     0.035 A 
HETATM   20  C12 UNL     1      26.694  -0.544  52.318  1.00  0.00     0.032 A 
HETATM   21  C13 UNL     1      27.684  -1.060  53.095  1.00  0.00     0.046 A 
HETATM   22  C14 UNL     1      28.555  -0.194  53.735  1.00  0.00     0.138 A 
HETATM   23  F1  UNL     1      29.554  -0.651  54.518  1.00  0.00    -0.204 F 
HETATM   24  C15 UNL     1      28.379   1.141  53.556  1.00  0.00     0.074 A 
HETATM   25 CL1  UNL     1      29.471   2.235  54.361  1.00  0.00    -0.081 Cl
HETATM   26  C16 UNL     1      27.366   1.601  52.765  1.00  0.00     0.056 A 
ENDBRANCH  17  19
ENDBRANCH  14  17
ENDBRANCH   7  10
ENDBRANCH   4   5
ENDBRANCH   3   4
TORSDOF 6
ENDMDL
MODEL 6
REMARK VINA RESULT:      -6.8      6.108      8.020
REMARK  6 active torsions:
REMARK  status: ('A' for Active; 'I' for Inactive)
REMARK    1  A    between atoms: C3_3  and  O1_4 
REMARK    2  A    between atoms: O1_4  and  C4_5 
REMARK    3  A    between atoms: C5_6  and  O2_7 
REMARK    4  A    between atoms: C7_9  and  C8_10 
REMARK    5  A    between atoms: C10_14  and  N3_15 
REMARK    6  A    between atoms: N3_15  and  C11_16 
ROOT
HETATM    1  C1  UNL     1      24.787   8.471  43.993  1.00  0.00     0.014 C 
HETATM    2  C2  UNL     1      25.648   8.553  44.834  1.00  0.00    -0.091 C 
HETATM    3  C3  UNL     1      26.692   8.644  45.885  1.00  0.00     0.261 C 
ENDROOT
BRANCH   3   4
HETATM    4  O1  UNL     1      26.127   8.307  47.100  1.00  0.00    -0.363 OA
BRANCH   4   5
HETATM    5  C4  UNL     1      27.042   7.639  47.935  1.00  0.00     0.217 A 
HETATM    6  C5  UNL     1      27.214   8.175  49.257  1.00  0.00     0.091 A 
HETATM    7  C7  UNL     1      26.435   7.000  49.102  1.00  0.00     0.039 A 
BRANCH   6   8
HETATM    8  O2  UNL     1      27.882   9.265  49.764  1.00  0.00    -0.356 OA
HETATM    9  C6  UNL     1      28.779   9.972  48.972  1.00  0.00     0.209 C 
ENDBRANCH   6   8
BRANCH   7  10
HETATM   10  C8  UNL     1      25.663   6.032  49.858  1.00  0.00     0.079 A 
HETATM   11  N1  UNL     1      24.658   6.595  50.547  1.00  0.00    -0.241 NA
HETATM   12  C9  UNL     1      23.826   5.861  51.313  1.00  0.00     0.236 A 
HETATM   13  N2  UNL     1      24.047   4.546  51.354  1.00  0.00    -0.224 NA
HETATM   14  C10 UNL     1      25.020   3.899  50.704  1.00  0.00     0.137 A 
HETATM   15  C17 UNL     1      25.870   4.673  49.916  1.00  0.00     0.013 A 
HETATM   16  C18 UNL     1      26.980   4.130  49.137  1.00  0.00     0.055 C 
BRANCH  14  17
HETATM   17  N3  UNL     1      25.242   2.499  50.762  1.00  0.00    -0.340 N 
HETATM   18  H9  UNL     1      24.904   1.920  49.946  1.00  0.00     0.167 HD
BRANCH  17  19
HETATM   19  C11 UNL     1      25.864   1.781  51.782  1.00  0.00     0.035 A 
HETATM   20  C12 UNL     1      25.459   0.585  52.333  1.00  0.00     0.032 A 
HETATM   21  C13 UNL     1      26.084  -0.091  53.336  1.00  0.00     0.046 A 
HETATM   22  C14 UNL     1      27.240   0.439  53.883  1.00  0.00     0.138 A 
HETATM   23  F1  UNL     1      27.899  -0.188  54.879  1.00  0.00    -0.204 F 
HETATM   24  C15 UNL     1      27.702   1.618  53.390  1.00  0.00     0.074 A 
HETATM   25 CL1  UNL     1      29.156   2.289  54.076  1.00  0.00    -0.081 Cl
HETATM   26  C16 UNL     1      27.033   2.251  52.383  1.00  0.00     0.056 A 
ENDBRANCH  17  19
ENDBRANCH  14  17
ENDBRANCH   7  10
ENDBRANCH   4   5
ENDBRANCH   3   4
TORSDOF 6
ENDMDL
MODEL 7
REMARK VINA RESULT:      -6.7      6.344      8.311
REMARK  6 active torsions:
REMARK  status: ('A' for Active; 'I' for Inactive)
REMARK    1  A    between atoms: C3_3  and  O1_4 
REMARK    2  A    between atoms: O1_4  and  C4_5 
REMARK    3  A    between atoms: C5_6  and  O2_7 
REMARK    4  A    between atoms: C7_9  and  C8_10 
REMARK    5  A    between atoms: C10_14  and  N3_15 
REMARK    6  A    between atoms: N3_15  and  C11_16 
ROOT
HETATM    1  C1  UNL     1      30.736   9.464  49.095  1.00  0.00     0.014 C 
HETATM    2  C2  UNL     1      30.205   8.788  48.249  1.00  0.00    -0.091 C 
HETATM    3  C3  UNL     1      29.536   7.946  47.226  1.00  0.00     0.261 C 
ENDROOT
BRANCH   3   4
HETATM    4  O1  UNL     1      28.636   7.110  47.860  1.00  0.00    -0.363 OA
BRANCH   4   5
HETATM    5  C4  UNL     1      27.529   7.817  48.362  1.00  0.00     0.217 A 
HETATM    6  C5  UNL     1      26.308   7.716  47.610  1.00  0.00     0.091 A 
HETATM    7  C7  UNL     1      26.425   6.968  48.809  1.00  0.00     0.039 A 
BRANCH   6   8
HETATM    8  O2  UNL     1      25.860   8.280  46.438  1.00  0.00    -0.356 OA
HETATM    9  C6  UNL     1      24.839   9.222  46.457  1.00  0.00     0.209 C 
ENDBRANCH   6   8
BRANCH   7  10
HETATM   10  C8  UNL     1      25.699   6.038  49.652  1.00  0.00     0.079 A 
HETATM   11  N1  UNL     1      24.680   6.619  50.305  1.00  0.00    -0.241 NA
HETATM   12  C9  UNL     1      23.884   5.921  51.141  1.00  0.00     0.236 A 
HETATM   13  N2  UNL     1      24.155   4.624  51.289  1.00  0.00    -0.224 NA
HETATM   14  C10 UNL     1      25.146   3.962  50.683  1.00  0.00     0.137 A 
HETATM   15  C17 UNL     1      25.958   4.698  49.822  1.00  0.00     0.013 A 
HETATM   16  C18 UNL     1      27.081   4.133  49.077  1.00  0.00     0.055 C 
BRANCH  14  17
HETATM   17  N3  UNL     1      25.423   2.580  50.855  1.00  0.00    -0.340 N 
HETATM   18  H9  UNL     1      25.154   1.930  50.068  1.00  0.00     0.167 HD
BRANCH  17  19
HETATM   19  C11 UNL     1      26.017   1.966  51.956  1.00  0.00     0.035 A 
HETATM   20  C12 UNL     1      27.289   2.171  52.445  1.00  0.00     0.032 A 
HETATM   21  C13 UNL     1      27.846   1.549  53.520  1.00  0.00     0.046 A 
HETATM   22  C14 UNL     1      27.098   0.617  54.218  1.00  0.00     0.138 A 
HETATM   23  F1  UNL     1      27.601  -0.029  55.290  1.00  0.00    -0.204 F 
HETATM   24  C15 UNL     1      25.832   0.362  53.795  1.00  0.00     0.074 A 
HETATM   25 CL1  UNL     1      24.887  -0.811  54.669  1.00  0.00    -0.081 Cl
HETATM   26  C16 UNL     1      25.326   1.016  52.709  1.00  0.00     0.056 A 
ENDBRANCH  17  19
ENDBRANCH  14  17
ENDBRANCH   7  10
ENDBRANCH   4   5
ENDBRANCH   3   4
TORSDOF 6
ENDMDL
MODEL 8
REMARK VINA RESULT:      -6.6      6.467      8.789
REMARK  6 active torsions:
REMARK  status: ('A' for Active; 'I' for Inactive)
REMARK    1  A    between atoms: C3_3  and  O1_4 
REMARK    2  A    between atoms: O1_4  and  C4_5 
REMARK    3  A    between atoms: C5_6  and  O2_7 
REMARK    4  A    between atoms: C7_9  and  C8_10 
REMARK    5  A    between atoms: C10_14  and  N3_15 
REMARK    6  A    between atoms: N3_15  and  C11_16 
ROOT
HETATM    1  C1  UNL     1      30.727   8.521  49.141  1.00  0.00     0.014 C 
HETATM    2  C2  UNL     1      30.237   7.722  48.383  1.00  0.00    -0.091 C 
HETATM    3  C3  UNL     1      29.616   6.735  47.465  1.00  0.00     0.261 C 
ENDROOT
BRANCH   3   4
HETATM    4  O1  UNL     1      28.534   6.158  48.102  1.00  0.00    -0.363 OA
BRANCH   4   5
HETATM    5  C4  UNL     1      27.644   7.125  48.603  1.00  0.00     0.217 A 
HETATM    6  C5  UNL     1      26.418   7.308  47.875  1.00  0.00     0.091 A 
HETATM    7  C7  UNL     1      26.378   6.582  49.093  1.00  0.00     0.039 A 
BRANCH   6   8
HETATM    8  O2  UNL     1      26.093   7.936  46.696  1.00  0.00    -0.356 OA
HETATM    9  C6  UNL     1      26.119   9.323  46.607  1.00  0.00     0.209 C 
ENDBRANCH   6   8
BRANCH   7  10
HETATM   10  C8  UNL     1      25.468   5.878  49.976  1.00  0.00     0.079 A 
HETATM   11  N1  UNL     1      24.629   6.705  50.622  1.00  0.00    -0.241 NA
HETATM   12  C9  UNL     1      23.707   6.242  51.489  1.00  0.00     0.236 A 
HETATM   13  N2  UNL     1      23.664   4.922  51.677  1.00  0.00    -0.224 NA
HETATM   14  C10 UNL     1      24.456   4.025  51.081  1.00  0.00     0.137 A 
HETATM   15  C17 UNL     1      25.404   4.520  50.187  1.00  0.00     0.013 A 
HETATM   16  C18 UNL     1      26.344   3.681  49.447  1.00  0.00     0.055 C 
BRANCH  14  17
HETATM   17  N3  UNL     1      24.399   2.623  51.296  1.00  0.00    -0.340 N 
HETATM   18  H9  UNL     1      25.316   2.102  51.346  1.00  0.00     0.167 HD
BRANCH  17  19
HETATM   19  C11 UNL     1      23.259   1.836  51.451  1.00  0.00     0.035 A 
HETATM   20  C12 UNL     1      22.376   1.437  50.472  1.00  0.00     0.032 A 
HETATM   21  C13 UNL     1      21.265   0.673  50.655  1.00  0.00     0.046 A 
HETATM   22  C14 UNL     1      20.957   0.231  51.930  1.00  0.00     0.138 A 
HETATM   23  F1  UNL     1      19.868  -0.528  52.168  1.00  0.00    -0.204 F 
HETATM   24  C15 UNL     1      21.784   0.584  52.949  1.00  0.00     0.074 A 
HETATM   25 CL1  UNL     1      21.400   0.032  54.556  1.00  0.00    -0.081 Cl
HETATM   26  C16 UNL     1      22.884   1.354  52.705  1.00  0.00     0.056 A 
ENDBRANCH  17  19
ENDBRANCH  14  17
ENDBRANCH   7  10
ENDBRANCH   4   5
ENDBRANCH   3   4
TORSDOF 6
ENDMDL
MODEL 9
REMARK VINA RESULT:      -6.5      5.407      8.225
REMARK  6 active torsions:
REMARK  status: ('A' for Active; 'I' for Inactive)
REMARK    1  A    between atoms: C3_3  and  O1_4 
REMARK    2  A    between atoms: O1_4  and  C4_5 
REMARK    3  A    between atoms: C5_6  and  O2_7 
REMARK    4  A    between atoms: C7_9  and  C8_10 
REMARK    5  A    between atoms: C10_14  and  N3_15 
REMARK    6  A    between atoms: N3_15  and  C11_16 
ROOT
HETATM    1  C1  UNL     1      20.536   0.630  53.832  1.00  0.00     0.014 C 
HETATM    2  C2  UNL     1      21.389  -0.215  53.952  1.00  0.00    -0.091 C 
HETATM    3  C3  UNL     1      22.453  -1.241  54.085  1.00  0.00     0.261 C 
ENDROOT
BRANCH   3   4
HETATM    4  O1  UNL     1      23.483  -0.926  53.219  1.00  0.00    -0.363 OA
BRANCH   4   5
HETATM    5  C4  UNL     1      24.278   0.125  53.712  1.00  0.00     0.217 A 
HETATM    6  C5  UNL     1      25.689   0.040  53.449  1.00  0.00     0.091 A 
HETATM    7  C7  UNL     1      24.911   0.938  52.674  1.00  0.00     0.039 A 
BRANCH   6   8
HETATM    8  O2  UNL     1      26.717  -0.699  53.986  1.00  0.00    -0.356 OA
HETATM    9  C6  UNL     1      27.876  -0.073  54.429  1.00  0.00     0.209 C 
ENDBRANCH   6   8
BRANCH   7  10
HETATM   10  C8  UNL     1      25.014   1.908  51.601  1.00  0.00     0.079 A 
HETATM   11  N1  UNL     1      26.283   2.261  51.342  1.00  0.00    -0.241 NA
HETATM   12  C9  UNL     1      26.587   3.153  50.378  1.00  0.00     0.236 A 
HETATM   13  N2  UNL     1      25.568   3.670  49.690  1.00  0.00    -0.224 NA
HETATM   14  C10 UNL     1      24.276   3.380  49.878  1.00  0.00     0.137 A 
HETATM   15  C17 UNL     1      23.979   2.455  50.878  1.00  0.00     0.013 A 
HETATM   16  C18 UNL     1      22.624   2.022  51.212  1.00  0.00     0.055 C 
BRANCH  14  17
HETATM   17  N3  UNL     1      23.203   3.943  49.140  1.00  0.00    -0.340 N 
HETATM   18  H9  UNL     1      22.828   3.384  48.326  1.00  0.00     0.167 HD
BRANCH  17  19
HETATM   19  C11 UNL     1      22.571   5.166  49.361  1.00  0.00     0.035 A 
HETATM   20  C12 UNL     1      22.445   5.840  50.556  1.00  0.00     0.032 A 
HETATM   21  C13 UNL     1      21.815   7.032  50.744  1.00  0.00     0.046 A 
HETATM   22  C14 UNL     1      21.233   7.661  49.656  1.00  0.00     0.138 A 
HETATM   23  F1  UNL     1      20.595   8.842  49.786  1.00  0.00    -0.204 F 
HETATM   24  C15 UNL     1      21.317   7.056  48.443  1.00  0.00     0.074 A 
HETATM   25 CL1  UNL     1      20.584   7.843  47.072  1.00  0.00    -0.081 Cl
HETATM   26  C16 UNL     1      21.962   5.859  48.315  1.00  0.00     0.056 A 
ENDBRANCH  17  19
ENDBRANCH  14  17
ENDBRANCH   7  10
ENDBRANCH   4   5
ENDBRANCH   3   4
TORSDOF 6
ENDMDL
