MODEL 1
REMARK VINA RESULT:      -9.1      0.000      0.000
REMARK  5 active torsions:
REMARK  status: ('A' for Active; 'I' for Inactive)
REMARK    1  A    between atoms: C2_3  and  C3_4 
REMARK    2  A    between atoms: C4_5  and  C5_6 
REMARK    3  A    between atoms: C5_6  and  C6_7 
REMARK    4  A    between atoms: C8_9  and  C9_10 
REMARK    5  A    between atoms: N2_21  and  C17_22 
ROOT
HETATM    1  C6  UNL     1      22.511   2.734  52.205  1.00  0.00     0.119 C 
HETATM    2  C7  UNL     1      23.843   2.886  52.906  1.00  0.00     0.089 C 
HETATM    3  C8  UNL     1      24.424   1.512  52.778  1.00  0.00     0.067 C 
HETATM    4  N1  UNL     1      23.475   0.676  52.434  1.00  0.00    -0.175 NA
HETATM    5  N2  UNL     1      22.248   1.329  52.299  1.00  0.00    -0.264 N 
ENDROOT
BRANCH   3   6
HETATM    6  C9  UNL     1      25.806   1.090  52.987  1.00  0.00    -0.007 A 
HETATM    7  C10 UNL     1      26.769   2.068  53.130  1.00  0.00     0.016 A 
HETATM    8  C11 UNL     1      28.092   1.724  53.331  1.00  0.00     0.040 A 
HETATM    9  C12 UNL     1      28.370   0.371  53.378  1.00  0.00     0.102 A 
HETATM   10  C13 UNL     1      27.433  -0.641  53.240  1.00  0.00     0.103 A 
HETATM   11  O2  UNL     1      29.704   0.040  53.582  1.00  0.00    -0.346 OA
HETATM   12  C14 UNL     1      26.127  -0.249  53.041  1.00  0.00     0.053 A 
HETATM   13  O1  UNL     1      27.857  -1.944  53.310  1.00  0.00    -0.346 OA
HETATM   14  C15 UNL     1      29.221  -2.308  53.212  1.00  0.00     0.202 C 
HETATM   15  C16 UNL     1      30.130  -1.281  53.847  1.00  0.00     0.202 C 
ENDBRANCH   3   6
BRANCH   1  16
HETATM   16  C5  UNL     1      22.647   3.205  50.774  1.00  0.00     0.055 C 
BRANCH  16  17
HETATM   17  C4  UNL     1      23.874   3.990  50.559  1.00  0.00    -0.025 C 
HETATM   18  C3  UNL     1      24.820   3.564  49.743  1.00  0.00    -0.003 C 
BRANCH  18  19
HETATM   19  C2  UNL     1      26.126   4.011  49.266  1.00  0.00     0.011 C 
HETATM   20  C1  UNL     1      26.609   5.221  48.943  1.00  0.00     0.084 C 
HETATM   21 CL1  UNL     1      28.290   5.161  48.420  1.00  0.00    -0.097 Cl
ENDBRANCH  18  19
ENDBRANCH  16  17
ENDBRANCH   1  16
BRANCH   5  22
HETATM   22  C17 UNL     1      20.966   0.704  52.261  1.00  0.00     0.053 A 
HETATM   23  C18 UNL     1      20.154   0.870  51.155  1.00  0.00     0.031 A 
HETATM   24  C19 UNL     1      18.897   0.255  51.126  1.00  0.00     0.002 A 
HETATM   25  C20 UNL     1      18.440  -0.524  52.188  1.00  0.00     0.000 A 
HETATM   26  C21 UNL     1      19.301  -0.660  53.283  1.00  0.00     0.002 A 
HETATM   27  C22 UNL     1      20.543  -0.060  53.330  1.00  0.00     0.031 A 
ENDBRANCH   5  22
TORSDOF 5
ENDMDL
MODEL 2
REMARK VINA RESULT:      -8.8      1.209      2.112
REMARK  5 active torsions:
REMARK  status: ('A' for Active; 'I' for Inactive)
REMARK    1  A    between atoms: C2_3  and  C3_4 
REMARK    2  A    between atoms: C4_5  and  C5_6 
REMARK    3  A    between atoms: C5_6  and  C6_7 
REMARK    4  A    between atoms: C8_9  and  C9_10 
REMARK    5  A    between atoms: N2_21  and  C17_22 
ROOT
HETATM    1  C6  UNL     1      21.477   2.288  51.818  1.00  0.00     0.119 C 
HETATM    2  C7  UNL     1      22.763   2.525  52.579  1.00  0.00     0.089 C 
HETATM    3  C8  UNL     1      23.311   1.139  52.710  1.00  0.00     0.067 C 
HETATM    4  N1  UNL     1      22.365   0.275  52.435  1.00  0.00    -0.175 NA
HETATM    5  N2  UNL     1      21.168   0.920  52.112  1.00  0.00    -0.264 N 
ENDROOT
BRANCH   3   6
HETATM    6  C9  UNL     1      24.664   0.731  53.080  1.00  0.00    -0.007 A 
HETATM    7  C10 UNL     1      24.920  -0.617  53.224  1.00  0.00     0.016 A 
HETATM    8  C11 UNL     1      26.182  -1.057  53.571  1.00  0.00     0.040 A 
HETATM    9  C12 UNL     1      27.140  -0.078  53.756  1.00  0.00     0.102 A 
HETATM   10  C13 UNL     1      26.925   1.284  53.621  1.00  0.00     0.103 A 
HETATM   11  O2  UNL     1      28.405  -0.536  54.103  1.00  0.00    -0.346 OA
HETATM   12  C14 UNL     1      25.649   1.675  53.274  1.00  0.00     0.053 A 
HETATM   13  O1  UNL     1      27.974   2.141  53.837  1.00  0.00    -0.346 OA
HETATM   14  C15 UNL     1      29.169   1.737  54.476  1.00  0.00     0.202 C 
HETATM   15  C16 UNL     1      29.537   0.309  54.141  1.00  0.00     0.202 C 
ENDBRANCH   3   6
BRANCH   1  16
HETATM   16  C5  UNL     1      21.722   2.523  50.345  1.00  0.00     0.055 C 
BRANCH  16  17
HETATM   17  C4  UNL     1      22.787   3.512  50.106  1.00  0.00    -0.025 C 
HETATM   18  C3  UNL     1      23.934   3.158  49.557  1.00  0.00    -0.003 C 
BRANCH  18  19
HETATM   19  C2  UNL     1      25.191   3.789  49.164  1.00  0.00     0.011 C 
HETATM   20  C1  UNL     1      26.445   3.681  49.631  1.00  0.00     0.084 C 
HETATM   21 CL1  UNL     1      27.583   4.698  48.753  1.00  0.00    -0.097 Cl
ENDBRANCH  18  19
ENDBRANCH  16  17
ENDBRANCH   1  16
BRANCH   5  22
HETATM   22  C17 UNL     1      19.874   0.320  52.083  1.00  0.00     0.053 A 
HETATM   23  C18 UNL     1      19.458  -0.466  53.140  1.00  0.00     0.031 A 
HETATM   24  C19 UNL     1      18.188  -1.053  53.103  1.00  0.00     0.002 A 
HETATM   25  C20 UNL     1      17.327  -0.865  52.022  1.00  0.00     0.000 A 
HETATM   26  C21 UNL     1      17.797  -0.060  50.979  1.00  0.00     0.002 A 
HETATM   27  C22 UNL     1      19.047   0.526  50.997  1.00  0.00     0.031 A 
ENDBRANCH   5  22
TORSDOF 5
ENDMDL
MODEL 3
REMARK VINA RESULT:      -8.7      4.157      8.073
REMARK  5 active torsions:
REMARK  status: ('A' for Active; 'I' for Inactive)
REMARK    1  A    between atoms: C2_3  and  C3_4 
REMARK    2  A    between atoms: C4_5  and  C5_6 
REMARK    3  A    between atoms: C5_6  and  C6_7 
REMARK    4  A    between atoms: C8_9  and  C9_10 
REMARK    5  A    between atoms: N2_21  and  C17_22 
ROOT
HETATM    1  C6  UNL     1      24.911   0.689  53.621  1.00  0.00     0.119 C 
HETATM    2  C7  UNL     1      24.047   1.795  53.056  1.00  0.00     0.089 C 
HETATM    3  C8  UNL     1      24.489   1.840  51.626  1.00  0.00     0.067 C 
HETATM    4  N1  UNL     1      25.617   1.185  51.506  1.00  0.00    -0.175 NA
HETATM    5  N2  UNL     1      26.035   0.663  52.733  1.00  0.00    -0.264 N 
ENDROOT
BRANCH   3   6
HETATM    6  C9  UNL     1      23.831   2.486  50.495  1.00  0.00    -0.007 A 
HETATM    7  C10 UNL     1      24.415   3.616  49.961  1.00  0.00     0.016 A 
HETATM    8  C11 UNL     1      23.835   4.266  48.889  1.00  0.00     0.040 A 
HETATM    9  C12 UNL     1      22.664   3.717  48.405  1.00  0.00     0.102 A 
HETATM   10  C13 UNL     1      22.044   2.585  48.911  1.00  0.00     0.103 A 
HETATM   11  O2  UNL     1      22.092   4.380  47.326  1.00  0.00    -0.346 OA
HETATM   12  C14 UNL     1      22.660   1.971  49.981  1.00  0.00     0.053 A 
HETATM   13  O1  UNL     1      20.880   2.155  48.326  1.00  0.00    -0.346 OA
HETATM   14  C15 UNL     1      20.126   2.963  47.444  1.00  0.00     0.202 C 
HETATM   15  C16 UNL     1      21.007   3.849  46.593  1.00  0.00     0.202 C 
ENDBRANCH   3   6
BRANCH   1  16
HETATM   16  C5  UNL     1      24.131  -0.606  53.608  1.00  0.00     0.055 C 
BRANCH  16  17
HETATM   17  C4  UNL     1      22.700  -0.394  53.331  1.00  0.00    -0.025 C 
HETATM   18  C3  UNL     1      21.782  -1.199  53.833  1.00  0.00    -0.003 C 
BRANCH  18  19
HETATM   19  C2  UNL     1      20.329  -1.339  53.809  1.00  0.00     0.011 C 
HETATM   20  C1  UNL     1      19.358  -0.619  53.226  1.00  0.00     0.084 C 
HETATM   21 CL1  UNL     1      17.752  -1.269  53.543  1.00  0.00    -0.097 Cl
ENDBRANCH  18  19
ENDBRANCH  16  17
ENDBRANCH   1  16
BRANCH   5  22
HETATM   22  C17 UNL     1      27.345   0.191  53.040  1.00  0.00     0.053 A 
HETATM   23  C18 UNL     1      27.634  -1.156  52.923  1.00  0.00     0.031 A 
HETATM   24  C19 UNL     1      28.922  -1.612  53.228  1.00  0.00     0.002 A 
HETATM   25  C20 UNL     1      29.926  -0.740  53.649  1.00  0.00     0.000 A 
HETATM   26  C21 UNL     1      29.580   0.612  53.750  1.00  0.00     0.002 A 
HETATM   27  C22 UNL     1      28.316   1.081  53.455  1.00  0.00     0.031 A 
ENDBRANCH   5  22
TORSDOF 5
ENDMDL
MODEL 4
REMARK VINA RESULT:      -8.6      3.893      7.818
REMARK  5 active torsions:
REMARK  status: ('A' for Active; 'I' for Inactive)
REMARK    1  A    between atoms: C2_3  and  C3_4 
REMARK    2  A    between atoms: C4_5  and  C5_6 
REMARK    3  A    between atoms: C5_6  and  C6_7 
REMARK    4  A    between atoms: C8_9  and  C9_10 
REMARK    5  A    between atoms: N2_21  and  C17_22 
ROOT
HETATM    1  C6  UNL     1      25.106   1.095  53.552  1.00  0.00     0.119 C 
HETATM    2  C7  UNL     1      24.472   2.379  53.063  1.00  0.00     0.089 C 
HETATM    3  C8  UNL     1      24.971   2.460  51.654  1.00  0.00     0.067 C 
HETATM    4  N1  UNL     1      25.971   1.627  51.505  1.00  0.00    -0.175 NA
HETATM    5  N2  UNL     1      26.242   0.942  52.692  1.00  0.00    -0.264 N 
ENDROOT
BRANCH   3   6
HETATM    6  C9  UNL     1      24.481   3.303  50.567  1.00  0.00    -0.007 A 
HETATM    7  C10 UNL     1      23.445   2.825  49.791  1.00  0.00     0.016 A 
HETATM    8  C11 UNL     1      22.943   3.581  48.750  1.00  0.00     0.040 A 
HETATM    9  C12 UNL     1      23.535   4.814  48.551  1.00  0.00     0.102 A 
HETATM   10  C13 UNL     1      24.576   5.331  49.306  1.00  0.00     0.103 A 
HETATM   11  O2  UNL     1      23.018   5.564  47.502  1.00  0.00    -0.346 OA
HETATM   12  C14 UNL     1      25.044   4.539  50.333  1.00  0.00     0.053 A 
HETATM   13  O1  UNL     1      25.064   6.573  48.991  1.00  0.00    -0.346 OA
HETATM   14  C15 UNL     1      24.774   7.218  47.766  1.00  0.00     0.202 C 
HETATM   15  C16 UNL     1      23.374   6.914  47.283  1.00  0.00     0.202 C 
ENDBRANCH   3   6
BRANCH   1  16
HETATM   16  C5  UNL     1      24.112  -0.035  53.407  1.00  0.00     0.055 C 
BRANCH  16  17
HETATM   17  C4  UNL     1      22.728   0.450  53.282  1.00  0.00    -0.025 C 
HETATM   18  C3  UNL     1      21.938   0.016  52.318  1.00  0.00    -0.003 C 
BRANCH  18  19
HETATM   19  C2  UNL     1      20.569   0.225  51.857  1.00  0.00     0.011 C 
HETATM   20  C1  UNL     1      19.378  -0.134  52.360  1.00  0.00     0.084 C 
HETATM   21 CL1  UNL     1      18.032   0.402  51.358  1.00  0.00    -0.097 Cl
ENDBRANCH  18  19
ENDBRANCH  16  17
ENDBRANCH   1  16
BRANCH   5  22
HETATM   22  C17 UNL     1      27.436   0.221  52.990  1.00  0.00     0.053 A 
HETATM   23  C18 UNL     1      28.544   0.895  53.468  1.00  0.00     0.031 A 
HETATM   24  C19 UNL     1      29.712   0.181  53.756  1.00  0.00     0.002 A 
HETATM   25  C20 UNL     1      29.790  -1.200  53.573  1.00  0.00     0.000 A 
HETATM   26  C21 UNL     1      28.640  -1.833  53.088  1.00  0.00     0.002 A 
HETATM   27  C22 UNL     1      27.479  -1.146  52.797  1.00  0.00     0.031 A 
ENDBRANCH   5  22
TORSDOF 5
ENDMDL
MODEL 5
REMARK VINA RESULT:      -8.6      4.055      8.266
REMARK  5 active torsions:
REMARK  status: ('A' for Active; 'I' for Inactive)
REMARK    1  A    between atoms: C2_3  and  C3_4 
REMARK    2  A    between atoms: C4_5  and  C5_6 
REMARK    3  A    between atoms: C5_6  and  C6_7 
REMARK    4  A    between atoms: C8_9  and  C9_10 
REMARK    5  A    between atoms: N2_21  and  C17_22 
ROOT
HETATM    1  C6  UNL     1      22.969   0.700  53.231  1.00  0.00     0.119 C 
HETATM    2  C7  UNL     1      21.606   0.450  53.839  1.00  0.00     0.089 C 
HETATM    3  C8  UNL     1      20.753   0.248  52.625  1.00  0.00     0.067 C 
HETATM    4  N1  UNL     1      21.402   0.674  51.570  1.00  0.00    -0.175 NA
HETATM    5  N2  UNL     1      22.661   1.171  51.914  1.00  0.00    -0.264 N 
ENDROOT
BRANCH   3   6
HETATM    6  C9  UNL     1      19.411  -0.322  52.547  1.00  0.00    -0.007 A 
HETATM    7  C10 UNL     1      19.050  -1.267  53.485  1.00  0.00     0.016 A 
HETATM    8  C11 UNL     1      17.792  -1.837  53.458  1.00  0.00     0.040 A 
HETATM    9  C12 UNL     1      16.949  -1.404  52.453  1.00  0.00     0.102 A 
HETATM   10  C13 UNL     1      17.271  -0.458  51.492  1.00  0.00     0.103 A 
HETATM   11  O2  UNL     1      15.687  -1.985  52.438  1.00  0.00    -0.346 OA
HETATM   12  C14 UNL     1      18.538   0.082  51.560  1.00  0.00     0.053 A 
HETATM   13  O1  UNL     1      16.328  -0.126  50.553  1.00  0.00    -0.346 OA
HETATM   14  C15 UNL     1      15.168  -0.903  50.329  1.00  0.00     0.202 C 
HETATM   15  C16 UNL     1      14.643  -1.521  51.605  1.00  0.00     0.202 C 
ENDBRANCH   3   6
BRANCH   1  16
HETATM   16  C5  UNL     1      23.750  -0.595  53.216  1.00  0.00     0.055 C 
BRANCH  16  17
HETATM   17  C4  UNL     1      25.124  -0.426  53.716  1.00  0.00    -0.025 C 
HETATM   18  C3  UNL     1      26.164  -0.765  52.976  1.00  0.00    -0.003 C 
BRANCH  18  19
HETATM   19  C2  UNL     1      27.620  -0.761  53.082  1.00  0.00     0.011 C 
HETATM   20  C1  UNL     1      28.466  -0.156  53.931  1.00  0.00     0.084 C 
HETATM   21 CL1  UNL     1      30.153  -0.518  53.577  1.00  0.00    -0.097 Cl
ENDBRANCH  18  19
ENDBRANCH  16  17
ENDBRANCH   1  16
BRANCH   5  22
HETATM   22  C17 UNL     1      23.487   1.999  51.097  1.00  0.00     0.053 A 
HETATM   23  C18 UNL     1      24.745   2.362  51.540  1.00  0.00     0.031 A 
HETATM   24  C19 UNL     1      25.549   3.176  50.733  1.00  0.00     0.002 A 
HETATM   25  C20 UNL     1      25.114   3.632  49.489  1.00  0.00     0.000 A 
HETATM   26  C21 UNL     1      23.833   3.234  49.089  1.00  0.00     0.002 A 
HETATM   27  C22 UNL     1      23.025   2.433  49.871  1.00  0.00     0.031 A 
ENDBRANCH   5  22
TORSDOF 5
ENDMDL
MODEL 6
REMARK VINA RESULT:      -8.5      3.603      7.338
REMARK  5 active torsions:
REMARK  status: ('A' for Active; 'I' for Inactive)
REMARK    1  A    between atoms: C2_3  and  C3_4 
REMARK    2  A    between atoms: C4_5  and  C5_6 
REMARK    3  A    between atoms: C5_6  and  C6_7 
REMARK    4  A    between atoms: C8_9  and  C9_10 
REMARK    5  A    between atoms: N2_21  and  C17_22 
ROOT
HETATM    1  C6  UNL     1      24.831   1.748  52.262  1.00  0.00     0.119 C 
HETATM    2  C7  UNL     1      23.465   1.406  51.711  1.00  0.00     0.089 C 
HETATM    3  C8  UNL     1      22.978   0.382  52.689  1.00  0.00     0.067 C 
HETATM    4  N1  UNL     1      23.990  -0.045  53.401  1.00  0.00    -0.175 NA
HETATM    5  N2  UNL     1      25.179   0.585  53.024  1.00  0.00    -0.264 N 
ENDROOT
BRANCH   3   6
HETATM    6  C9  UNL     1      21.618  -0.114  52.879  1.00  0.00    -0.007 A 
HETATM    7  C10 UNL     1      21.398  -1.045  53.873  1.00  0.00     0.016 A 
HETATM    8  C11 UNL     1      20.131  -1.546  54.096  1.00  0.00     0.040 A 
HETATM    9  C12 UNL     1      19.130  -1.060  53.277  1.00  0.00     0.102 A 
HETATM   10  C13 UNL     1      19.307  -0.126  52.269  1.00  0.00     0.103 A 
HETATM   11  O2  UNL     1      17.860  -1.572  53.514  1.00  0.00    -0.346 OA
HETATM   12  C14 UNL     1      20.589   0.344  52.083  1.00  0.00     0.053 A 
HETATM   13  O1  UNL     1      18.217   0.264  51.534  1.00  0.00    -0.346 OA
HETATM   14  C15 UNL     1      16.995  -0.448  51.546  1.00  0.00     0.202 C 
HETATM   15  C16 UNL     1      16.700  -1.046  52.903  1.00  0.00     0.202 C 
ENDBRANCH   3   6
BRANCH   1  16
HETATM   16  C5  UNL     1      24.724   2.990  53.117  1.00  0.00     0.055 C 
BRANCH  16  17
HETATM   17  C4  UNL     1      23.714   3.933  52.609  1.00  0.00    -0.025 C 
HETATM   18  C3  UNL     1      24.033   4.865  51.730  1.00  0.00    -0.003 C 
BRANCH  18  19
HETATM   19  C2  UNL     1      23.372   5.946  51.003  1.00  0.00     0.011 C 
HETATM   20  C1  UNL     1      23.549   7.276  51.001  1.00  0.00     0.084 C 
HETATM   21 CL1  UNL     1      22.445   8.102  49.904  1.00  0.00    -0.097 Cl
ENDBRANCH  18  19
ENDBRANCH  16  17
ENDBRANCH   1  16
BRANCH   5  22
HETATM   22  C17 UNL     1      26.498   0.146  53.342  1.00  0.00     0.053 A 
HETATM   23  C18 UNL     1      27.020  -0.970  52.715  1.00  0.00     0.031 A 
HETATM   24  C19 UNL     1      28.315  -1.395  53.034  1.00  0.00     0.002 A 
HETATM   25  C20 UNL     1      29.096  -0.721  53.971  1.00  0.00     0.000 A 
HETATM   26  C21 UNL     1      28.520   0.403  54.576  1.00  0.00     0.002 A 
HETATM   27  C22 UNL     1      27.245   0.837  54.276  1.00  0.00     0.031 A 
ENDBRANCH   5  22
TORSDOF 5
ENDMDL
MODEL 7
REMARK VINA RESULT:      -8.4      4.090      8.277
REMARK  5 active torsions:
REMARK  status: ('A' for Active; 'I' for Inactive)
REMARK    1  A    between atoms: C2_3  and  C3_4 
REMARK    2  A    between atoms: C4_5  and  C5_6 
REMARK    3  A    between atoms: C5_6  and  C6_7 
REMARK    4  A    between atoms: C8_9  and  C9_10 
REMARK    5  A    between atoms: N2_21  and  C17_22 
ROOT
HETATM    1  C6  UNL     1      22.079   0.300  53.766  1.00  0.00     0.119 C 
HETATM    2  C7  UNL     1      20.727  -0.081  54.329  1.00  0.00     0.089 C 
HETATM    3  C8  UNL     1      19.934  -0.352  53.088  1.00  0.00     0.067 C 
HETATM    4  N1  UNL     1      20.572   0.142  52.056  1.00  0.00    -0.175 NA
HETATM    5  N2  UNL     1      21.768   0.752  52.442  1.00  0.00    -0.264 N 
ENDROOT
BRANCH   3   6
HETATM    6  C9  UNL     1      18.655  -1.045  52.965  1.00  0.00    -0.007 A 
HETATM    7  C10 UNL     1      17.642  -0.419  52.267  1.00  0.00     0.016 A 
HETATM    8  C11 UNL     1      16.412  -1.030  52.118  1.00  0.00     0.040 A 
HETATM    9  C12 UNL     1      16.276  -2.275  52.701  1.00  0.00     0.102 A 
HETATM   10  C13 UNL     1      17.266  -2.938  53.409  1.00  0.00     0.103 A 
HETATM   11  O2  UNL     1      15.034  -2.878  52.543  1.00  0.00    -0.346 OA
HETATM   12  C14 UNL     1      18.476  -2.288  53.531  1.00  0.00     0.053 A 
HETATM   13  O1  UNL     1      16.985  -4.174  53.934  1.00  0.00    -0.346 OA
HETATM   14  C15 UNL     1      15.666  -4.671  54.050  1.00  0.00     0.202 C 
HETATM   15  C16 UNL     1      14.787  -4.221  52.906  1.00  0.00     0.202 C 
ENDBRANCH   3   6
BRANCH   1  16
HETATM   16  C5  UNL     1      22.977  -0.916  53.768  1.00  0.00     0.055 C 
BRANCH  16  17
HETATM   17  C4  UNL     1      24.359  -0.589  54.155  1.00  0.00    -0.025 C 
HETATM   18  C3  UNL     1      25.299  -0.415  53.244  1.00  0.00    -0.003 C 
BRANCH  18  19
HETATM   19  C2  UNL     1      26.723  -0.095  53.199  1.00  0.00     0.011 C 
HETATM   20  C1  UNL     1      27.639   0.101  54.160  1.00  0.00     0.084 C 
HETATM   21 CL1  UNL     1      29.235   0.463  53.508  1.00  0.00    -0.097 Cl
ENDBRANCH  18  19
ENDBRANCH  16  17
ENDBRANCH   1  16
BRANCH   5  22
HETATM   22  C17 UNL     1      22.537   1.660  51.656  1.00  0.00     0.053 A 
HETATM   23  C18 UNL     1      23.402   2.541  52.277  1.00  0.00     0.031 A 
HETATM   24  C19 UNL     1      24.153   3.431  51.499  1.00  0.00     0.002 A 
HETATM   25  C20 UNL     1      24.051   3.452  50.108  1.00  0.00     0.000 A 
HETATM   26  C21 UNL     1      23.161   2.539  49.531  1.00  0.00     0.002 A 
HETATM   27  C22 UNL     1      22.412   1.655  50.281  1.00  0.00     0.031 A 
ENDBRANCH   5  22
TORSDOF 5
ENDMDL
MODEL 8
REMARK VINA RESULT:      -8.4      4.180      7.283
REMARK  5 active torsions:
REMARK  status: ('A' for Active; 'I' for Inactive)
REMARK    1  A    between atoms: C2_3  and  C3_4 
REMARK    2  A    between atoms: C4_5  and  C5_6 
REMARK    3  A    between atoms: C5_6  and  C6_7 
REMARK    4  A    between atoms: C8_9  and  C9_10 
REMARK    5  A    between atoms: N2_21  and  C17_22 
ROOT
HETATM    1  C6  UNL     1      24.283   3.664  50.141  1.00  0.00     0.119 C 
HETATM    2  C7  UNL     1      24.785   5.032  49.735  1.00  0.00     0.089 C 
HETATM    3  C8  UNL     1      26.223   4.759  49.420  1.00  0.00     0.067 C 
HETATM    4  N1  UNL     1      26.555   3.591  49.912  1.00  0.00    -0.175 NA
HETATM    5  N2  UNL     1      25.475   2.987  50.560  1.00  0.00    -0.264 N 
ENDROOT
BRANCH   3   6
HETATM    6  C9  UNL     1      27.167   5.602  48.692  1.00  0.00    -0.007 A 
HETATM    7  C10 UNL     1      26.700   6.782  48.150  1.00  0.00     0.016 A 
HETATM    8  C11 UNL     1      27.550   7.617  47.452  1.00  0.00     0.040 A 
HETATM    9  C12 UNL     1      28.862   7.198  47.343  1.00  0.00     0.102 A 
HETATM   10  C13 UNL     1      29.372   6.023  47.872  1.00  0.00     0.103 A 
HETATM   11  O2  UNL     1      29.706   8.049  46.640  1.00  0.00    -0.346 OA
HETATM   12  C14 UNL     1      28.485   5.221  48.558  1.00  0.00     0.053 A 
HETATM   13  O1  UNL     1      30.700   5.737  47.682  1.00  0.00    -0.346 OA
HETATM   14  C15 UNL     1      31.498   6.416  46.732  1.00  0.00     0.202 C 
HETATM   15  C16 UNL     1      31.108   7.870  46.599  1.00  0.00     0.202 C 
ENDBRANCH   3   6
BRANCH   1  16
HETATM   16  C5  UNL     1      23.628   3.003  48.950  1.00  0.00     0.055 C 
BRANCH  16  17
HETATM   17  C4  UNL     1      22.241   2.597  49.228  1.00  0.00    -0.025 C 
HETATM   18  C3  UNL     1      21.975   1.590  50.039  1.00  0.00    -0.003 C 
BRANCH  18  19
HETATM   19  C2  UNL     1      20.801   0.896  50.561  1.00  0.00     0.011 C 
HETATM   20  C1  UNL     1      19.495   0.971  50.262  1.00  0.00     0.084 C 
HETATM   21 CL1  UNL     1      18.515  -0.124  51.232  1.00  0.00    -0.097 Cl
ENDBRANCH  18  19
ENDBRANCH  16  17
ENDBRANCH   1  16
BRANCH   5  22
HETATM   22  C17 UNL     1      25.550   1.895  51.474  1.00  0.00     0.053 A 
HETATM   23  C18 UNL     1      24.513   1.669  52.360  1.00  0.00     0.031 A 
HETATM   24  C19 UNL     1      24.595   0.596  53.255  1.00  0.00     0.002 A 
HETATM   25  C20 UNL     1      25.699  -0.256  53.276  1.00  0.00     0.000 A 
HETATM   26  C21 UNL     1      26.719   0.017  52.358  1.00  0.00     0.002 A 
HETATM   27  C22 UNL     1      26.657   1.071  51.469  1.00  0.00     0.031 A 
ENDBRANCH   5  22
TORSDOF 5
ENDMDL
MODEL 9
REMARK VINA RESULT:      -8.4      4.324      7.586
REMARK  5 active torsions:
REMARK  status: ('A' for Active; 'I' for Inactive)
REMARK    1  A    between atoms: C2_3  and  C3_4 
REMARK    2  A    between atoms: C4_5  and  C5_6 
REMARK    3  A    between atoms: C5_6  and  C6_7 
REMARK    4  A    between atoms: C8_9  and  C9_10 
REMARK    5  A    between atoms: N2_21  and  C17_22 
ROOT
HETATM    1  C6  UNL     1      24.008   3.352  50.257  1.00  0.00     0.119 C 
HETATM    2  C7  UNL     1      24.436   4.746  49.855  1.00  0.00     0.089 C 
HETATM    3  C8  UNL     1      25.893   4.557  49.566  1.00  0.00     0.067 C 
HETATM    4  N1  UNL     1      26.284   3.412  50.068  1.00  0.00    -0.175 NA
HETATM    5  N2  UNL     1      25.230   2.748  50.699  1.00  0.00    -0.264 N 
ENDROOT
BRANCH   3   6
HETATM    6  C9  UNL     1      26.799   5.453  48.852  1.00  0.00    -0.007 A 
HETATM    7  C10 UNL     1      28.094   5.031  48.637  1.00  0.00     0.016 A 
HETATM    8  C11 UNL     1      28.992   5.839  47.966  1.00  0.00     0.040 A 
HETATM    9  C12 UNL     1      28.510   7.061  47.538  1.00  0.00     0.102 A 
HETATM   10  C13 UNL     1      27.218   7.522  47.733  1.00  0.00     0.103 A 
HETATM   11  O2  UNL     1      29.424   7.862  46.863  1.00  0.00    -0.346 OA
HETATM   12  C14 UNL     1      26.359   6.682  48.408  1.00  0.00     0.053 A 
HETATM   13  O1  UNL     1      26.882   8.762  47.250  1.00  0.00    -0.346 OA
HETATM   14  C15 UNL     1      27.849   9.708  46.838  1.00  0.00     0.202 C 
HETATM   15  C16 UNL     1      29.049   9.049  46.195  1.00  0.00     0.202 C 
ENDBRANCH   3   6
BRANCH   1  16
HETATM   16  C5  UNL     1      23.415   2.650  49.056  1.00  0.00     0.055 C 
BRANCH  16  17
HETATM   17  C4  UNL     1      22.012   2.261  49.272  1.00  0.00    -0.025 C 
HETATM   18  C3  UNL     1      21.691   1.332  50.154  1.00  0.00    -0.003 C 
BRANCH  18  19
HETATM   19  C2  UNL     1      20.485   0.681  50.655  1.00  0.00     0.011 C 
HETATM   20  C1  UNL     1      20.067   0.375  51.894  1.00  0.00     0.084 C 
HETATM   21 CL1  UNL     1      18.498  -0.424  51.901  1.00  0.00    -0.097 Cl
ENDBRANCH  18  19
ENDBRANCH  16  17
ENDBRANCH   1  16
BRANCH   5  22
HETATM   22  C17 UNL     1      25.352   1.663  51.618  1.00  0.00     0.053 A 
HETATM   23  C18 UNL     1      26.509   0.907  51.636  1.00  0.00     0.031 A 
HETATM   24  C19 UNL     1      26.621  -0.156  52.539  1.00  0.00     0.002 A 
HETATM   25  C20 UNL     1      25.593  -0.474  53.426  1.00  0.00     0.000 A 
HETATM   26  C21 UNL     1      24.444   0.324  53.366  1.00  0.00     0.002 A 
HETATM   27  C22 UNL     1      24.315   1.375  52.482  1.00  0.00     0.031 A 
ENDBRANCH   5  22
TORSDOF 5
ENDMDL
