MODEL 1
REMARK VINA RESULT:      -7.8      0.000      0.000
REMARK  3 active torsions:
REMARK  status: ('A' for Active; 'I' for Inactive)
REMARK    1  A    between atoms: C9_9  and  C10_10 
REMARK    2  A    between atoms: C10_10  and  C11_11 
REMARK    3  A    between atoms: C12_12  and  C13_13 
ROOT
HETATM    1  C1  UNL     1      17.899  -1.450  53.317  1.00  0.00     0.068 C 
HETATM    2  C2  UNL     1      19.331  -1.042  53.305  1.00  0.00     0.004 C 
HETATM    3  C3  UNL     1      20.297  -1.463  54.091  1.00  0.00     0.024 C 
HETATM    4  C4  UNL     1      21.680  -1.465  54.530  1.00  0.00     0.002 C 
HETATM    5  C5  UNL     1      22.744  -0.859  54.169  1.00  0.00     0.002 C 
HETATM    6  C6  UNL     1      23.535   0.027  53.394  1.00  0.00     0.027 C 
HETATM    7  C7  UNL     1      24.399   0.780  52.800  1.00  0.00     0.037 A 
HETATM    8  C8  UNL     1      25.678   0.564  53.485  1.00  0.00     0.115 A 
HETATM    9  C9  UNL     1      26.498   1.531  52.662  1.00  0.00     0.042 A 
HETATM   10  N1  UNL     1      25.752   2.059  51.794  1.00  0.00    -0.180 NA
HETATM   11  N2  UNL     1      24.421   1.695  51.750  1.00  0.00    -0.264 N 
HETATM   12  C14 UNL     1      23.615   2.302  50.747  1.00  0.00     0.225 C 
HETATM   13  S1  UNL     1      22.169   3.103  51.378  1.00  0.00    -0.136 SA
HETATM   14  C15 UNL     1      20.878   2.093  52.028  1.00  0.00     0.106 C 
HETATM   15  C16 UNL     1      19.957   1.168  52.372  1.00  0.00     0.077 C 
HETATM   16  N3  UNL     1      19.323  -0.104  52.241  1.00  0.00    -0.372 N 
HETATM   17  H20 UNL     1      18.932  -0.102  51.284  1.00  0.00     0.164 HD
ENDROOT
BRANCH   9  18
HETATM   18  C10 UNL     1      27.939   1.698  52.975  1.00  0.00     0.083 C 
BRANCH  18  19
HETATM   19  C11 UNL     1      28.251   1.051  54.262  1.00  0.00    -0.024 C 
HETATM   20  C12 UNL     1      29.023   0.025  54.515  1.00  0.00    -0.020 C 
BRANCH  20  21
HETATM   21  C13 UNL     1      29.795  -0.757  53.516  1.00  0.00     0.112 C 
HETATM   22 BR1  UNL     1      28.750  -2.329  53.063  1.00  0.00    -0.092 Br
ENDBRANCH  20  21
ENDBRANCH  18  19
ENDBRANCH   9  18
TORSDOF 3
ENDMDL
MODEL 2
REMARK VINA RESULT:      -7.4      3.656      6.590
REMARK  3 active torsions:
REMARK  status: ('A' for Active; 'I' for Inactive)
REMARK    1  A    between atoms: C9_9  and  C10_10 
REMARK    2  A    between atoms: C10_10  and  C11_11 
REMARK    3  A    between atoms: C12_12  and  C13_13 
ROOT
HETATM    1  C1  UNL     1      25.359   8.800  47.352  1.00  0.00     0.068 C 
HETATM    2  C2  UNL     1      25.540   7.510  48.073  1.00  0.00     0.004 C 
HETATM    3  C3  UNL     1      26.607   6.742  48.098  1.00  0.00     0.024 C 
HETATM    4  C4  UNL     1      27.318   5.555  48.532  1.00  0.00     0.002 C 
HETATM    5  C5  UNL     1      27.039   4.554  49.273  1.00  0.00     0.002 C 
HETATM    6  C6  UNL     1      26.236   3.749  50.119  1.00  0.00     0.027 C 
HETATM    7  C7  UNL     1      25.652   2.897  50.897  1.00  0.00     0.037 A 
HETATM    8  C8  UNL     1      26.619   1.819  51.128  1.00  0.00     0.115 A 
HETATM    9  C9  UNL     1      25.738   0.964  52.011  1.00  0.00     0.042 A 
HETATM   10  N1  UNL     1      24.624   1.537  52.148  1.00  0.00    -0.180 NA
HETATM   11  N2  UNL     1      24.416   2.748  51.519  1.00  0.00    -0.264 N 
HETATM   12  C14 UNL     1      23.152   3.371  51.711  1.00  0.00     0.225 C 
HETATM   13  S1  UNL     1      22.314   3.770  50.205  1.00  0.00    -0.136 SA
HETATM   14  C15 UNL     1      22.975   5.062  49.205  1.00  0.00     0.106 C 
HETATM   15  C16 UNL     1      23.551   6.142  48.634  1.00  0.00     0.077 C 
HETATM   16  N3  UNL     1      24.267   7.375  48.684  1.00  0.00    -0.372 N 
HETATM   17  H20 UNL     1      23.653   8.012  49.219  1.00  0.00     0.164 HD
ENDROOT
BRANCH   9  18
HETATM   18  C10 UNL     1      26.274  -0.317  52.537  1.00  0.00     0.083 C 
BRANCH  18  19
HETATM   19  C11 UNL     1      26.481  -0.213  53.992  1.00  0.00    -0.024 C 
HETATM   20  C12 UNL     1      27.531   0.193  54.658  1.00  0.00    -0.020 C 
BRANCH  20  21
HETATM   21  C13 UNL     1      28.813   0.664  54.073  1.00  0.00     0.112 C 
HETATM   22 BR1  UNL     1      29.867  -0.904  53.625  1.00  0.00    -0.092 Br
ENDBRANCH  20  21
ENDBRANCH  18  19
ENDBRANCH   9  18
TORSDOF 3
ENDMDL
MODEL 3
REMARK VINA RESULT:      -7.4      5.155      8.846
REMARK  3 active torsions:
REMARK  status: ('A' for Active; 'I' for Inactive)
REMARK    1  A    between atoms: C9_9  and  C10_10 
REMARK    2  A    between atoms: C10_10  and  C11_11 
REMARK    3  A    between atoms: C12_12  and  C13_13 
ROOT
HETATM    1  C1  UNL     1      30.545   9.035  48.487  1.00  0.00     0.068 C 
HETATM    2  C2  UNL     1      29.488   8.012  48.718  1.00  0.00     0.004 C 
HETATM    3  C3  UNL     1      29.453   6.774  48.277  1.00  0.00     0.024 C 
HETATM    4  C4  UNL     1      28.817   5.475  48.163  1.00  0.00     0.002 C 
HETATM    5  C5  UNL     1      27.737   4.955  48.600  1.00  0.00     0.002 C 
HETATM    6  C6  UNL     1      26.509   4.914  49.307  1.00  0.00     0.027 C 
HETATM    7  C7  UNL     1      25.376   4.698  49.890  1.00  0.00     0.037 A 
HETATM    8  C8  UNL     1      25.001   3.317  49.566  1.00  0.00     0.115 A 
HETATM    9  C9  UNL     1      23.684   3.302  50.308  1.00  0.00     0.042 A 
HETATM   10  N1  UNL     1      23.510   4.427  50.849  1.00  0.00    -0.180 NA
HETATM   11  N2  UNL     1      24.474   5.402  50.684  1.00  0.00    -0.264 N 
HETATM   12  C14 UNL     1      24.250   6.652  51.322  1.00  0.00     0.225 C 
HETATM   13  S1  UNL     1      24.324   8.040  50.227  1.00  0.00    -0.136 SA
HETATM   14  C15 UNL     1      25.893   8.485  49.558  1.00  0.00     0.106 C 
HETATM   15  C16 UNL     1      27.179   8.747  49.239  1.00  0.00     0.077 C 
HETATM   16  N3  UNL     1      28.579   8.756  49.514  1.00  0.00    -0.372 N 
HETATM   17  H20 UNL     1      28.680   9.373  50.336  1.00  0.00     0.164 HD
ENDROOT
BRANCH   9  18
HETATM   18  C10 UNL     1      22.861   2.067  50.286  1.00  0.00     0.083 C 
BRANCH  18  19
HETATM   19  C11 UNL     1      22.419   1.735  51.653  1.00  0.00    -0.024 C 
HETATM   20  C12 UNL     1      23.080   1.169  52.629  1.00  0.00    -0.020 C 
BRANCH  20  21
HETATM   21  C13 UNL     1      24.491   0.708  52.580  1.00  0.00     0.112 C 
HETATM   22 BR1  UNL     1      25.591   2.094  53.381  1.00  0.00    -0.092 Br
ENDBRANCH  20  21
ENDBRANCH  18  19
ENDBRANCH   9  18
TORSDOF 3
ENDMDL
MODEL 4
REMARK VINA RESULT:      -7.3      4.265      5.495
REMARK  3 active torsions:
REMARK  status: ('A' for Active; 'I' for Inactive)
REMARK    1  A    between atoms: C9_9  and  C10_10 
REMARK    2  A    between atoms: C10_10  and  C11_11 
REMARK    3  A    between atoms: C12_12  and  C13_13 
ROOT
HETATM    1  C1  UNL     1      20.968  -1.702  54.343  1.00  0.00     0.068 C 
HETATM    2  C2  UNL     1      21.744  -0.735  53.518  1.00  0.00     0.004 C 
HETATM    3  C3  UNL     1      21.321  -0.022  52.498  1.00  0.00     0.024 C 
HETATM    4  C4  UNL     1      21.532   0.947  51.439  1.00  0.00     0.002 C 
HETATM    5  C5  UNL     1      22.523   1.641  51.033  1.00  0.00     0.002 C 
HETATM    6  C6  UNL     1      23.857   2.121  51.028  1.00  0.00     0.027 C 
HETATM    7  C7  UNL     1      25.020   2.662  50.874  1.00  0.00     0.037 A 
HETATM    8  C8  UNL     1      24.907   3.565  49.723  1.00  0.00     0.115 A 
HETATM    9  C9  UNL     1      26.340   4.047  49.722  1.00  0.00     0.042 A 
HETATM   10  N1  UNL     1      26.957   3.488  50.668  1.00  0.00    -0.180 NA
HETATM   11  N2  UNL     1      26.274   2.601  51.477  1.00  0.00    -0.264 N 
HETATM   12  C14 UNL     1      27.001   2.002  52.542  1.00  0.00     0.225 C 
HETATM   13  S1  UNL     1      26.945   0.234  52.542  1.00  0.00    -0.136 SA
HETATM   14  C15 UNL     1      25.416  -0.548  52.936  1.00  0.00     0.106 C 
HETATM   15  C16 UNL     1      24.208  -0.968  53.369  1.00  0.00     0.077 C 
HETATM   16  N3  UNL     1      23.016  -0.827  54.141  1.00  0.00    -0.372 N 
HETATM   17  H20 UNL     1      23.340  -0.817  55.122  1.00  0.00     0.164 HD
ENDROOT
BRANCH   9  18
HETATM   18  C10 UNL     1      26.768   5.025  48.690  1.00  0.00     0.083 C 
BRANCH  18  19
HETATM   19  C11 UNL     1      28.220   4.910  48.463  1.00  0.00    -0.024 C 
HETATM   20  C12 UNL     1      29.100   5.843  48.205  1.00  0.00    -0.020 C 
BRANCH  20  21
HETATM   21  C13 UNL     1      28.824   7.297  48.076  1.00  0.00     0.112 C 
HETATM   22 BR1  UNL     1      29.721   7.927  46.474  1.00  0.00    -0.092 Br
ENDBRANCH  20  21
ENDBRANCH  18  19
ENDBRANCH   9  18
TORSDOF 3
ENDMDL
MODEL 5
REMARK VINA RESULT:      -7.3      3.209      7.493
REMARK  3 active torsions:
REMARK  status: ('A' for Active; 'I' for Inactive)
REMARK    1  A    between atoms: C9_9  and  C10_10 
REMARK    2  A    between atoms: C10_10  and  C11_11 
REMARK    3  A    between atoms: C12_12  and  C13_13 
ROOT
HETATM    1  C1  UNL     1      28.695   1.762  53.841  1.00  0.00     0.068 C 
HETATM    2  C2  UNL     1      27.260   1.387  53.705  1.00  0.00     0.004 C 
HETATM    3  C3  UNL     1      26.662   0.305  54.154  1.00  0.00     0.024 C 
HETATM    4  C4  UNL     1      25.487  -0.527  54.331  1.00  0.00     0.002 C 
HETATM    5  C5  UNL     1      24.259  -0.439  53.996  1.00  0.00     0.002 C 
HETATM    6  C6  UNL     1      23.111   0.153  53.410  1.00  0.00     0.027 C 
HETATM    7  C7  UNL     1      21.974   0.538  52.935  1.00  0.00     0.037 A 
HETATM    8  C8  UNL     1      21.011  -0.520  53.259  1.00  0.00     0.115 A 
HETATM    9  C9  UNL     1      19.805   0.119  52.608  1.00  0.00     0.042 A 
HETATM   10  N1  UNL     1      20.151   1.223  52.108  1.00  0.00    -0.180 NA
HETATM   11  N2  UNL     1      21.466   1.626  52.229  1.00  0.00    -0.264 N 
HETATM   12  C14 UNL     1      21.813   2.884  51.665  1.00  0.00     0.225 C 
HETATM   13  S1  UNL     1      23.163   2.808  50.523  1.00  0.00    -0.136 SA
HETATM   14  C15 UNL     1      24.771   2.472  51.160  1.00  0.00     0.106 C 
HETATM   15  C16 UNL     1      25.932   2.322  51.833  1.00  0.00     0.077 C 
HETATM   16  N3  UNL     1      26.771   2.499  52.973  1.00  0.00    -0.372 N 
HETATM   17  H20 UNL     1      26.877   3.523  53.063  1.00  0.00     0.164 HD
ENDROOT
BRANCH   9  18
HETATM   18  C10 UNL     1      18.503  -0.594  52.652  1.00  0.00     0.083 C 
BRANCH  18  19
HETATM   19  C11 UNL     1      18.582  -1.725  53.593  1.00  0.00    -0.024 C 
HETATM   20  C12 UNL     1      17.775  -2.743  53.744  1.00  0.00    -0.020 C 
BRANCH  20  21
HETATM   21  C13 UNL     1      16.536  -3.002  52.966  1.00  0.00     0.112 C 
HETATM   22 BR1  UNL     1      15.959  -4.813  53.361  1.00  0.00    -0.092 Br
ENDBRANCH  20  21
ENDBRANCH  18  19
ENDBRANCH   9  18
TORSDOF 3
ENDMDL
MODEL 6
REMARK VINA RESULT:      -7.3      3.417      7.589
REMARK  3 active torsions:
REMARK  status: ('A' for Active; 'I' for Inactive)
REMARK    1  A    between atoms: C9_9  and  C10_10 
REMARK    2  A    between atoms: C10_10  and  C11_11 
REMARK    3  A    between atoms: C12_12  and  C13_13 
ROOT
HETATM    1  C1  UNL     1      29.185   1.455  54.183  1.00  0.00     0.068 C 
HETATM    2  C2  UNL     1      27.753   1.222  53.851  1.00  0.00     0.004 C 
HETATM    3  C3  UNL     1      27.005   0.191  54.181  1.00  0.00     0.024 C 
HETATM    4  C4  UNL     1      25.746  -0.529  54.175  1.00  0.00     0.002 C 
HETATM    5  C5  UNL     1      24.585  -0.317  53.689  1.00  0.00     0.002 C 
HETATM    6  C6  UNL     1      23.583   0.396  52.983  1.00  0.00     0.027 C 
HETATM    7  C7  UNL     1      22.557   0.898  52.380  1.00  0.00     0.037 A 
HETATM    8  C8  UNL     1      21.468  -0.071  52.540  1.00  0.00     0.115 A 
HETATM    9  C9  UNL     1      20.420   0.695  51.763  1.00  0.00     0.042 A 
HETATM   10  N1  UNL     1      20.928   1.773  51.352  1.00  0.00    -0.180 NA
HETATM   11  N2  UNL     1      22.247   2.046  51.655  1.00  0.00    -0.264 N 
HETATM   12  C14 UNL     1      22.779   3.278  51.186  1.00  0.00     0.225 C 
HETATM   13  S1  UNL     1      24.253   3.103  50.224  1.00  0.00    -0.136 SA
HETATM   14  C15 UNL     1      25.727   2.599  51.049  1.00  0.00     0.106 C 
HETATM   15  C16 UNL     1      26.771   2.324  51.860  1.00  0.00     0.077 C 
HETATM   16  N3  UNL     1      27.467   2.393  53.103  1.00  0.00    -0.372 N 
HETATM   17  H20 UNL     1      27.653   3.400  53.243  1.00  0.00     0.164 HD
ENDROOT
BRANCH   9  18
HETATM   18  C10 UNL     1      19.065   0.108  51.614  1.00  0.00     0.083 C 
BRANCH  18  19
HETATM   19  C11 UNL     1      18.707  -0.642  52.831  1.00  0.00    -0.024 C 
HETATM   20  C12 UNL     1      17.600  -1.274  53.126  1.00  0.00    -0.020 C 
BRANCH  20  21
HETATM   21  C13 UNL     1      16.397  -1.386  52.262  1.00  0.00     0.112 C 
HETATM   22 BR1  UNL     1      15.214   0.087  52.707  1.00  0.00    -0.092 Br
ENDBRANCH  20  21
ENDBRANCH  18  19
ENDBRANCH   9  18
TORSDOF 3
ENDMDL
MODEL 7
REMARK VINA RESULT:      -7.1      1.741      2.299
REMARK  3 active torsions:
REMARK  status: ('A' for Active; 'I' for Inactive)
REMARK    1  A    between atoms: C9_9  and  C10_10 
REMARK    2  A    between atoms: C10_10  and  C11_11 
REMARK    3  A    between atoms: C12_12  and  C13_13 
ROOT
HETATM    1  C1  UNL     1      16.176  -0.010  51.101  1.00  0.00     0.068 C 
HETATM    2  C2  UNL     1      17.577  -0.083  51.598  1.00  0.00     0.004 C 
HETATM    3  C3  UNL     1      18.047  -0.812  52.587  1.00  0.00     0.024 C 
HETATM    4  C4  UNL     1      19.130  -1.269  53.437  1.00  0.00     0.002 C 
HETATM    5  C5  UNL     1      20.380  -1.028  53.516  1.00  0.00     0.002 C 
HETATM    6  C6  UNL     1      21.612  -0.423  53.157  1.00  0.00     0.027 C 
HETATM    7  C7  UNL     1      22.808   0.029  52.973  1.00  0.00     0.037 A 
HETATM    8  C8  UNL     1      23.650  -0.604  53.994  1.00  0.00     0.115 A 
HETATM    9  C9  UNL     1      24.948   0.069  53.610  1.00  0.00     0.042 A 
HETATM   10  N1  UNL     1      24.735   0.831  52.628  1.00  0.00    -0.180 NA
HETATM   11  N2  UNL     1      23.455   0.915  52.116  1.00  0.00    -0.264 N 
HETATM   12  C14 UNL     1      23.258   1.774  51.000  1.00  0.00     0.225 C 
HETATM   13  S1  UNL     1      21.986   2.980  51.241  1.00  0.00    -0.136 SA
HETATM   14  C15 UNL     1      20.315   2.421  51.307  1.00  0.00     0.106 C 
HETATM   15  C16 UNL     1      19.104   1.832  51.215  1.00  0.00     0.077 C 
HETATM   16  N3  UNL     1      18.210   0.835  50.721  1.00  0.00    -0.372 N 
HETATM   17  H20 UNL     1      18.189   0.987  49.699  1.00  0.00     0.164 HD
ENDROOT
BRANCH   9  18
HETATM   18  C10 UNL     1      26.176  -0.243  54.383  1.00  0.00     0.083 C 
BRANCH  18  19
HETATM   19  C11 UNL     1      27.233  -0.721  53.474  1.00  0.00    -0.024 C 
HETATM   20  C12 UNL     1      28.489  -0.361  53.392  1.00  0.00    -0.020 C 
BRANCH  20  21
HETATM   21  C13 UNL     1      29.165   0.659  54.235  1.00  0.00     0.112 C 
HETATM   22 BR1  UNL     1      28.633   2.408  53.584  1.00  0.00    -0.092 Br
ENDBRANCH  20  21
ENDBRANCH  18  19
ENDBRANCH   9  18
TORSDOF 3
ENDMDL
MODEL 8
REMARK VINA RESULT:      -6.8      3.912      7.033
REMARK  3 active torsions:
REMARK  status: ('A' for Active; 'I' for Inactive)
REMARK    1  A    between atoms: C9_9  and  C10_10 
REMARK    2  A    between atoms: C10_10  and  C11_11 
REMARK    3  A    between atoms: C12_12  and  C13_13 
ROOT
HETATM    1  C1  UNL     1      26.004   8.485  47.631  1.00  0.00     0.068 C 
HETATM    2  C2  UNL     1      25.940   7.204  48.386  1.00  0.00     0.004 C 
HETATM    3  C3  UNL     1      26.793   6.203  48.351  1.00  0.00     0.024 C 
HETATM    4  C4  UNL     1      27.240   4.889  48.772  1.00  0.00     0.002 C 
HETATM    5  C5  UNL     1      26.802   3.999  49.575  1.00  0.00     0.002 C 
HETATM    6  C6  UNL     1      25.914   3.427  50.521  1.00  0.00     0.027 C 
HETATM    7  C7  UNL     1      25.221   2.756  51.380  1.00  0.00     0.037 A 
HETATM    8  C8  UNL     1      25.922   1.482  51.573  1.00  0.00     0.115 A 
HETATM    9  C9  UNL     1      24.950   0.881  52.563  1.00  0.00     0.042 A 
HETATM   10  N1  UNL     1      24.022   1.708  52.772  1.00  0.00    -0.180 NA
HETATM   11  N2  UNL     1      24.049   2.920  52.113  1.00  0.00    -0.264 N 
HETATM   12  C14 UNL     1      22.992   3.832  52.387  1.00  0.00     0.225 C 
HETATM   13  S1  UNL     1      22.134   4.390  50.944  1.00  0.00    -0.136 SA
HETATM   14  C15 UNL     1      22.986   5.465  49.837  1.00  0.00     0.106 C 
HETATM   15  C16 UNL     1      23.745   6.364  49.174  1.00  0.00     0.077 C 
HETATM   16  N3  UNL     1      24.735   7.390  49.111  1.00  0.00    -0.372 N 
HETATM   17  H20 UNL     1      24.342   8.166  49.669  1.00  0.00     0.164 HD
ENDROOT
BRANCH   9  18
HETATM   18  C10 UNL     1      25.214  -0.480  53.094  1.00  0.00     0.083 C 
BRANCH  18  19
HETATM   19  C11 UNL     1      24.633  -0.614  54.441  1.00  0.00    -0.024 C 
HETATM   20  C12 UNL     1      23.412  -0.923  54.796  1.00  0.00    -0.020 C 
BRANCH  20  21
HETATM   21  C13 UNL     1      22.282  -1.222  53.880  1.00  0.00     0.112 C 
HETATM   22 BR1  UNL     1      20.870   0.057  54.249  1.00  0.00    -0.092 Br
ENDBRANCH  20  21
ENDBRANCH  18  19
ENDBRANCH   9  18
TORSDOF 3
ENDMDL
MODEL 9
REMARK VINA RESULT:      -6.8      5.817      7.183
REMARK  3 active torsions:
REMARK  status: ('A' for Active; 'I' for Inactive)
REMARK    1  A    between atoms: C9_9  and  C10_10 
REMARK    2  A    between atoms: C10_10  and  C11_11 
REMARK    3  A    between atoms: C12_12  and  C13_13 
ROOT
HETATM    1  C1  UNL     1      22.645   0.990  52.991  1.00  0.00     0.068 C 
HETATM    2  C2  UNL     1      23.584   1.807  52.175  1.00  0.00     0.004 C 
HETATM    3  C3  UNL     1      24.814   1.511  51.820  1.00  0.00     0.024 C 
HETATM    4  C4  UNL     1      26.060   1.818  51.142  1.00  0.00     0.002 C 
HETATM    5  C5  UNL     1      26.492   2.796  50.446  1.00  0.00     0.002 C 
HETATM    6  C6  UNL     1      26.433   4.057  49.800  1.00  0.00     0.027 C 
HETATM    7  C7  UNL     1      26.558   5.171  49.159  1.00  0.00     0.037 A 
HETATM    8  C8  UNL     1      27.920   5.185  48.614  1.00  0.00     0.115 A 
HETATM    9  C9  UNL     1      27.844   6.541  47.951  1.00  0.00     0.042 A 
HETATM   10  N1  UNL     1      26.697   7.026  48.150  1.00  0.00    -0.180 NA
HETATM   11  N2  UNL     1      25.783   6.294  48.882  1.00  0.00    -0.264 N 
HETATM   12  C14 UNL     1      24.496   6.868  49.072  1.00  0.00     0.225 C 
HETATM   13  S1  UNL     1      24.006   6.983  50.768  1.00  0.00    -0.136 SA
HETATM   14  C15 UNL     1      23.641   5.489  51.629  1.00  0.00     0.106 C 
HETATM   15  C16 UNL     1      23.292   4.267  52.087  1.00  0.00     0.077 C 
HETATM   16  N3  UNL     1      22.778   2.947  51.919  1.00  0.00    -0.372 N 
HETATM   17  H20 UNL     1      21.802   3.084  51.607  1.00  0.00     0.164 HD
ENDROOT
BRANCH   9  18
HETATM   18  C10 UNL     1      29.034   7.055  47.227  1.00  0.00     0.083 C 
BRANCH  18  19
HETATM   19  C11 UNL     1      30.151   7.243  48.169  1.00  0.00    -0.024 C 
HETATM   20  C12 UNL     1      30.379   8.220  49.009  1.00  0.00    -0.020 C 
BRANCH  20  21
HETATM   21  C13 UNL     1      29.524   9.418  49.213  1.00  0.00     0.112 C 
HETATM   22 BR1  UNL     1      30.630  10.987  48.925  1.00  0.00    -0.092 Br
ENDBRANCH  20  21
ENDBRANCH  18  19
ENDBRANCH   9  18
TORSDOF 3
ENDMDL
