MODEL 1
REMARK VINA RESULT:      -7.4      0.000      0.000
REMARK  4 active torsions:
REMARK  status: ('A' for Active; 'I' for Inactive)
REMARK    1  A    between atoms: O1_2  and  C2_3 
REMARK    2  A    between atoms: C2_3  and  C3_4 
REMARK    3  A    between atoms: C4_5  and  C5_6 
REMARK    4  A    between atoms: C13_17  and  C14_18 
ROOT
HETATM    1  C5  UNL     1      25.221   0.736  53.201  1.00  0.00    -0.036 C 
HETATM    2  C6  UNL     1      26.022   1.723  53.561  1.00  0.00     0.010 C 
HETATM    3  C7  UNL     1      27.483   1.792  53.907  1.00  0.00     0.197 C 
HETATM    4  O2  UNL     1      28.001   0.561  54.218  1.00  0.00    -0.368 OA
HETATM    5  C8  UNL     1      28.191  -0.290  53.141  1.00  0.00     0.242 C 
HETATM    6  C9  UNL     1      29.241  -1.310  53.409  1.00  0.00     0.178 C 
HETATM    7  O3  UNL     1      30.343  -1.125  53.900  1.00  0.00    -0.293 OA
HETATM    8  C10 UNL     1      28.748  -2.659  52.976  1.00  0.00     0.201 C 
HETATM    9  N1  UNL     1      27.295  -2.498  52.907  1.00  0.00    -0.384 N 
HETATM   10  C11 UNL     1      26.962  -1.122  53.040  1.00  0.00     0.043 C 
HETATM   11  C12 UNL     1      25.736  -0.623  53.072  1.00  0.00     0.039 C 
HETATM   12  H12 UNL     1      26.636  -3.298  52.779  1.00  0.00     0.160 HD
ENDROOT
BRANCH   1  13
HETATM   13  C4  UNL     1      23.829   0.906  52.915  1.00  0.00     0.014 C 
HETATM   14  C3  UNL     1      22.924   0.006  52.587  1.00  0.00     0.037 C 
BRANCH  14  15
HETATM   15  C2  UNL     1      21.497   0.262  52.304  1.00  0.00     0.068 C 
HETATM   16  C13 UNL     1      21.088   0.748  51.148  1.00  0.00     0.035 C 
BRANCH  15  17
HETATM   17  O1  UNL     1      20.669  -0.062  53.372  1.00  0.00    -0.356 OA
HETATM   18  C1  UNL     1      20.886  -1.248  54.102  1.00  0.00     0.210 C 
ENDBRANCH  15  17
BRANCH  16  19
HETATM   19  C14 UNL     1      21.845   1.131  49.948  1.00  0.00     0.015 C 
HETATM   20  C15 UNL     1      21.352   0.973  48.728  1.00  0.00     0.441 C 
HETATM   21  F1  UNL     1      22.125   1.355  47.704  1.00  0.00    -0.452 F 
ENDBRANCH  16  19
ENDBRANCH  14  15
ENDBRANCH   1  13
TORSDOF 4
ENDMDL
MODEL 2
REMARK VINA RESULT:      -7.4      2.314      2.931
REMARK  4 active torsions:
REMARK  status: ('A' for Active; 'I' for Inactive)
REMARK    1  A    between atoms: O1_2  and  C2_3 
REMARK    2  A    between atoms: C2_3  and  C3_4 
REMARK    3  A    between atoms: C4_5  and  C5_6 
REMARK    4  A    between atoms: C13_17  and  C14_18 
ROOT
HETATM    1  C5  UNL     1      25.363   0.734  52.861  1.00  0.00    -0.036 C 
HETATM    2  C6  UNL     1      26.165   1.737  53.168  1.00  0.00     0.010 C 
HETATM    3  C7  UNL     1      27.610   1.815  53.576  1.00  0.00     0.197 C 
HETATM    4  O2  UNL     1      28.088   0.609  54.022  1.00  0.00    -0.368 OA
HETATM    5  C8  UNL     1      28.312  -0.339  53.037  1.00  0.00     0.242 C 
HETATM    6  C9  UNL     1      29.327  -1.348  53.447  1.00  0.00     0.178 C 
HETATM    7  O3  UNL     1      30.408  -1.135  53.972  1.00  0.00    -0.293 OA
HETATM    8  C10 UNL     1      28.828  -2.722  53.115  1.00  0.00     0.201 C 
HETATM    9  N1  UNL     1      27.383  -2.546  52.961  1.00  0.00    -0.384 N 
HETATM   10  C11 UNL     1      27.072  -1.158  52.953  1.00  0.00     0.043 C 
HETATM   11  C12 UNL     1      25.856  -0.639  52.880  1.00  0.00     0.039 C 
HETATM   12  H12 UNL     1      26.715  -3.344  52.875  1.00  0.00     0.160 HD
ENDROOT
BRANCH   1  13
HETATM   13  C4  UNL     1      23.989   0.899  52.493  1.00  0.00     0.014 C 
HETATM   14  C3  UNL     1      23.118   1.804  52.891  1.00  0.00     0.037 C 
BRANCH  14  15
HETATM   15  C2  UNL     1      21.708   1.910  52.464  1.00  0.00     0.068 C 
HETATM   16  C13 UNL     1      20.751   1.195  53.024  1.00  0.00     0.035 C 
BRANCH  15  17
HETATM   17  O1  UNL     1      21.523   2.823  51.433  1.00  0.00    -0.356 OA
HETATM   18  C1  UNL     1      20.881   4.053  51.684  1.00  0.00     0.210 C 
ENDBRANCH  15  17
BRANCH  16  19
HETATM   19  C14 UNL     1      20.804   0.204  54.108  1.00  0.00     0.015 C 
HETATM   20  C15 UNL     1      20.977  -1.087  53.870  1.00  0.00     0.441 C 
HETATM   21  F1  UNL     1      21.009  -1.904  54.930  1.00  0.00    -0.452 F 
ENDBRANCH  16  19
ENDBRANCH  14  15
ENDBRANCH   1  13
TORSDOF 4
ENDMDL
MODEL 3
REMARK VINA RESULT:      -7.3      2.020      2.554
REMARK  4 active torsions:
REMARK  status: ('A' for Active; 'I' for Inactive)
REMARK    1  A    between atoms: O1_2  and  C2_3 
REMARK    2  A    between atoms: C2_3  and  C3_4 
REMARK    3  A    between atoms: C4_5  and  C5_6 
REMARK    4  A    between atoms: C13_17  and  C14_18 
ROOT
HETATM    1  C5  UNL     1      23.812   0.621  52.934  1.00  0.00    -0.036 C 
HETATM    2  C6  UNL     1      23.900  -0.364  53.809  1.00  0.00     0.010 C 
HETATM    3  C7  UNL     1      25.032  -0.919  54.627  1.00  0.00     0.197 C 
HETATM    4  O2  UNL     1      26.258  -0.550  54.134  1.00  0.00    -0.368 OA
HETATM    5  C8  UNL     1      26.610   0.772  54.357  1.00  0.00     0.242 C 
HETATM    6  C9  UNL     1      28.085   0.969  54.351  1.00  0.00     0.178 C 
HETATM    7  O3  UNL     1      28.924   0.288  54.919  1.00  0.00    -0.293 OA
HETATM    8  C10 UNL     1      28.425   2.169  53.518  1.00  0.00     0.201 C 
HETATM    9  N1  UNL     1      27.237   2.370  52.687  1.00  0.00    -0.384 N 
HETATM   10  C11 UNL     1      26.186   1.530  53.148  1.00  0.00     0.043 C 
HETATM   11  C12 UNL     1      24.987   1.419  52.599  1.00  0.00     0.039 C 
HETATM   12  H12 UNL     1      27.205   3.039  51.885  1.00  0.00     0.160 HD
ENDROOT
BRANCH   1  13
HETATM   13  C4  UNL     1      22.601   0.981  52.262  1.00  0.00     0.014 C 
HETATM   14  C3  UNL     1      21.645   0.209  51.784  1.00  0.00     0.037 C 
BRANCH  14  15
HETATM   15  C2  UNL     1      20.417   0.658  51.098  1.00  0.00     0.068 C 
HETATM   16  C13 UNL     1      20.407   0.981  49.819  1.00  0.00     0.035 C 
BRANCH  15  17
HETATM   17  O1  UNL     1      19.312   0.697  51.940  1.00  0.00    -0.356 OA
HETATM   18  C1  UNL     1      19.065  -0.365  52.833  1.00  0.00     0.210 C 
ENDBRANCH  15  17
BRANCH  16  19
HETATM   19  C14 UNL     1      21.488   0.987  48.824  1.00  0.00     0.015 C 
HETATM   20  C15 UNL     1      21.767   2.059  48.098  1.00  0.00     0.441 C 
HETATM   21  F1  UNL     1      22.772   1.956  47.218  1.00  0.00    -0.452 F 
ENDBRANCH  16  19
ENDBRANCH  14  15
ENDBRANCH   1  13
TORSDOF 4
ENDMDL
MODEL 4
REMARK VINA RESULT:      -7.2      3.049      4.111
REMARK  4 active torsions:
REMARK  status: ('A' for Active; 'I' for Inactive)
REMARK    1  A    between atoms: O1_2  and  C2_3 
REMARK    2  A    between atoms: C2_3  and  C3_4 
REMARK    3  A    between atoms: C4_5  and  C5_6 
REMARK    4  A    between atoms: C13_17  and  C14_18 
ROOT
HETATM    1  C5  UNL     1      23.174  -0.251  53.379  1.00  0.00    -0.036 C 
HETATM    2  C6  UNL     1      23.289  -0.899  54.524  1.00  0.00     0.010 C 
HETATM    3  C7  UNL     1      24.457  -1.221  55.415  1.00  0.00     0.197 C 
HETATM    4  O2  UNL     1      25.656  -1.101  54.761  1.00  0.00    -0.368 OA
HETATM    5  C8  UNL     1      26.069   0.200  54.517  1.00  0.00     0.242 C 
HETATM    6  C9  UNL     1      27.546   0.301  54.365  1.00  0.00     0.178 C 
HETATM    7  O3  UNL     1      28.399  -0.203  55.078  1.00  0.00    -0.293 OA
HETATM    8  C10 UNL     1      27.868   1.143  53.166  1.00  0.00     0.201 C 
HETATM    9  N1  UNL     1      26.632   1.128  52.382  1.00  0.00    -0.384 N 
HETATM   10  C11 UNL     1      25.588   0.544  53.151  1.00  0.00     0.043 C 
HETATM   11  C12 UNL     1      24.350   0.327  52.736  1.00  0.00     0.039 C 
HETATM   12  H12 UNL     1      26.567   1.498  51.408  1.00  0.00     0.160 HD
ENDROOT
BRANCH   1  13
HETATM   13  C4  UNL     1      21.932  -0.063  52.694  1.00  0.00     0.014 C 
HETATM   14  C3  UNL     1      20.699  -0.137  53.156  1.00  0.00     0.037 C 
BRANCH  14  15
HETATM   15  C2  UNL     1      19.460   0.071  52.381  1.00  0.00     0.068 C 
HETATM   16  C13 UNL     1      18.370  -0.640  52.599  1.00  0.00     0.035 C 
BRANCH  15  17
HETATM   17  O1  UNL     1      19.582   1.073  51.426  1.00  0.00    -0.356 OA
HETATM   18  C1  UNL     1      18.942   0.942  50.177  1.00  0.00     0.210 C 
ENDBRANCH  15  17
BRANCH  16  19
HETATM   19  C14 UNL     1      18.104  -1.717  53.563  1.00  0.00     0.015 C 
HETATM   20  C15 UNL     1      17.414  -2.799  53.234  1.00  0.00     0.441 C 
HETATM   21  F1  UNL     1      17.230  -3.719  54.188  1.00  0.00    -0.452 F 
ENDBRANCH  16  19
ENDBRANCH  14  15
ENDBRANCH   1  13
TORSDOF 4
ENDMDL
MODEL 5
REMARK VINA RESULT:      -7.2      2.678      3.548
REMARK  4 active torsions:
REMARK  status: ('A' for Active; 'I' for Inactive)
REMARK    1  A    between atoms: O1_2  and  C2_3 
REMARK    2  A    between atoms: C2_3  and  C3_4 
REMARK    3  A    between atoms: C4_5  and  C5_6 
REMARK    4  A    between atoms: C13_17  and  C14_18 
ROOT
HETATM    1  C5  UNL     1      24.784   0.760  53.119  1.00  0.00    -0.036 C 
HETATM    2  C6  UNL     1      25.076  -0.510  52.906  1.00  0.00     0.010 C 
HETATM    3  C7  UNL     1      26.366  -1.281  52.871  1.00  0.00     0.197 C 
HETATM    4  O2  UNL     1      27.455  -0.462  52.711  1.00  0.00    -0.368 OA
HETATM    5  C8  UNL     1      27.807   0.278  53.829  1.00  0.00     0.242 C 
HETATM    6  C9  UNL     1      29.244   0.666  53.816  1.00  0.00     0.178 C 
HETATM    7  O3  UNL     1      30.200  -0.049  53.560  1.00  0.00    -0.293 OA
HETATM    8  C10 UNL     1      29.373   2.116  54.175  1.00  0.00     0.201 C 
HETATM    9  N1  UNL     1      28.036   2.660  53.934  1.00  0.00    -0.384 N 
HETATM   10  C11 UNL     1      27.125   1.594  53.694  1.00  0.00     0.043 C 
HETATM   11  C12 UNL     1      25.843   1.726  53.393  1.00  0.00     0.039 C 
HETATM   12  H12 UNL     1      27.823   3.682  53.945  1.00  0.00     0.160 HD
ENDROOT
BRANCH   1  13
HETATM   13  C4  UNL     1      23.451   1.283  53.103  1.00  0.00     0.014 C 
HETATM   14  C3  UNL     1      22.662   1.536  52.078  1.00  0.00     0.037 C 
BRANCH  14  15
HETATM   15  C2  UNL     1      21.290   2.079  52.143  1.00  0.00     0.068 C 
HETATM   16  C13 UNL     1      20.249   1.319  52.421  1.00  0.00     0.035 C 
BRANCH  15  17
HETATM   17  O1  UNL     1      21.236   3.443  51.883  1.00  0.00    -0.356 OA
HETATM   18  C1  UNL     1      20.020   4.042  51.496  1.00  0.00     0.210 C 
ENDBRANCH  15  17
BRANCH  16  19
HETATM   19  C14 UNL     1      20.162  -0.119  52.713  1.00  0.00     0.015 C 
HETATM   20  C15 UNL     1      20.318  -0.597  53.939  1.00  0.00     0.441 C 
HETATM   21  F1  UNL     1      20.220  -1.923  54.094  1.00  0.00    -0.452 F 
ENDBRANCH  16  19
ENDBRANCH  14  15
ENDBRANCH   1  13
TORSDOF 4
ENDMDL
MODEL 6
REMARK VINA RESULT:      -7.0      3.681      4.403
REMARK  4 active torsions:
REMARK  status: ('A' for Active; 'I' for Inactive)
REMARK    1  A    between atoms: O1_2  and  C2_3 
REMARK    2  A    between atoms: C2_3  and  C3_4 
REMARK    3  A    between atoms: C4_5  and  C5_6 
REMARK    4  A    between atoms: C13_17  and  C14_18 
ROOT
HETATM    1  C5  UNL     1      24.468   1.839  52.867  1.00  0.00    -0.036 C 
HETATM    2  C6  UNL     1      24.184   0.588  53.179  1.00  0.00     0.010 C 
HETATM    3  C7  UNL     1      25.003  -0.552  53.717  1.00  0.00     0.197 C 
HETATM    4  O2  UNL     1      26.349  -0.350  53.547  1.00  0.00    -0.368 OA
HETATM    5  C8  UNL     1      26.916   0.592  54.392  1.00  0.00     0.242 C 
HETATM    6  C9  UNL     1      28.375   0.366  54.587  1.00  0.00     0.178 C 
HETATM    7  O3  UNL     1      28.933  -0.693  54.826  1.00  0.00    -0.293 OA
HETATM    8  C10 UNL     1      29.104   1.668  54.445  1.00  0.00     0.201 C 
HETATM    9  N1  UNL     1      28.162   2.525  53.723  1.00  0.00    -0.384 N 
HETATM   10  C11 UNL     1      26.893   1.885  53.657  1.00  0.00     0.043 C 
HETATM   11  C12 UNL     1      25.823   2.354  53.034  1.00  0.00     0.039 C 
HETATM   12  H12 UNL     1      28.420   3.458  53.332  1.00  0.00     0.160 HD
ENDROOT
BRANCH   1  13
HETATM   13  C4  UNL     1      23.505   2.769  52.359  1.00  0.00     0.014 C 
HETATM   14  C3  UNL     1      23.521   4.087  52.376  1.00  0.00     0.037 C 
BRANCH  14  15
HETATM   15  C2  UNL     1      22.483   4.982  51.827  1.00  0.00     0.068 C 
HETATM   16  C13 UNL     1      22.771   6.178  51.349  1.00  0.00     0.035 C 
BRANCH  15  17
HETATM   17  O1  UNL     1      21.210   4.427  51.878  1.00  0.00    -0.356 OA
HETATM   18  C1  UNL     1      20.377   4.464  50.741  1.00  0.00     0.210 C 
ENDBRANCH  15  17
BRANCH  16  19
HETATM   19  C14 UNL     1      24.056   6.881  51.236  1.00  0.00     0.015 C 
HETATM   20  C15 UNL     1      24.952   6.561  50.315  1.00  0.00     0.441 C 
HETATM   21  F1  UNL     1      26.091   7.266  50.300  1.00  0.00    -0.452 F 
ENDBRANCH  16  19
ENDBRANCH  14  15
ENDBRANCH   1  13
TORSDOF 4
ENDMDL
MODEL 7
REMARK VINA RESULT:      -6.7      4.311      5.918
REMARK  4 active torsions:
REMARK  status: ('A' for Active; 'I' for Inactive)
REMARK    1  A    between atoms: O1_2  and  C2_3 
REMARK    2  A    between atoms: C2_3  and  C3_4 
REMARK    3  A    between atoms: C4_5  and  C5_6 
REMARK    4  A    between atoms: C13_17  and  C14_18 
ROOT
HETATM    1  C5  UNL     1      23.976   1.795  51.759  1.00  0.00    -0.036 C 
HETATM    2  C6  UNL     1      25.050   1.066  52.006  1.00  0.00     0.010 C 
HETATM    3  C7  UNL     1      25.338  -0.054  52.966  1.00  0.00     0.197 C 
HETATM    4  O2  UNL     1      24.425  -0.109  53.988  1.00  0.00    -0.368 OA
HETATM    5  C8  UNL     1      23.174  -0.593  53.638  1.00  0.00     0.242 C 
HETATM    6  C9  UNL     1      22.449  -1.170  54.803  1.00  0.00     0.178 C 
HETATM    7  O3  UNL     1      22.893  -1.936  55.643  1.00  0.00    -0.293 OA
HETATM    8  C10 UNL     1      21.037  -0.666  54.811  1.00  0.00     0.201 C 
HETATM    9  N1  UNL     1      21.082   0.527  53.964  1.00  0.00    -0.384 N 
HETATM   10  C11 UNL     1      22.341   0.595  53.306  1.00  0.00     0.043 C 
HETATM   11  C12 UNL     1      22.742   1.568  52.504  1.00  0.00     0.039 C 
HETATM   12  H12 UNL     1      20.289   1.201  53.883  1.00  0.00     0.160 HD
ENDROOT
BRANCH   1  13
HETATM   13  C4  UNL     1      23.930   2.833  50.775  1.00  0.00     0.014 C 
HETATM   14  C3  UNL     1      24.250   4.108  50.885  1.00  0.00     0.037 C 
BRANCH  14  15
HETATM   15  C2  UNL     1      24.174   5.124  49.817  1.00  0.00     0.068 C 
HETATM   16  C13 UNL     1      25.213   5.424  49.060  1.00  0.00     0.035 C 
BRANCH  15  17
HETATM   17  O1  UNL     1      22.916   5.706  49.713  1.00  0.00    -0.356 OA
HETATM   18  C1  UNL     1      22.225   6.108  50.874  1.00  0.00     0.210 C 
ENDBRANCH  15  17
BRANCH  16  19
HETATM   19  C14 UNL     1      26.583   4.895  49.061  1.00  0.00     0.015 C 
HETATM   20  C15 UNL     1      27.575   5.516  48.440  1.00  0.00     0.441 C 
HETATM   21  F1  UNL     1      28.786   4.947  48.502  1.00  0.00    -0.452 F 
ENDBRANCH  16  19
ENDBRANCH  14  15
ENDBRANCH   1  13
TORSDOF 4
ENDMDL
MODEL 8
REMARK VINA RESULT:      -6.6      2.847      3.801
REMARK  4 active torsions:
REMARK  status: ('A' for Active; 'I' for Inactive)
REMARK    1  A    between atoms: O1_2  and  C2_3 
REMARK    2  A    between atoms: C2_3  and  C3_4 
REMARK    3  A    between atoms: C4_5  and  C5_6 
REMARK    4  A    between atoms: C13_17  and  C14_18 
ROOT
HETATM    1  C5  UNL     1      23.637   0.867  52.611  1.00  0.00    -0.036 C 
HETATM    2  C6  UNL     1      23.653  -0.143  53.462  1.00  0.00     0.010 C 
HETATM    3  C7  UNL     1      24.731  -0.764  54.306  1.00  0.00     0.197 C 
HETATM    4  O2  UNL     1      25.988  -0.430  53.870  1.00  0.00    -0.368 OA
HETATM    5  C8  UNL     1      26.381   0.871  54.143  1.00  0.00     0.242 C 
HETATM    6  C9  UNL     1      27.862   1.011  54.198  1.00  0.00     0.178 C 
HETATM    7  O3  UNL     1      28.651   0.283  54.779  1.00  0.00    -0.293 OA
HETATM    8  C10 UNL     1      28.279   2.217  53.412  1.00  0.00     0.201 C 
HETATM    9  N1  UNL     1      27.133   2.486  52.543  1.00  0.00    -0.384 N 
HETATM   10  C11 UNL     1      26.034   1.676  52.941  1.00  0.00     0.043 C 
HETATM   11  C12 UNL     1      24.854   1.627  52.343  1.00  0.00     0.039 C 
HETATM   12  H12 UNL     1      27.158   3.176  51.759  1.00  0.00     0.160 HD
ENDROOT
BRANCH   1  13
HETATM   13  C4  UNL     1      22.468   1.292  51.904  1.00  0.00     0.014 C 
HETATM   14  C3  UNL     1      21.908   0.780  50.825  1.00  0.00     0.037 C 
BRANCH  14  15
HETATM   15  C2  UNL     1      20.693   1.278  50.150  1.00  0.00     0.068 C 
HETATM   16  C13 UNL     1      19.481   0.953  50.557  1.00  0.00     0.035 C 
BRANCH  15  17
HETATM   17  O1  UNL     1      20.977   2.104  49.068  1.00  0.00    -0.356 OA
HETATM   18  C1  UNL     1      21.010   3.503  49.235  1.00  0.00     0.210 C 
ENDBRANCH  15  17
BRANCH  16  19
HETATM   19  C14 UNL     1      19.041   0.101  51.671  1.00  0.00     0.015 C 
HETATM   20  C15 UNL     1      17.882  -0.540  51.648  1.00  0.00     0.441 C 
HETATM   21  F1  UNL     1      17.577  -1.289  52.715  1.00  0.00    -0.452 F 
ENDBRANCH  16  19
ENDBRANCH  14  15
ENDBRANCH   1  13
TORSDOF 4
ENDMDL
MODEL 9
REMARK VINA RESULT:      -6.6      7.491      9.934
REMARK  4 active torsions:
REMARK  status: ('A' for Active; 'I' for Inactive)
REMARK    1  A    between atoms: O1_2  and  C2_3 
REMARK    2  A    between atoms: C2_3  and  C3_4 
REMARK    3  A    between atoms: C4_5  and  C5_6 
REMARK    4  A    between atoms: C13_17  and  C14_18 
ROOT
HETATM    1  C5  UNL     1      27.997   6.074  48.187  1.00  0.00    -0.036 C 
HETATM    2  C6  UNL     1      27.123   7.062  48.130  1.00  0.00     0.010 C 
HETATM    3  C7  UNL     1      25.680   7.188  48.533  1.00  0.00     0.197 C 
HETATM    4  O2  UNL     1      25.076   5.966  48.683  1.00  0.00    -0.368 OA
HETATM    5  C8  UNL     1      25.439   5.264  49.823  1.00  0.00     0.242 C 
HETATM    6  C9  UNL     1      24.392   4.291  50.241  1.00  0.00     0.178 C 
HETATM    7  O3  UNL     1      23.191   4.490  50.326  1.00  0.00    -0.293 OA
HETATM    8  C10 UNL     1      25.034   2.974  50.558  1.00  0.00     0.201 C 
HETATM    9  N1  UNL     1      26.335   3.043  49.890  1.00  0.00    -0.384 N 
HETATM   10  C11 UNL     1      26.559   4.369  49.425  1.00  0.00     0.043 C 
HETATM   11  C12 UNL     1      27.612   4.777  48.734  1.00  0.00     0.039 C 
HETATM   12  H12 UNL     1      26.972   2.222  49.790  1.00  0.00     0.160 HD
ENDROOT
BRANCH   1  13
HETATM   13  C4  UNL     1      29.351   6.183  47.735  1.00  0.00     0.014 C 
HETATM   14  C3  UNL     1      30.363   5.357  47.909  1.00  0.00     0.037 C 
BRANCH  14  15
HETATM   15  C2  UNL     1      31.740   5.541  47.408  1.00  0.00     0.068 C 
HETATM   16  C13 UNL     1      32.424   4.555  46.860  1.00  0.00     0.035 C 
BRANCH  15  17
HETATM   17  O1  UNL     1      32.208   6.839  47.582  1.00  0.00    -0.356 OA
HETATM   18  C1  UNL     1      32.791   7.222  48.806  1.00  0.00     0.210 C 
ENDBRANCH  15  17
BRANCH  16  19
HETATM   19  C14 UNL     1      32.058   3.153  46.618  1.00  0.00     0.015 C 
HETATM   20  C15 UNL     1      32.821   2.149  47.021  1.00  0.00     0.441 C 
HETATM   21  F1  UNL     1      32.394   0.909  46.748  1.00  0.00    -0.452 F 
ENDBRANCH  16  19
ENDBRANCH  14  15
ENDBRANCH   1  13
TORSDOF 4
ENDMDL
