MODEL 1
REMARK VINA RESULT:      -8.6      0.000      0.000
REMARK  8 active torsions:
REMARK  status: ('A' for Active; 'I' for Inactive)
REMARK    1  A    between atoms: C1_2  and  C2_3 
REMARK    2  A    between atoms: C7_10  and  N3_11 
REMARK    3  A    between atoms: N3_11  and  C8_12 
REMARK    4  A    between atoms: C8_12  and  C9_13 
REMARK    5  A    between atoms: C10_14  and  C11_16 
REMARK    6  A    between atoms: C11_16  and  C12_18 
REMARK    7  A    between atoms: C12_18  and  C13_19 
REMARK    8  A    between atoms: C13_19  and  C14_20 
ROOT
HETATM    1  N3  UNL     1      23.008   1.508  50.767  1.00  0.00    -0.370 N 
HETATM    2  H5  UNL     1      24.015   1.428  51.009  1.00  0.00     0.161 HD
ENDROOT
BRANCH   1   3
HETATM    3  C7  UNL     1      21.944   0.915  51.486  1.00  0.00     0.137 A 
HETATM    4  N2  UNL     1      20.664   1.025  51.093  1.00  0.00    -0.224 NA
HETATM    5  C6  UNL     1      19.622   0.480  51.744  1.00  0.00     0.235 A 
HETATM    6  N1  UNL     1      19.847  -0.230  52.871  1.00  0.00    -0.241 NA
HETATM    7  C5  UNL     1      21.096  -0.392  53.340  1.00  0.00     0.072 A 
HETATM    8  C4  UNL     1      21.210  -1.134  54.495  1.00  0.00     0.033 A 
HETATM    9  C20 UNL     1      22.133   0.184  52.639  1.00  0.00     0.039 A 
HETATM   10  C3  UNL     1      22.466  -1.327  55.012  1.00  0.00     0.016 A 
HETATM   11  C2  UNL     1      23.506  -0.754  54.317  1.00  0.00    -0.011 A 
HETATM   12  C21 UNL     1      23.384  -0.012  53.160  1.00  0.00     0.031 A 
BRANCH  11  13
HETATM   13  C1  UNL     1      24.838  -0.940  54.835  1.00  0.00     0.389 C 
HETATM   14  O1  UNL     1      25.330  -1.070  55.996  1.00  0.00    -0.405 OA
ENDBRANCH  11  13
ENDBRANCH   1   3
BRANCH   1  15
HETATM   15  C8  UNL     1      22.649   2.290  49.601  1.00  0.00     0.150 C 
BRANCH  15  16
HETATM   16  C9  UNL     1      23.639   3.371  49.409  1.00  0.00     0.015 C 
HETATM   17  C10 UNL     1      24.919   3.805  49.372  1.00  0.00     0.043 C 
HETATM   18 CL1  UNL     1      25.432   5.465  49.033  1.00  0.00    -0.086 Cl
BRANCH  17  19
HETATM   19  C11 UNL     1      26.217   3.116  49.583  1.00  0.00     0.214 C 
HETATM   20  F1  UNL     1      27.198   3.940  49.042  1.00  0.00    -0.243 F 
BRANCH  19  21
HETATM   21  C12 UNL     1      26.427   2.912  51.052  1.00  0.00     0.047 C 
BRANCH  21  22
HETATM   22  C13 UNL     1      26.236   1.479  51.506  1.00  0.00     0.041 C 
BRANCH  22  23
HETATM   23  C14 UNL     1      27.265   1.011  52.446  1.00  0.00    -0.058 A 
HETATM   24  C15 UNL     1      27.470  -0.339  52.637  1.00  0.00     0.007 A 
HETATM   25  C16 UNL     1      28.425  -0.822  53.506  1.00  0.00     0.001 A 
HETATM   26  C17 UNL     1      29.225   0.029  54.229  1.00  0.00     0.000 A 
HETATM   27  C18 UNL     1      29.056   1.380  54.072  1.00  0.00     0.001 A 
HETATM   28  C19 UNL     1      28.097   1.831  53.199  1.00  0.00     0.007 A 
ENDBRANCH  22  23
ENDBRANCH  21  22
ENDBRANCH  19  21
ENDBRANCH  17  19
ENDBRANCH  15  16
ENDBRANCH   1  15
TORSDOF 8
ENDMDL
MODEL 2
REMARK VINA RESULT:      -8.2      2.612      5.444
REMARK  8 active torsions:
REMARK  status: ('A' for Active; 'I' for Inactive)
REMARK    1  A    between atoms: C1_2  and  C2_3 
REMARK    2  A    between atoms: C7_10  and  N3_11 
REMARK    3  A    between atoms: N3_11  and  C8_12 
REMARK    4  A    between atoms: C8_12  and  C9_13 
REMARK    5  A    between atoms: C10_14  and  C11_16 
REMARK    6  A    between atoms: C11_16  and  C12_18 
REMARK    7  A    between atoms: C12_18  and  C13_19 
REMARK    8  A    between atoms: C13_19  and  C14_20 
ROOT
HETATM    1  N3  UNL     1      26.077   2.411  50.803  1.00  0.00    -0.370 N 
HETATM    2  H5  UNL     1      25.235   1.949  50.410  1.00  0.00     0.161 HD
ENDROOT
BRANCH   1   3
HETATM    3  C7  UNL     1      26.716   2.053  52.013  1.00  0.00     0.137 A 
HETATM    4  N2  UNL     1      27.912   2.552  52.367  1.00  0.00    -0.224 NA
HETATM    5  C6  UNL     1      28.558   2.241  53.504  1.00  0.00     0.235 A 
HETATM    6  N1  UNL     1      27.990   1.371  54.367  1.00  0.00    -0.241 NA
HETATM    7  C5  UNL     1      26.794   0.821  54.096  1.00  0.00     0.072 A 
HETATM    8  C4  UNL     1      26.309  -0.051  55.045  1.00  0.00     0.033 A 
HETATM    9  C20 UNL     1      26.170   1.170  52.919  1.00  0.00     0.039 A 
HETATM   10  C3  UNL     1      25.091  -0.639  54.813  1.00  0.00     0.016 A 
HETATM   11  C2  UNL     1      24.462  -0.294  53.639  1.00  0.00    -0.011 A 
HETATM   12  C21 UNL     1      24.954   0.581  52.693  1.00  0.00     0.031 A 
BRANCH  11  13
HETATM   13  C1  UNL     1      23.180  -0.895  53.367  1.00  0.00     0.389 C 
HETATM   14  O1  UNL     1      22.139  -1.117  54.055  1.00  0.00    -0.405 OA
ENDBRANCH  11  13
ENDBRANCH   1   3
BRANCH   1  15
HETATM   15  C8  UNL     1      26.656   3.513  50.063  1.00  0.00     0.150 C 
BRANCH  15  16
HETATM   16  C9  UNL     1      25.588   4.460  49.675  1.00  0.00     0.015 C 
HETATM   17  C10 UNL     1      24.619   5.343  50.003  1.00  0.00     0.043 C 
HETATM   18 CL1  UNL     1      23.597   6.221  48.855  1.00  0.00    -0.086 Cl
BRANCH  17  19
HETATM   19  C11 UNL     1      24.116   5.839  51.309  1.00  0.00     0.214 C 
HETATM   20  F1  UNL     1      23.917   7.208  51.166  1.00  0.00    -0.243 F 
BRANCH  19  21
HETATM   21  C12 UNL     1      22.835   5.135  51.637  1.00  0.00     0.047 C 
BRANCH  21  22
HETATM   22  C13 UNL     1      23.027   3.812  52.349  1.00  0.00     0.041 C 
BRANCH  22  23
HETATM   23  C14 UNL     1      22.263   2.703  51.758  1.00  0.00    -0.058 A 
HETATM   24  C15 UNL     1      21.197   2.152  52.438  1.00  0.00     0.007 A 
HETATM   25  C16 UNL     1      20.451   1.115  51.921  1.00  0.00     0.001 A 
HETATM   26  C17 UNL     1      20.738   0.576  50.691  1.00  0.00     0.000 A 
HETATM   27  C18 UNL     1      21.790   1.091  49.978  1.00  0.00     0.001 A 
HETATM   28  C19 UNL     1      22.514   2.125  50.519  1.00  0.00     0.007 A 
ENDBRANCH  22  23
ENDBRANCH  21  22
ENDBRANCH  19  21
ENDBRANCH  17  19
ENDBRANCH  15  16
ENDBRANCH   1  15
TORSDOF 8
ENDMDL
MODEL 3
REMARK VINA RESULT:      -8.1      1.262      1.501
REMARK  8 active torsions:
REMARK  status: ('A' for Active; 'I' for Inactive)
REMARK    1  A    between atoms: C1_2  and  C2_3 
REMARK    2  A    between atoms: C7_10  and  N3_11 
REMARK    3  A    between atoms: N3_11  and  C8_12 
REMARK    4  A    between atoms: C8_12  and  C9_13 
REMARK    5  A    between atoms: C10_14  and  C11_16 
REMARK    6  A    between atoms: C11_16  and  C12_18 
REMARK    7  A    between atoms: C12_18  and  C13_19 
REMARK    8  A    between atoms: C13_19  and  C14_20 
ROOT
HETATM    1  N3  UNL     1      22.614   2.536  51.675  1.00  0.00    -0.370 N 
HETATM    2  H5  UNL     1      23.292   2.977  52.326  1.00  0.00     0.161 HD
ENDROOT
BRANCH   1   3
HETATM    3  C7  UNL     1      21.562   1.670  52.053  1.00  0.00     0.137 A 
HETATM    4  N2  UNL     1      20.306   1.829  51.605  1.00  0.00    -0.224 NA
HETATM    5  C6  UNL     1      19.275   1.033  51.938  1.00  0.00     0.235 A 
HETATM    6  N1  UNL     1      19.487  -0.005  52.775  1.00  0.00    -0.241 NA
HETATM    7  C5  UNL     1      20.713  -0.241  53.274  1.00  0.00     0.072 A 
HETATM    8  C4  UNL     1      20.816  -1.325  54.117  1.00  0.00     0.033 A 
HETATM    9  C20 UNL     1      21.739   0.601  52.905  1.00  0.00     0.039 A 
HETATM   10  C3  UNL     1      22.048  -1.607  54.651  1.00  0.00     0.016 A 
HETATM   11  C2  UNL     1      23.077  -0.769  54.287  1.00  0.00    -0.011 A 
HETATM   12  C21 UNL     1      22.966   0.314  53.441  1.00  0.00     0.031 A 
BRANCH  11  13
HETATM   13  C1  UNL     1      24.384  -1.041  54.832  1.00  0.00     0.389 C 
HETATM   14  O1  UNL     1      24.835  -1.249  55.998  1.00  0.00    -0.405 OA
ENDBRANCH  11  13
ENDBRANCH   1   3
BRANCH   1  15
HETATM   15  C8  UNL     1      22.745   2.823  50.261  1.00  0.00     0.150 C 
BRANCH  15  16
HETATM   16  C9  UNL     1      24.143   3.199  49.962  1.00  0.00     0.015 C 
HETATM   17  C10 UNL     1      25.457   3.199  50.278  1.00  0.00     0.043 C 
HETATM   18 CL1  UNL     1      26.744   3.948  49.322  1.00  0.00    -0.086 Cl
BRANCH  17  19
HETATM   19  C11 UNL     1      26.212   2.632  51.424  1.00  0.00     0.214 C 
HETATM   20  F1  UNL     1      25.438   2.849  52.558  1.00  0.00    -0.243 F 
BRANCH  19  21
HETATM   21  C12 UNL     1      26.431   1.168  51.187  1.00  0.00     0.047 C 
BRANCH  21  22
HETATM   22  C13 UNL     1      26.234   0.312  52.421  1.00  0.00     0.041 C 
BRANCH  22  23
HETATM   23  C14 UNL     1      27.422  -0.468  52.798  1.00  0.00    -0.058 A 
HETATM   24  C15 UNL     1      27.424  -1.841  52.665  1.00  0.00     0.007 A 
HETATM   25  C16 UNL     1      28.516  -2.611  53.003  1.00  0.00     0.001 A 
HETATM   26  C17 UNL     1      29.666  -2.040  53.492  1.00  0.00     0.000 A 
HETATM   27  C18 UNL     1      29.710  -0.678  53.641  1.00  0.00     0.001 A 
HETATM   28  C19 UNL     1      28.606   0.063  53.296  1.00  0.00     0.007 A 
ENDBRANCH  22  23
ENDBRANCH  21  22
ENDBRANCH  19  21
ENDBRANCH  17  19
ENDBRANCH  15  16
ENDBRANCH   1  15
TORSDOF 8
ENDMDL
MODEL 4
REMARK VINA RESULT:      -8.0      2.462      4.591
REMARK  8 active torsions:
REMARK  status: ('A' for Active; 'I' for Inactive)
REMARK    1  A    between atoms: C1_2  and  C2_3 
REMARK    2  A    between atoms: C7_10  and  N3_11 
REMARK    3  A    between atoms: N3_11  and  C8_12 
REMARK    4  A    between atoms: C8_12  and  C9_13 
REMARK    5  A    between atoms: C10_14  and  C11_16 
REMARK    6  A    between atoms: C11_16  and  C12_18 
REMARK    7  A    between atoms: C12_18  and  C13_19 
REMARK    8  A    between atoms: C13_19  and  C14_20 
ROOT
HETATM    1  N3  UNL     1      21.784   1.122  51.634  1.00  0.00    -0.370 N 
HETATM    2  H5  UNL     1      21.881   2.152  51.545  1.00  0.00     0.161 HD
ENDROOT
BRANCH   1   3
HETATM    3  C7  UNL     1      22.190   0.355  52.751  1.00  0.00     0.137 A 
HETATM    4  N2  UNL     1      21.309  -0.270  53.550  1.00  0.00    -0.224 NA
HETATM    5  C6  UNL     1      21.648  -1.007  54.622  1.00  0.00     0.235 A 
HETATM    6  N1  UNL     1      22.953  -1.146  54.940  1.00  0.00    -0.241 NA
HETATM    7  C5  UNL     1      23.905  -0.556  54.197  1.00  0.00     0.072 A 
HETATM    8  C4  UNL     1      25.201  -0.765  54.612  1.00  0.00     0.033 A 
HETATM    9  C20 UNL     1      23.510   0.190  53.108  1.00  0.00     0.039 A 
HETATM   10  C3  UNL     1      26.209  -0.182  53.885  1.00  0.00     0.016 A 
HETATM   11  C2  UNL     1      25.821   0.564  52.796  1.00  0.00    -0.011 A 
HETATM   12  C21 UNL     1      24.520   0.768  52.386  1.00  0.00     0.031 A 
BRANCH  11  13
HETATM   13  C1  UNL     1      26.857   1.188  52.012  1.00  0.00     0.389 C 
HETATM   14  O1  UNL     1      27.498   2.279  52.092  1.00  0.00    -0.405 OA
ENDBRANCH  11  13
ENDBRANCH   1   3
BRANCH   1  15
HETATM   15  C8  UNL     1      21.183   0.398  50.532  1.00  0.00     0.150 C 
BRANCH  15  16
HETATM   16  C9  UNL     1      20.947   1.326  49.405  1.00  0.00     0.015 C 
HETATM   17  C10 UNL     1      21.396   2.239  48.516  1.00  0.00     0.043 C 
HETATM   18 CL1  UNL     1      20.413   3.045  47.284  1.00  0.00    -0.086 Cl
BRANCH  17  19
HETATM   19  C11 UNL     1      22.736   2.834  48.281  1.00  0.00     0.214 C 
HETATM   20  F1  UNL     1      22.590   3.750  47.245  1.00  0.00    -0.243 F 
BRANCH  19  21
HETATM   21  C12 UNL     1      23.200   3.503  49.538  1.00  0.00     0.047 C 
BRANCH  21  22
HETATM   22  C13 UNL     1      24.662   3.264  49.857  1.00  0.00     0.041 C 
BRANCH  22  23
HETATM   23  C14 UNL     1      25.561   4.305  49.338  1.00  0.00    -0.058 A 
HETATM   24  C15 UNL     1      26.898   4.032  49.135  1.00  0.00     0.007 A 
HETATM   25  C16 UNL     1      27.776   4.976  48.648  1.00  0.00     0.001 A 
HETATM   26  C17 UNL     1      27.355   6.246  48.339  1.00  0.00     0.000 A 
HETATM   27  C18 UNL     1      26.035   6.564  48.526  1.00  0.00     0.001 A 
HETATM   28  C19 UNL     1      25.184   5.602  49.012  1.00  0.00     0.007 A 
ENDBRANCH  22  23
ENDBRANCH  21  22
ENDBRANCH  19  21
ENDBRANCH  17  19
ENDBRANCH  15  16
ENDBRANCH   1  15
TORSDOF 8
ENDMDL
MODEL 5
REMARK VINA RESULT:      -8.0      2.077      2.537
REMARK  8 active torsions:
REMARK  status: ('A' for Active; 'I' for Inactive)
REMARK    1  A    between atoms: C1_2  and  C2_3 
REMARK    2  A    between atoms: C7_10  and  N3_11 
REMARK    3  A    between atoms: N3_11  and  C8_12 
REMARK    4  A    between atoms: C8_12  and  C9_13 
REMARK    5  A    between atoms: C10_14  and  C11_16 
REMARK    6  A    between atoms: C11_16  and  C12_18 
REMARK    7  A    between atoms: C12_18  and  C13_19 
REMARK    8  A    between atoms: C13_19  and  C14_20 
ROOT
HETATM    1  N3  UNL     1      22.378   1.347  49.953  1.00  0.00    -0.370 N 
HETATM    2  H5  UNL     1      23.276   0.946  50.284  1.00  0.00     0.161 HD
ENDROOT
BRANCH   1   3
HETATM    3  C7  UNL     1      21.095   0.979  50.422  1.00  0.00     0.137 A 
HETATM    4  N2  UNL     1      19.976   1.229  49.721  1.00  0.00    -0.224 NA
HETATM    5  C6  UNL     1      18.738   0.899  50.126  1.00  0.00     0.235 A 
HETATM    6  N1  UNL     1      18.577   0.275  51.313  1.00  0.00    -0.241 NA
HETATM    7  C5  UNL     1      19.641  -0.015  52.083  1.00  0.00     0.072 A 
HETATM    8  C4  UNL     1      19.362  -0.652  53.271  1.00  0.00     0.033 A 
HETATM    9  C20 UNL     1      20.890   0.342  51.626  1.00  0.00     0.039 A 
HETATM   10  C3  UNL     1      20.415  -0.969  54.091  1.00  0.00     0.016 A 
HETATM   11  C2  UNL     1      21.666  -0.616  53.641  1.00  0.00    -0.011 A 
HETATM   12  C21 UNL     1      21.938   0.023  52.448  1.00  0.00     0.031 A 
BRANCH  11  13
HETATM   13  C1  UNL     1      22.793  -0.936  54.481  1.00  0.00     0.389 C 
HETATM   14  O1  UNL     1      22.938  -1.563  55.573  1.00  0.00    -0.405 OA
ENDBRANCH  11  13
ENDBRANCH   1   3
BRANCH   1  15
HETATM   15  C8  UNL     1      22.426   2.370  48.927  1.00  0.00     0.150 C 
BRANCH  15  16
HETATM   16  C9  UNL     1      22.575   3.697  49.562  1.00  0.00     0.015 C 
HETATM   17  C10 UNL     1      22.811   4.464  50.650  1.00  0.00     0.043 C 
HETATM   18 CL1  UNL     1      22.839   6.233  50.674  1.00  0.00    -0.086 Cl
BRANCH  17  19
HETATM   19  C11 UNL     1      23.097   4.130  52.068  1.00  0.00     0.214 C 
HETATM   20  F1  UNL     1      22.016   3.386  52.529  1.00  0.00    -0.243 F 
BRANCH  19  21
HETATM   21  C12 UNL     1      24.369   3.340  52.136  1.00  0.00     0.047 C 
BRANCH  21  22
HETATM   22  C13 UNL     1      24.488   2.475  53.374  1.00  0.00     0.041 C 
BRANCH  22  23
HETATM   23  C14 UNL     1      25.489   1.404  53.256  1.00  0.00    -0.058 A 
HETATM   24  C15 UNL     1      26.297   1.086  54.327  1.00  0.00     0.007 A 
HETATM   25  C16 UNL     1      27.246   0.089  54.263  1.00  0.00     0.001 A 
HETATM   26  C17 UNL     1      27.432  -0.643  53.115  1.00  0.00     0.000 A 
HETATM   27  C18 UNL     1      26.652  -0.361  52.024  1.00  0.00     0.001 A 
HETATM   28  C19 UNL     1      25.714   0.638  52.119  1.00  0.00     0.007 A 
ENDBRANCH  22  23
ENDBRANCH  21  22
ENDBRANCH  19  21
ENDBRANCH  17  19
ENDBRANCH  15  16
ENDBRANCH   1  15
TORSDOF 8
ENDMDL
MODEL 6
REMARK VINA RESULT:      -7.9      2.709      5.523
REMARK  8 active torsions:
REMARK  status: ('A' for Active; 'I' for Inactive)
REMARK    1  A    between atoms: C1_2  and  C2_3 
REMARK    2  A    between atoms: C7_10  and  N3_11 
REMARK    3  A    between atoms: N3_11  and  C8_12 
REMARK    4  A    between atoms: C8_12  and  C9_13 
REMARK    5  A    between atoms: C10_14  and  C11_16 
REMARK    6  A    between atoms: C11_16  and  C12_18 
REMARK    7  A    between atoms: C12_18  and  C13_19 
REMARK    8  A    between atoms: C13_19  and  C14_20 
ROOT
HETATM    1  N3  UNL     1      26.085   3.059  51.315  1.00  0.00    -0.370 N 
HETATM    2  H5  UNL     1      25.348   3.777  51.453  1.00  0.00     0.161 HD
ENDROOT
BRANCH   1   3
HETATM    3  C7  UNL     1      26.717   2.326  52.346  1.00  0.00     0.137 A 
HETATM    4  N2  UNL     1      27.994   2.543  52.701  1.00  0.00    -0.224 NA
HETATM    5  C6  UNL     1      28.636   1.872  53.673  1.00  0.00     0.235 A 
HETATM    6  N1  UNL     1      27.978   0.909  54.354  1.00  0.00    -0.241 NA
HETATM    7  C5  UNL     1      26.697   0.622  54.067  1.00  0.00     0.072 A 
HETATM    8  C4  UNL     1      26.124  -0.376  54.823  1.00  0.00     0.033 A 
HETATM    9  C20 UNL     1      26.080   1.337  53.064  1.00  0.00     0.039 A 
HETATM   10  C3  UNL     1      24.816  -0.704  54.567  1.00  0.00     0.016 A 
HETATM   11  C2  UNL     1      24.195   0.005  53.566  1.00  0.00    -0.011 A 
HETATM   12  C21 UNL     1      24.775   1.005  52.813  1.00  0.00     0.031 A 
BRANCH  11  13
HETATM   13  C1  UNL     1      22.820  -0.317  53.274  1.00  0.00     0.389 C 
HETATM   14  O1  UNL     1      21.737   0.341  53.263  1.00  0.00    -0.405 OA
ENDBRANCH  11  13
ENDBRANCH   1   3
BRANCH   1  15
HETATM   15  C8  UNL     1      26.509   2.772  49.959  1.00  0.00     0.150 C 
BRANCH  15  16
HETATM   16  C9  UNL     1      26.922   4.028  49.297  1.00  0.00     0.015 C 
HETATM   17  C10 UNL     1      26.764   5.353  49.078  1.00  0.00     0.043 C 
HETATM   18 CL1  UNL     1      27.766   6.344  48.008  1.00  0.00    -0.086 Cl
BRANCH  17  19
HETATM   19  C11 UNL     1      25.793   6.345  49.602  1.00  0.00     0.214 C 
HETATM   20  F1  UNL     1      26.509   7.510  49.855  1.00  0.00    -0.243 F 
BRANCH  19  21
HETATM   21  C12 UNL     1      24.728   6.575  48.573  1.00  0.00     0.047 C 
BRANCH  21  22
HETATM   22  C13 UNL     1      23.324   6.308  49.073  1.00  0.00     0.041 C 
BRANCH  22  23
HETATM   23  C14 UNL     1      23.074   4.901  49.420  1.00  0.00    -0.058 A 
HETATM   24  C15 UNL     1      22.712   4.554  50.704  1.00  0.00     0.007 A 
HETATM   25  C16 UNL     1      22.466   3.249  51.073  1.00  0.00     0.001 A 
HETATM   26  C17 UNL     1      22.571   2.222  50.166  1.00  0.00     0.000 A 
HETATM   27  C18 UNL     1      22.928   2.519  48.877  1.00  0.00     0.001 A 
HETATM   28  C19 UNL     1      23.167   3.829  48.540  1.00  0.00     0.007 A 
ENDBRANCH  22  23
ENDBRANCH  21  22
ENDBRANCH  19  21
ENDBRANCH  17  19
ENDBRANCH  15  16
ENDBRANCH   1  15
TORSDOF 8
ENDMDL
MODEL 7
REMARK VINA RESULT:      -7.9      2.838      4.781
REMARK  8 active torsions:
REMARK  status: ('A' for Active; 'I' for Inactive)
REMARK    1  A    between atoms: C1_2  and  C2_3 
REMARK    2  A    between atoms: C7_10  and  N3_11 
REMARK    3  A    between atoms: N3_11  and  C8_12 
REMARK    4  A    between atoms: C8_12  and  C9_13 
REMARK    5  A    between atoms: C10_14  and  C11_16 
REMARK    6  A    between atoms: C11_16  and  C12_18 
REMARK    7  A    between atoms: C12_18  and  C13_19 
REMARK    8  A    between atoms: C13_19  and  C14_20 
ROOT
HETATM    1  N3  UNL     1      21.555   1.316  51.997  1.00  0.00    -0.370 N 
HETATM    2  H5  UNL     1      21.807   1.342  50.991  1.00  0.00     0.161 HD
ENDROOT
BRANCH   1   3
HETATM    3  C7  UNL     1      22.138   0.466  52.966  1.00  0.00     0.137 A 
HETATM    4  N2  UNL     1      21.399  -0.267  53.815  1.00  0.00    -0.224 NA
HETATM    5  C6  UNL     1      21.908  -1.086  54.751  1.00  0.00     0.235 A 
HETATM    6  N1  UNL     1      23.249  -1.200  54.869  1.00  0.00    -0.241 NA
HETATM    7  C5  UNL     1      24.067  -0.504  54.061  1.00  0.00     0.072 A 
HETATM    8  C4  UNL     1      25.415  -0.697  54.268  1.00  0.00     0.033 A 
HETATM    9  C20 UNL     1      23.500   0.323  53.116  1.00  0.00     0.039 A 
HETATM   10  C3  UNL     1      26.292  -0.007  53.467  1.00  0.00     0.016 A 
HETATM   11  C2  UNL     1      25.731   0.820  52.522  1.00  0.00    -0.011 A 
HETATM   12  C21 UNL     1      24.379   1.008  52.321  1.00  0.00     0.031 A 
BRANCH  11  13
HETATM   13  C1  UNL     1      26.627   1.557  51.666  1.00  0.00     0.389 C 
HETATM   14  O1  UNL     1      27.459   2.496  51.847  1.00  0.00    -0.405 OA
ENDBRANCH  11  13
ENDBRANCH   1   3
BRANCH   1  15
HETATM   15  C8  UNL     1      20.523   2.220  52.463  1.00  0.00     0.150 C 
BRANCH  15  16
HETATM   16  C9  UNL     1      20.741   3.560  51.875  1.00  0.00     0.015 C 
HETATM   17  C10 UNL     1      21.527   4.637  51.655  1.00  0.00     0.043 C 
HETATM   18 CL1  UNL     1      21.064   6.077  50.736  1.00  0.00    -0.086 Cl
BRANCH  17  19
HETATM   19  C11 UNL     1      22.916   4.964  52.066  1.00  0.00     0.214 C 
HETATM   20  F1  UNL     1      23.274   4.035  53.037  1.00  0.00    -0.243 F 
BRANCH  19  21
HETATM   21  C12 UNL     1      23.813   4.875  50.870  1.00  0.00     0.047 C 
BRANCH  21  22
HETATM   22  C13 UNL     1      24.523   6.171  50.537  1.00  0.00     0.041 C 
BRANCH  22  23
HETATM   23  C14 UNL     1      25.761   5.989  49.766  1.00  0.00    -0.058 A 
HETATM   24  C15 UNL     1      26.237   4.721  49.503  1.00  0.00     0.007 A 
HETATM   25  C16 UNL     1      27.391   4.503  48.782  1.00  0.00     0.001 A 
HETATM   26  C17 UNL     1      28.128   5.551  48.286  1.00  0.00     0.000 A 
HETATM   27  C18 UNL     1      27.694   6.829  48.523  1.00  0.00     0.001 A 
HETATM   28  C19 UNL     1      26.540   7.014  49.244  1.00  0.00     0.007 A 
ENDBRANCH  22  23
ENDBRANCH  21  22
ENDBRANCH  19  21
ENDBRANCH  17  19
ENDBRANCH  15  16
ENDBRANCH   1  15
TORSDOF 8
ENDMDL
MODEL 8
REMARK VINA RESULT:      -7.7      4.156      5.415
REMARK  8 active torsions:
REMARK  status: ('A' for Active; 'I' for Inactive)
REMARK    1  A    between atoms: C1_2  and  C2_3 
REMARK    2  A    between atoms: C7_10  and  N3_11 
REMARK    3  A    between atoms: N3_11  and  C8_12 
REMARK    4  A    between atoms: C8_12  and  C9_13 
REMARK    5  A    between atoms: C10_14  and  C11_16 
REMARK    6  A    between atoms: C11_16  and  C12_18 
REMARK    7  A    between atoms: C12_18  and  C13_19 
REMARK    8  A    between atoms: C13_19  and  C14_20 
ROOT
HETATM    1  N3  UNL     1      26.683   3.573  50.771  1.00  0.00    -0.370 N 
HETATM    2  H5  UNL     1      27.459   3.959  51.342  1.00  0.00     0.161 HD
ENDROOT
BRANCH   1   3
HETATM    3  C7  UNL     1      25.524   2.945  51.282  1.00  0.00     0.137 A 
HETATM    4  N2  UNL     1      24.301   3.486  51.156  1.00  0.00    -0.224 NA
HETATM    5  C6  UNL     1      23.173   2.927  51.627  1.00  0.00     0.235 A 
HETATM    6  N1  UNL     1      23.243   1.744  52.274  1.00  0.00    -0.241 NA
HETATM    7  C5  UNL     1      24.426   1.129  52.448  1.00  0.00     0.072 A 
HETATM    8  C4  UNL     1      24.382  -0.072  53.120  1.00  0.00     0.033 A 
HETATM    9  C20 UNL     1      25.555   1.739  51.948  1.00  0.00     0.039 A 
HETATM   10  C3  UNL     1      25.565  -0.738  53.322  1.00  0.00     0.016 A 
HETATM   11  C2  UNL     1      26.696  -0.133  52.826  1.00  0.00    -0.011 A 
HETATM   12  C21 UNL     1      26.733   1.070  52.152  1.00  0.00     0.031 A 
BRANCH  11  13
HETATM   13  C1  UNL     1      27.955  -0.809  53.021  1.00  0.00     0.389 C 
HETATM   14  O1  UNL     1      28.632  -1.150  54.037  1.00  0.00    -0.405 OA
ENDBRANCH  11  13
ENDBRANCH   1   3
BRANCH   1  15
HETATM   15  C8  UNL     1      26.782   3.681  49.329  1.00  0.00     0.150 C 
BRANCH  15  16
HETATM   16  C9  UNL     1      26.625   5.095  48.929  1.00  0.00     0.015 C 
HETATM   17  C10 UNL     1      27.139   6.248  48.446  1.00  0.00     0.043 C 
HETATM   18 CL1  UNL     1      26.239   7.752  48.200  1.00  0.00    -0.086 Cl
BRANCH  17  19
HETATM   19  C11 UNL     1      28.503   6.627  47.999  1.00  0.00     0.214 C 
HETATM   20  F1  UNL     1      28.920   7.665  48.825  1.00  0.00    -0.243 F 
BRANCH  19  21
HETATM   21  C12 UNL     1      29.406   5.437  48.124  1.00  0.00     0.047 C 
BRANCH  21  22
HETATM   22  C13 UNL     1      30.860   5.792  48.354  1.00  0.00     0.041 C 
BRANCH  22  23
HETATM   23  C14 UNL     1      31.805   4.807  47.808  1.00  0.00    -0.058 A 
HETATM   24  C15 UNL     1      33.154   4.911  48.079  1.00  0.00     0.007 A 
HETATM   25  C16 UNL     1      34.074   4.009  47.592  1.00  0.00     0.001 A 
HETATM   26  C17 UNL     1      33.686   2.952  46.805  1.00  0.00     0.000 A 
HETATM   27  C18 UNL     1      32.356   2.808  46.509  1.00  0.00     0.001 A 
HETATM   28  C19 UNL     1      31.462   3.723  47.009  1.00  0.00     0.007 A 
ENDBRANCH  22  23
ENDBRANCH  21  22
ENDBRANCH  19  21
ENDBRANCH  17  19
ENDBRANCH  15  16
ENDBRANCH   1  15
TORSDOF 8
ENDMDL
MODEL 9
REMARK VINA RESULT:      -7.7      3.995      7.949
REMARK  8 active torsions:
REMARK  status: ('A' for Active; 'I' for Inactive)
REMARK    1  A    between atoms: C1_2  and  C2_3 
REMARK    2  A    between atoms: C7_10  and  N3_11 
REMARK    3  A    between atoms: N3_11  and  C8_12 
REMARK    4  A    between atoms: C8_12  and  C9_13 
REMARK    5  A    between atoms: C10_14  and  C11_16 
REMARK    6  A    between atoms: C11_16  and  C12_18 
REMARK    7  A    between atoms: C12_18  and  C13_19 
REMARK    8  A    between atoms: C13_19  and  C14_20 
ROOT
HETATM    1  N3  UNL     1      26.630   3.026  49.920  1.00  0.00    -0.370 N 
HETATM    2  H5  UNL     1      27.451   2.518  49.538  1.00  0.00     0.161 HD
ENDROOT
BRANCH   1   3
HETATM    3  C7  UNL     1      26.142   4.266  49.446  1.00  0.00     0.137 A 
HETATM    4  N2  UNL     1      24.851   4.620  49.559  1.00  0.00    -0.224 NA
HETATM    5  C6  UNL     1      24.343   5.785  49.123  1.00  0.00     0.235 A 
HETATM    6  N1  UNL     1      25.161   6.679  48.526  1.00  0.00    -0.241 NA
HETATM    7  C5  UNL     1      26.469   6.410  48.369  1.00  0.00     0.072 A 
HETATM    8  C4  UNL     1      27.210   7.391  47.748  1.00  0.00     0.033 A 
HETATM    9  C20 UNL     1      26.945   5.203  48.832  1.00  0.00     0.039 A 
HETATM   10  C3  UNL     1      28.551   7.163  47.565  1.00  0.00     0.016 A 
HETATM   11  C2  UNL     1      29.032   5.959  48.025  1.00  0.00    -0.011 A 
HETATM   12  C21 UNL     1      28.283   4.981  48.646  1.00  0.00     0.031 A 
BRANCH  11  13
HETATM   13  C1  UNL     1      30.437   5.690  47.847  1.00  0.00     0.389 C 
HETATM   14  O1  UNL     1      31.307   5.039  48.500  1.00  0.00    -0.405 OA
ENDBRANCH  11  13
ENDBRANCH   1   3
BRANCH   1  15
HETATM   15  C8  UNL     1      25.915   2.427  51.029  1.00  0.00     0.150 C 
BRANCH  15  16
HETATM   16  C9  UNL     1      26.810   1.493  51.744  1.00  0.00     0.015 C 
HETATM   17  C10 UNL     1      27.054   0.644  52.768  1.00  0.00     0.043 C 
HETATM   18 CL1  UNL     1      28.560  -0.250  53.026  1.00  0.00    -0.086 Cl
BRANCH  17  19
HETATM   19  C11 UNL     1      26.232   0.208  53.925  1.00  0.00     0.214 C 
HETATM   20  F1  UNL     1      25.996   1.340  54.696  1.00  0.00    -0.243 F 
BRANCH  19  21
HETATM   21  C12 UNL     1      24.952  -0.382  53.418  1.00  0.00     0.047 C 
BRANCH  21  22
HETATM   22  C13 UNL     1      23.831   0.625  53.262  1.00  0.00     0.041 C 
BRANCH  22  23
HETATM   23  C14 UNL     1      22.487   0.047  53.407  1.00  0.00    -0.058 A 
HETATM   24  C15 UNL     1      21.416   0.600  52.738  1.00  0.00     0.007 A 
HETATM   25  C16 UNL     1      20.140   0.088  52.842  1.00  0.00     0.001 A 
HETATM   26  C17 UNL     1      19.875  -1.008  53.627  1.00  0.00     0.000 A 
HETATM   27  C18 UNL     1      20.910  -1.590  54.311  1.00  0.00     0.001 A 
HETATM   28  C19 UNL     1      22.170  -1.059  54.187  1.00  0.00     0.007 A 
ENDBRANCH  22  23
ENDBRANCH  21  22
ENDBRANCH  19  21
ENDBRANCH  17  19
ENDBRANCH  15  16
ENDBRANCH   1  15
TORSDOF 8
ENDMDL
