MODEL 1
REMARK VINA RESULT:      -7.7      0.000      0.000
REMARK  4 active torsions:
REMARK  status: ('A' for Active; 'I' for Inactive)
REMARK    1  A    between atoms: C2_2  and  C3_3 
REMARK    2  A    between atoms: C3_3  and  C4_4 
REMARK    3  A    between atoms: C9_12  and  N3_13 
REMARK    4  A    between atoms: N3_13  and  C10_14 
ROOT
HETATM    1  C4  UNL     1      22.425   3.110  50.049  1.00  0.00    -0.006 C 
HETATM    2  C5  UNL     1      21.840   4.324  49.875  1.00  0.00     0.028 C 
HETATM    3  C6  UNL     1      21.855   5.341  48.786  1.00  0.00     0.137 C 
HETATM    4  S1  UNL     1      23.524   5.753  48.295  1.00  0.00    -0.116 SA
HETATM    5  C7  UNL     1      24.415   6.552  49.589  1.00  0.00     0.163 C 
HETATM    6  N1  UNL     1      24.486   6.515  50.905  1.00  0.00    -0.248 NA
HETATM    7  C8  UNL     1      23.627   5.589  51.607  1.00  0.00     0.230 C 
HETATM    8  N2  UNL     1      23.972   4.550  50.967  1.00  0.00    -0.246 NA
HETATM    9  C9  UNL     1      23.411   3.264  51.230  1.00  0.00     0.161 C 
HETATM   10  C18 UNL     1      22.604   3.295  52.498  1.00  0.00     0.164 C 
HETATM   11  C19 UNL     1      21.165   3.659  52.186  1.00  0.00     0.226 C 
HETATM   12  O1  UNL     1      20.056   3.301  52.666  1.00  0.00    -0.273 OA
HETATM   13  N4  UNL     1      21.116   4.622  51.105  1.00  0.00    -0.330 N 
HETATM   14  H22 UNL     1      20.559   5.516  51.188  1.00  0.00     0.168 HD
ENDROOT
BRANCH   9  15
HETATM   15  N3  UNL     1      24.313   2.165  51.140  1.00  0.00    -0.361 N 
HETATM   16  H10 UNL     1      24.864   1.403  50.690  1.00  0.00     0.162 HD
BRANCH  15  17
HETATM   17  C10 UNL     1      24.916   1.727  52.376  1.00  0.00     0.011 C 
HETATM   18  C11 UNL     1      24.405   0.517  52.673  1.00  0.00     0.025 C 
HETATM   19  C12 UNL     1      24.723  -0.328  53.845  1.00  0.00     0.002 C 
HETATM   20  C13 UNL     1      25.866  -0.330  54.551  1.00  0.00     0.000 C 
HETATM   21  C14 UNL     1      27.060   0.510  54.315  1.00  0.00     0.003 C 
HETATM   22  C15 UNL     1      26.997   1.691  53.720  1.00  0.00    -0.078 C 
HETATM   23  C16 UNL     1      28.374   2.296  53.629  1.00  0.00     0.044 C 
HETATM   24  C17 UNL     1      25.922   2.509  53.152  1.00  0.00     0.090 C 
ENDBRANCH  15  17
ENDBRANCH   9  15
BRANCH   1  25
HETATM   25  C3  UNL     1      22.241   1.837  49.334  1.00  0.00     0.045 C 
BRANCH  25  26
HETATM   26  C2  UNL     1      21.089   1.037  49.766  1.00  0.00    -0.006 C 
HETATM   27  C1  UNL     1      21.114   0.278  50.879  1.00  0.00     0.005 C 
ENDBRANCH  25  26
ENDBRANCH   1  25
TORSDOF 4
ENDMDL
MODEL 2
REMARK VINA RESULT:      -7.6      8.396     10.409
REMARK  4 active torsions:
REMARK  status: ('A' for Active; 'I' for Inactive)
REMARK    1  A    between atoms: C2_2  and  C3_3 
REMARK    2  A    between atoms: C3_3  and  C4_4 
REMARK    3  A    between atoms: C9_12  and  N3_13 
REMARK    4  A    between atoms: N3_13  and  C10_14 
ROOT
HETATM    1  C4  UNL     1      30.398   7.280  47.979  1.00  0.00    -0.006 C 
HETATM    2  C5  UNL     1      30.586   8.290  48.868  1.00  0.00     0.028 C 
HETATM    3  C6  UNL     1      30.157   9.716  48.930  1.00  0.00     0.137 C 
HETATM    4  S1  UNL     1      30.548  10.586  47.419  1.00  0.00    -0.116 SA
HETATM    5  C7  UNL     1      32.288  10.712  47.160  1.00  0.00     0.163 C 
HETATM    6  N1  UNL     1      33.372   9.997  47.389  1.00  0.00    -0.248 NA
HETATM    7  C8  UNL     1      33.218   8.717  48.040  1.00  0.00     0.230 C 
HETATM    8  N2  UNL     1      32.356   8.244  47.239  1.00  0.00    -0.246 NA
HETATM    9  C9  UNL     1      31.791   6.942  47.397  1.00  0.00     0.161 C 
HETATM   10  C18 UNL     1      32.547   6.168  48.442  1.00  0.00     0.164 C 
HETATM   11  C19 UNL     1      31.930   6.405  49.808  1.00  0.00     0.226 C 
HETATM   12  O1  UNL     1      31.758   5.676  50.820  1.00  0.00    -0.273 OA
HETATM   13  N4  UNL     1      31.460   7.772  49.913  1.00  0.00    -0.330 N 
HETATM   14  H22 UNL     1      31.725   8.384  50.733  1.00  0.00     0.168 HD
ENDROOT
BRANCH   9  15
HETATM   15  N3  UNL     1      31.555   6.218  46.194  1.00  0.00    -0.361 N 
HETATM   16  H10 UNL     1      31.088   5.962  45.298  1.00  0.00     0.162 HD
BRANCH  15  17
HETATM   17  C10 UNL     1      32.453   5.124  45.916  1.00  0.00     0.011 C 
HETATM   18  C11 UNL     1      33.506   5.620  45.240  1.00  0.00     0.025 C 
HETATM   19  C12 UNL     1      34.684   4.878  44.741  1.00  0.00     0.002 C 
HETATM   20  C13 UNL     1      35.189   3.738  45.243  1.00  0.00     0.000 C 
HETATM   21  C14 UNL     1      34.684   2.973  46.403  1.00  0.00     0.003 C 
HETATM   22  C15 UNL     1      33.419   3.017  46.791  1.00  0.00    -0.078 C 
HETATM   23  C16 UNL     1      33.221   2.134  47.997  1.00  0.00     0.044 C 
HETATM   24  C17 UNL     1      32.215   3.708  46.324  1.00  0.00     0.090 C 
ENDBRANCH  15  17
ENDBRANCH   9  15
BRANCH   1  25
HETATM   25  C3  UNL     1      29.178   6.566  47.569  1.00  0.00     0.045 C 
BRANCH  25  26
HETATM   26  C2  UNL     1      28.885   5.344  48.325  1.00  0.00    -0.006 C 
HETATM   27  C1  UNL     1      27.627   4.968  48.632  1.00  0.00     0.005 C 
ENDBRANCH  25  26
ENDBRANCH   1  25
TORSDOF 4
ENDMDL
MODEL 3
REMARK VINA RESULT:      -7.2      2.358      4.594
REMARK  4 active torsions:
REMARK  status: ('A' for Active; 'I' for Inactive)
REMARK    1  A    between atoms: C2_2  and  C3_3 
REMARK    2  A    between atoms: C3_3  and  C4_4 
REMARK    3  A    between atoms: C9_12  and  N3_13 
REMARK    4  A    between atoms: N3_13  and  C10_14 
ROOT
HETATM    1  C4  UNL     1      23.378   3.064  50.078  1.00  0.00    -0.006 C 
HETATM    2  C5  UNL     1      24.340   3.937  50.478  1.00  0.00     0.028 C 
HETATM    3  C6  UNL     1      25.822   3.987  50.340  1.00  0.00     0.137 C 
HETATM    4  S1  UNL     1      26.584   2.458  50.866  1.00  0.00    -0.116 SA
HETATM    5  C7  UNL     1      26.362   2.168  52.590  1.00  0.00     0.163 C 
HETATM    6  N1  UNL     1      25.450   2.387  53.517  1.00  0.00    -0.248 NA
HETATM    7  C8  UNL     1      24.231   3.058  53.126  1.00  0.00     0.230 C 
HETATM    8  N2  UNL     1      23.930   2.278  52.172  1.00  0.00    -0.246 NA
HETATM    9  C9  UNL     1      22.766   2.463  51.365  1.00  0.00     0.161 C 
HETATM   10  C18 UNL     1      21.869   3.505  51.974  1.00  0.00     0.164 C 
HETATM   11  C19 UNL     1      22.236   4.878  51.443  1.00  0.00     0.226 C 
HETATM   12  O1  UNL     1      21.565   5.903  51.149  1.00  0.00    -0.273 OA
HETATM   13  N4  UNL     1      23.670   4.974  51.253  1.00  0.00    -0.330 N 
HETATM   14  H22 UNL     1      24.226   5.780  51.649  1.00  0.00     0.168 HD
ENDROOT
BRANCH   9  15
HETATM   15  N3  UNL     1      22.092   1.274  50.968  1.00  0.00    -0.361 N 
HETATM   16  H10 UNL     1      21.836   0.467  50.359  1.00  0.00     0.162 HD
BRANCH  15  17
HETATM   17  C10 UNL     1      21.128   0.740  51.900  1.00  0.00     0.011 C 
HETATM   18  C11 UNL     1      19.963   0.591  51.242  1.00  0.00     0.025 C 
HETATM   19  C12 UNL     1      18.687   0.076  51.783  1.00  0.00     0.002 C 
HETATM   20  C13 UNL     1      18.533  -0.771  52.816  1.00  0.00     0.000 C 
HETATM   21  C14 UNL     1      19.601  -1.377  53.639  1.00  0.00     0.003 C 
HETATM   22  C15 UNL     1      20.785  -0.808  53.803  1.00  0.00    -0.078 C 
HETATM   23  C16 UNL     1      21.649  -1.666  54.691  1.00  0.00     0.044 C 
HETATM   24  C17 UNL     1      21.416   0.426  53.330  1.00  0.00     0.090 C 
ENDBRANCH  15  17
ENDBRANCH   9  15
BRANCH   1  25
HETATM   25  C3  UNL     1      22.915   2.685  48.733  1.00  0.00     0.045 C 
BRANCH  25  26
HETATM   26  C2  UNL     1      21.999   3.637  48.095  1.00  0.00    -0.006 C 
HETATM   27  C1  UNL     1      22.436   4.732  47.441  1.00  0.00     0.005 C 
ENDBRANCH  25  26
ENDBRANCH   1  25
TORSDOF 4
ENDMDL
MODEL 4
REMARK VINA RESULT:      -7.1      3.016      6.020
REMARK  4 active torsions:
REMARK  status: ('A' for Active; 'I' for Inactive)
REMARK    1  A    between atoms: C2_2  and  C3_3 
REMARK    2  A    between atoms: C3_3  and  C4_4 
REMARK    3  A    between atoms: C9_12  and  N3_13 
REMARK    4  A    between atoms: N3_13  and  C10_14 
ROOT
HETATM    1  C4  UNL     1      24.019   4.172  51.471  1.00  0.00    -0.006 C 
HETATM    2  C5  UNL     1      23.839   2.869  51.813  1.00  0.00     0.028 C 
HETATM    3  C6  UNL     1      24.014   2.089  53.069  1.00  0.00     0.137 C 
HETATM    4  S1  UNL     1      25.629   2.353  53.788  1.00  0.00    -0.116 SA
HETATM    5  C7  UNL     1      26.919   1.733  52.760  1.00  0.00     0.163 C 
HETATM    6  N1  UNL     1      27.177   1.602  51.473  1.00  0.00    -0.248 NA
HETATM    7  C8  UNL     1      26.184   2.063  50.530  1.00  0.00     0.230 C 
HETATM    8  N2  UNL     1      26.071   3.238  50.994  1.00  0.00    -0.246 NA
HETATM    9  C9  UNL     1      25.173   4.200  50.441  1.00  0.00     0.161 C 
HETATM   10  C18 UNL     1      24.626   3.710  49.129  1.00  0.00     0.164 C 
HETATM   11  C19 UNL     1      23.351   2.921  49.363  1.00  0.00     0.226 C 
HETATM   12  O1  UNL     1      22.274   2.801  48.720  1.00  0.00    -0.273 OA
HETATM   13  N4  UNL     1      23.450   2.166  50.596  1.00  0.00    -0.330 N 
HETATM   14  H22 UNL     1      23.231   1.133  50.629  1.00  0.00     0.168 HD
ENDROOT
BRANCH   9  15
HETATM   15  N3  UNL     1      25.646   5.543  50.410  1.00  0.00    -0.361 N 
HETATM   16  H10 UNL     1      25.829   6.510  50.754  1.00  0.00     0.162 HD
BRANCH  15  17
HETATM   17  C10 UNL     1      26.307   5.963  49.198  1.00  0.00     0.011 C 
HETATM   18  C11 UNL     1      25.654   7.041  48.728  1.00  0.00     0.025 C 
HETATM   19  C12 UNL     1      25.966   7.819  47.509  1.00  0.00     0.002 C 
HETATM   20  C13 UNL     1      27.167   7.945  46.919  1.00  0.00     0.000 C 
HETATM   21  C14 UNL     1      28.442   7.336  47.355  1.00  0.00     0.003 C 
HETATM   22  C15 UNL     1      28.495   6.218  48.062  1.00  0.00    -0.078 C 
HETATM   23  C16 UNL     1      29.930   5.858  48.348  1.00  0.00     0.044 C 
HETATM   24  C17 UNL     1      27.502   5.290  48.608  1.00  0.00     0.090 C 
ENDBRANCH  15  17
ENDBRANCH   9  15
BRANCH   1  25
HETATM   25  C3  UNL     1      23.326   5.393  51.913  1.00  0.00     0.045 C 
BRANCH  25  26
HETATM   26  C2  UNL     1      22.017   5.628  51.294  1.00  0.00    -0.006 C 
HETATM   27  C1  UNL     1      21.879   6.273  50.118  1.00  0.00     0.005 C 
ENDBRANCH  25  26
ENDBRANCH   1  25
TORSDOF 4
ENDMDL
MODEL 5
REMARK VINA RESULT:      -7.1      1.432      2.644
REMARK  4 active torsions:
REMARK  status: ('A' for Active; 'I' for Inactive)
REMARK    1  A    between atoms: C2_2  and  C3_3 
REMARK    2  A    between atoms: C3_3  and  C4_4 
REMARK    3  A    between atoms: C9_12  and  N3_13 
REMARK    4  A    between atoms: N3_13  and  C10_14 
ROOT
HETATM    1  C4  UNL     1      22.145   3.147  49.966  1.00  0.00    -0.006 C 
HETATM    2  C5  UNL     1      21.742   4.440  49.861  1.00  0.00     0.028 C 
HETATM    3  C6  UNL     1      22.010   5.540  48.892  1.00  0.00     0.137 C 
HETATM    4  S1  UNL     1      23.763   5.763  48.621  1.00  0.00    -0.116 SA
HETATM    5  C7  UNL     1      24.592   6.313  50.076  1.00  0.00     0.163 C 
HETATM    6  N1  UNL     1      24.506   6.148  51.381  1.00  0.00    -0.248 NA
HETATM    7  C8  UNL     1      23.462   5.288  51.890  1.00  0.00     0.230 C 
HETATM    8  N2  UNL     1      23.745   4.274  51.184  1.00  0.00    -0.246 NA
HETATM    9  C9  UNL     1      23.001   3.057  51.252  1.00  0.00     0.161 C 
HETATM   10  C18 UNL     1      22.063   3.083  52.427  1.00  0.00     0.164 C 
HETATM   11  C19 UNL     1      20.727   3.666  52.009  1.00  0.00     0.226 C 
HETATM   12  O1  UNL     1      19.534   3.421  52.332  1.00  0.00    -0.273 OA
HETATM   13  N4  UNL     1      20.924   4.722  51.035  1.00  0.00    -0.330 N 
HETATM   14  H22 UNL     1      20.478   5.672  51.154  1.00  0.00     0.168 HD
ENDROOT
BRANCH   9  15
HETATM   15  N3  UNL     1      23.762   1.858  51.140  1.00  0.00    -0.361 N 
HETATM   16  H10 UNL     1      24.488   1.207  50.772  1.00  0.00     0.162 HD
BRANCH  15  17
HETATM   17  C10 UNL     1      23.415   0.791  52.047  1.00  0.00     0.011 C 
HETATM   18  C11 UNL     1      24.437   0.639  52.910  1.00  0.00     0.025 C 
HETATM   19  C12 UNL     1      24.538  -0.331  54.021  1.00  0.00     0.002 C 
HETATM   20  C13 UNL     1      23.520  -0.889  54.698  1.00  0.00     0.000 C 
HETATM   21  C14 UNL     1      22.075  -0.658  54.485  1.00  0.00     0.003 C 
HETATM   22  C15 UNL     1      21.577  -0.277  53.319  1.00  0.00    -0.078 C 
HETATM   23  C16 UNL     1      20.081  -0.127  53.423  1.00  0.00     0.044 C 
HETATM   24  C17 UNL     1      22.139   0.019  51.999  1.00  0.00     0.090 C 
ENDBRANCH  15  17
ENDBRANCH   9  15
BRANCH   1  25
HETATM   25  C3  UNL     1      21.887   1.980  49.107  1.00  0.00     0.045 C 
BRANCH  25  26
HETATM   26  C2  UNL     1      20.474   1.729  48.802  1.00  0.00    -0.006 C 
HETATM   27  C1  UNL     1      19.632   1.168  49.692  1.00  0.00     0.005 C 
ENDBRANCH  25  26
ENDBRANCH   1  25
TORSDOF 4
ENDMDL
MODEL 6
REMARK VINA RESULT:      -6.9      2.352      3.868
REMARK  4 active torsions:
REMARK  status: ('A' for Active; 'I' for Inactive)
REMARK    1  A    between atoms: C2_2  and  C3_3 
REMARK    2  A    between atoms: C3_3  and  C4_4 
REMARK    3  A    between atoms: C9_12  and  N3_13 
REMARK    4  A    between atoms: N3_13  and  C10_14 
ROOT
HETATM    1  C4  UNL     1      24.394   4.316  50.012  1.00  0.00    -0.006 C 
HETATM    2  C5  UNL     1      23.893   5.109  49.028  1.00  0.00     0.028 C 
HETATM    3  C6  UNL     1      24.027   6.552  48.685  1.00  0.00     0.137 C 
HETATM    4  S1  UNL     1      23.690   7.598  50.095  1.00  0.00    -0.116 SA
HETATM    5  C7  UNL     1      22.013   7.474  50.623  1.00  0.00     0.163 C 
HETATM    6  N1  UNL     1      21.065   6.560  50.690  1.00  0.00    -0.248 NA
HETATM    7  C8  UNL     1      21.370   5.229  50.218  1.00  0.00     0.230 C 
HETATM    8  N2  UNL     1      22.411   5.055  50.923  1.00  0.00    -0.246 NA
HETATM    9  C9  UNL     1      23.187   3.858  50.865  1.00  0.00     0.161 C 
HETATM   10  C18 UNL     1      22.456   2.798  50.089  1.00  0.00     0.164 C 
HETATM   11  C19 UNL     1      22.819   2.890  48.619  1.00  0.00     0.226 C 
HETATM   12  O1  UNL     1      22.985   2.033  47.710  1.00  0.00    -0.273 OA
HETATM   13  N4  UNL     1      22.997   4.277  48.234  1.00  0.00    -0.330 N 
HETATM   14  H22 UNL     1      22.508   4.682  47.390  1.00  0.00     0.168 HD
ENDROOT
BRANCH   9  15
HETATM   15  N3  UNL     1      23.724   3.408  52.104  1.00  0.00    -0.361 N 
HETATM   16  H10 UNL     1      24.214   3.468  53.022  1.00  0.00     0.162 HD
BRANCH  15  17
HETATM   17  C10 UNL     1      23.554   2.007  52.406  1.00  0.00     0.011 C 
HETATM   18  C11 UNL     1      24.779   1.469  52.554  1.00  0.00     0.025 C 
HETATM   19  C12 UNL     1      25.110   0.062  52.870  1.00  0.00     0.002 C 
HETATM   20  C13 UNL     1      24.339  -0.816  53.535  1.00  0.00     0.000 C 
HETATM   21  C14 UNL     1      22.993  -0.575  54.097  1.00  0.00     0.003 C 
HETATM   22  C15 UNL     1      22.171   0.343  53.613  1.00  0.00    -0.078 C 
HETATM   23  C16 UNL     1      20.884   0.345  54.397  1.00  0.00     0.044 C 
HETATM   24  C17 UNL     1      22.235   1.319  52.523  1.00  0.00     0.090 C 
ENDBRANCH  15  17
ENDBRANCH   9  15
BRANCH   1  25
HETATM   25  C3  UNL     1      25.774   3.900  50.310  1.00  0.00     0.045 C 
BRANCH  25  26
HETATM   26  C2  UNL     1      26.659   3.790  49.145  1.00  0.00    -0.006 C 
HETATM   27  C1  UNL     1      27.507   4.774  48.786  1.00  0.00     0.005 C 
ENDBRANCH  25  26
ENDBRANCH   1  25
TORSDOF 4
ENDMDL
MODEL 7
REMARK VINA RESULT:      -6.8      2.088      4.771
REMARK  4 active torsions:
REMARK  status: ('A' for Active; 'I' for Inactive)
REMARK    1  A    between atoms: C2_2  and  C3_3 
REMARK    2  A    between atoms: C3_3  and  C4_4 
REMARK    3  A    between atoms: C9_12  and  N3_13 
REMARK    4  A    between atoms: N3_13  and  C10_14 
ROOT
HETATM    1  C4  UNL     1      22.820   2.396  50.874  1.00  0.00    -0.006 C 
HETATM    2  C5  UNL     1      21.711   2.136  50.133  1.00  0.00     0.028 C 
HETATM    3  C6  UNL     1      21.472   1.513  48.801  1.00  0.00     0.137 C 
HETATM    4  S1  UNL     1      22.497   2.251  47.535  1.00  0.00    -0.116 SA
HETATM    5  C7  UNL     1      22.086   3.942  47.256  1.00  0.00     0.163 C 
HETATM    6  N1  UNL     1      21.664   4.981  47.949  1.00  0.00    -0.248 NA
HETATM    7  C8  UNL     1      21.430   4.806  49.364  1.00  0.00     0.230 C 
HETATM    8  N2  UNL     1      22.572   4.330  49.647  1.00  0.00    -0.246 NA
HETATM    9  C9  UNL     1      22.934   3.935  50.970  1.00  0.00     0.161 C 
HETATM   10  C18 UNL     1      21.903   4.408  51.957  1.00  0.00     0.164 C 
HETATM   11  C19 UNL     1      20.829   3.351  52.129  1.00  0.00     0.226 C 
HETATM   12  O1  UNL     1      20.144   2.961  53.113  1.00  0.00    -0.273 OA
HETATM   13  N4  UNL     1      20.578   2.683  50.867  1.00  0.00    -0.330 N 
HETATM   14  H22 UNL     1      19.598   2.575  50.487  1.00  0.00     0.168 HD
ENDROOT
BRANCH   9  15
HETATM   15  N3  UNL     1      24.277   4.212  51.353  1.00  0.00    -0.361 N 
HETATM   16  H10 UNL     1      25.165   4.121  51.892  1.00  0.00     0.162 HD
BRANCH  15  17
HETATM   17  C10 UNL     1      24.954   5.250  50.615  1.00  0.00     0.011 C 
HETATM   18  C11 UNL     1      25.863   4.658  49.818  1.00  0.00     0.025 C 
HETATM   19  C12 UNL     1      26.796   5.316  48.876  1.00  0.00     0.002 C 
HETATM   20  C13 UNL     1      26.621   6.500  48.265  1.00  0.00     0.000 C 
HETATM   21  C14 UNL     1      25.461   7.408  48.395  1.00  0.00     0.003 C 
HETATM   22  C15 UNL     1      24.690   7.432  49.471  1.00  0.00    -0.078 C 
HETATM   23  C16 UNL     1      23.600   8.458  49.300  1.00  0.00     0.044 C 
HETATM   24  C17 UNL     1      24.666   6.709  50.745  1.00  0.00     0.090 C 
ENDBRANCH  15  17
ENDBRANCH   9  15
BRANCH   1  25
HETATM   25  C3  UNL     1      23.791   1.491  51.512  1.00  0.00     0.045 C 
BRANCH  25  26
HETATM   26  C2  UNL     1      23.248   0.646  52.581  1.00  0.00    -0.006 C 
HETATM   27  C1  UNL     1      24.033  -0.120  53.365  1.00  0.00     0.005 C 
ENDBRANCH  25  26
ENDBRANCH   1  25
TORSDOF 4
ENDMDL
MODEL 8
REMARK VINA RESULT:      -6.7      2.214      3.774
REMARK  4 active torsions:
REMARK  status: ('A' for Active; 'I' for Inactive)
REMARK    1  A    between atoms: C2_2  and  C3_3 
REMARK    2  A    between atoms: C3_3  and  C4_4 
REMARK    3  A    between atoms: C9_12  and  N3_13 
REMARK    4  A    between atoms: N3_13  and  C10_14 
ROOT
HETATM    1  C4  UNL     1      23.055   4.525  50.741  1.00  0.00    -0.006 C 
HETATM    2  C5  UNL     1      22.701   4.573  49.429  1.00  0.00     0.028 C 
HETATM    3  C6  UNL     1      21.460   4.958  48.699  1.00  0.00     0.137 C 
HETATM    4  S1  UNL     1      20.025   4.117  49.353  1.00  0.00    -0.116 SA
HETATM    5  C7  UNL     1      20.106   2.375  49.097  1.00  0.00     0.163 C 
HETATM    6  N1  UNL     1      21.021   1.427  49.055  1.00  0.00    -0.248 NA
HETATM    7  C8  UNL     1      22.400   1.802  49.264  1.00  0.00     0.230 C 
HETATM    8  N2  UNL     1      22.225   2.408  50.365  1.00  0.00    -0.246 NA
HETATM    9  C9  UNL     1      23.293   3.034  51.076  1.00  0.00     0.161 C 
HETATM   10  C18 UNL     1      24.618   2.639  50.484  1.00  0.00     0.164 C 
HETATM   11  C19 UNL     1      25.010   3.619  49.394  1.00  0.00     0.226 C 
HETATM   12  O1  UNL     1      26.110   4.101  49.015  1.00  0.00    -0.273 OA
HETATM   13  N4  UNL     1      23.833   4.057  48.670  1.00  0.00    -0.330 N 
HETATM   14  H22 UNL     1      23.791   4.024  47.615  1.00  0.00     0.168 HD
ENDROOT
BRANCH   9  15
HETATM   15  N3  UNL     1      23.236   2.932  52.496  1.00  0.00    -0.361 N 
HETATM   16  H10 UNL     1      22.904   3.126  53.464  1.00  0.00     0.162 HD
BRANCH  15  17
HETATM   17  C10 UNL     1      24.174   2.025  53.112  1.00  0.00     0.011 C 
HETATM   18  C11 UNL     1      23.668   0.782  53.011  1.00  0.00     0.025 C 
HETATM   19  C12 UNL     1      24.274  -0.477  53.497  1.00  0.00     0.002 C 
HETATM   20  C13 UNL     1      25.583  -0.725  53.676  1.00  0.00     0.000 C 
HETATM   21  C14 UNL     1      26.707   0.202  53.426  1.00  0.00     0.003 C 
HETATM   22  C15 UNL     1      26.572   1.518  53.472  1.00  0.00    -0.078 C 
HETATM   23  C16 UNL     1      27.893   2.181  53.174  1.00  0.00     0.044 C 
HETATM   24  C17 UNL     1      25.463   2.437  53.740  1.00  0.00     0.090 C 
ENDBRANCH  15  17
ENDBRANCH   9  15
BRANCH   1  25
HETATM   25  C3  UNL     1      23.217   5.595  51.739  1.00  0.00     0.045 C 
BRANCH  25  26
HETATM   26  C2  UNL     1      23.691   6.878  51.208  1.00  0.00    -0.006 C 
HETATM   27  C1  UNL     1      24.942   7.047  50.737  1.00  0.00     0.005 C 
ENDBRANCH  25  26
ENDBRANCH   1  25
TORSDOF 4
ENDMDL
MODEL 9
REMARK VINA RESULT:      -6.7      5.827      8.679
REMARK  4 active torsions:
REMARK  status: ('A' for Active; 'I' for Inactive)
REMARK    1  A    between atoms: C2_2  and  C3_3 
REMARK    2  A    between atoms: C3_3  and  C4_4 
REMARK    3  A    between atoms: C9_12  and  N3_13 
REMARK    4  A    between atoms: N3_13  and  C10_14 
ROOT
HETATM    1  C4  UNL     1      26.932   7.418  48.206  1.00  0.00    -0.006 C 
HETATM    2  C5  UNL     1      25.911   8.016  47.537  1.00  0.00     0.028 C 
HETATM    3  C6  UNL     1      25.570   8.190  46.097  1.00  0.00     0.137 C 
HETATM    4  S1  UNL     1      26.947   8.854  45.171  1.00  0.00    -0.116 SA
HETATM    5  C7  UNL     1      27.356  10.492  45.678  1.00  0.00     0.163 C 
HETATM    6  N1  UNL     1      27.360  11.209  46.784  1.00  0.00    -0.248 NA
HETATM    7  C8  UNL     1      26.918  10.577  48.006  1.00  0.00     0.230 C 
HETATM    8  N2  UNL     1      27.696   9.577  47.947  1.00  0.00    -0.246 NA
HETATM    9  C9  UNL     1      27.699   8.546  48.935  1.00  0.00     0.161 C 
HETATM   10  C18 UNL     1      26.879   8.960  50.125  1.00  0.00     0.164 C 
HETATM   11  C19 UNL     1      25.438   8.526  49.937  1.00  0.00     0.226 C 
HETATM   12  O1  UNL     1      24.548   8.105  50.723  1.00  0.00    -0.273 OA
HETATM   13  N4  UNL     1      25.060   8.640  48.542  1.00  0.00    -0.330 N 
HETATM   14  H22 UNL     1      24.181   9.148  48.249  1.00  0.00     0.168 HD
ENDROOT
BRANCH   9  15
HETATM   15  N3  UNL     1      28.976   8.010  49.266  1.00  0.00    -0.361 N 
HETATM   16  H10 UNL     1      29.668   7.321  49.632  1.00  0.00     0.162 HD
BRANCH  15  17
HETATM   17  C10 UNL     1      30.119   8.832  48.951  1.00  0.00     0.011 C 
HETATM   18  C11 UNL     1      30.782   8.242  47.940  1.00  0.00     0.025 C 
HETATM   19  C12 UNL     1      32.016   8.716  47.277  1.00  0.00     0.002 C 
HETATM   20  C13 UNL     1      32.442   9.987  47.182  1.00  0.00     0.000 C 
HETATM   21  C14 UNL     1      31.774  11.193  47.717  1.00  0.00     0.003 C 
HETATM   22  C15 UNL     1      30.958  11.155  48.758  1.00  0.00    -0.078 C 
HETATM   23  C16 UNL     1      30.440  12.539  49.057  1.00  0.00     0.044 C 
HETATM   24  C17 UNL     1      30.466  10.103  49.651  1.00  0.00     0.090 C 
ENDBRANCH  15  17
ENDBRANCH   9  15
BRANCH   1  25
HETATM   25  C3  UNL     1      27.330   6.004  48.300  1.00  0.00     0.045 C 
BRANCH  25  26
HETATM   26  C2  UNL     1      26.475   5.170  49.154  1.00  0.00    -0.006 C 
HETATM   27  C1  UNL     1      26.706   3.856  49.343  1.00  0.00     0.005 C 
ENDBRANCH  25  26
ENDBRANCH   1  25
TORSDOF 4
ENDMDL
