MODEL 1
REMARK VINA RESULT:      -7.3      0.000      0.000
REMARK  6 active torsions:
REMARK  status: ('A' for Active; 'I' for Inactive)
REMARK    1  A    between atoms: C2_2  and  C3_3 
REMARK    2  A    between atoms: C4_4  and  C5_5 
REMARK    3  A    between atoms: C5_5  and  O1_6 
REMARK    4  A    between atoms: O1_6  and  C6_7 
REMARK    5  A    between atoms: C6_7  and  N4_22 
REMARK    6  A    between atoms: N1_9  and  C11_14 
ROOT
HETATM    1  C6  UNL     1      25.774   0.840  52.672  1.00  0.00     0.198 C 
HETATM    2  C7  UNL     1      26.328   1.881  53.718  1.00  0.00     0.193 C 
HETATM    3  N1  UNL     1      26.556   0.921  54.832  1.00  0.00    -0.354 N 
HETATM    4  C8  UNL     1      27.916   0.449  54.991  1.00  0.00     0.153 C 
HETATM    5  C9  UNL     1      27.994  -0.260  53.592  1.00  0.00     0.017 C 
HETATM    6  C10 UNL     1      26.874  -0.219  52.780  1.00  0.00     0.067 C 
HETATM    7 CL1  UNL     1      26.498  -1.494  51.634  1.00  0.00    -0.084 Cl
ENDROOT
BRANCH   1   8
HETATM    8  O1  UNL     1      25.712   1.282  51.428  1.00  0.00    -0.350 OA
BRANCH   8   9
HETATM    9  C5  UNL     1      26.493   2.347  51.072  1.00  0.00     0.198 C 
BRANCH   9  10
HETATM   10  C4  UNL     1      25.653   3.227  50.216  1.00  0.00    -0.005 C 
HETATM   11  C3  UNL     1      26.014   4.098  49.317  1.00  0.00    -0.029 C 
BRANCH  11  12
HETATM   12  C2  UNL     1      27.398   4.439  48.913  1.00  0.00     0.022 C 
HETATM   13  C1  UNL     1      27.463   5.896  48.495  1.00  0.00     0.009 C 
ENDBRANCH  11  12
ENDBRANCH   9  10
ENDBRANCH   8   9
ENDBRANCH   1   8
BRANCH   1  14
HETATM   14  N4  UNL     1      24.603   0.303  53.290  1.00  0.00    -0.279 N 
HETATM   15  C15 UNL     1      24.332  -0.715  54.128  1.00  0.00     0.195 A 
HETATM   16  C14 UNL     1      22.976  -0.871  54.470  1.00  0.00     0.077 A 
HETATM   17  F1  UNL     1      25.254  -1.588  54.661  1.00  0.00    -0.186 F 
HETATM   18  C13 UNL     1      22.360   0.124  53.795  1.00  0.00     0.018 A 
HETATM   19  C12 UNL     1      21.126   0.735  53.544  1.00  0.00     0.155 A 
HETATM   20  C16 UNL     1      23.359   0.786  53.115  1.00  0.00     0.099 A 
HETATM   21  N3  UNL     1      20.878   1.828  52.753  1.00  0.00    -0.160 NA
HETATM   22  N2  UNL     1      21.879   2.464  52.092  1.00  0.00    -0.130 NA
HETATM   23  C11 UNL     1      23.064   1.914  52.304  1.00  0.00     0.176 A 
ENDBRANCH   1  14
TORSDOF 6
ENDMDL
MODEL 2
REMARK VINA RESULT:      -7.2      3.668      6.843
REMARK  6 active torsions:
REMARK  status: ('A' for Active; 'I' for Inactive)
REMARK    1  A    between atoms: C2_2  and  C3_3 
REMARK    2  A    between atoms: C4_4  and  C5_5 
REMARK    3  A    between atoms: C5_5  and  O1_6 
REMARK    4  A    between atoms: O1_6  and  C6_7 
REMARK    5  A    between atoms: C6_7  and  N4_22 
REMARK    6  A    between atoms: N1_9  and  C11_14 
ROOT
HETATM    1  C6  UNL     1      20.889   1.462  51.638  1.00  0.00     0.198 C 
HETATM    2  C7  UNL     1      20.517   2.704  52.534  1.00  0.00     0.193 C 
HETATM    3  N1  UNL     1      21.687   3.549  52.175  1.00  0.00    -0.354 N 
HETATM    4  C8  UNL     1      21.451   4.557  51.160  1.00  0.00     0.153 C 
HETATM    5  C9  UNL     1      21.100   3.539  50.017  1.00  0.00     0.017 C 
HETATM    6  C10 UNL     1      21.143   2.188  50.314  1.00  0.00     0.067 C 
HETATM    7 CL1  UNL     1      21.532   0.974  49.108  1.00  0.00    -0.084 Cl
ENDROOT
BRANCH   1   8
HETATM    8  O1  UNL     1      19.915   0.583  51.475  1.00  0.00    -0.350 OA
BRANCH   8   9
HETATM    9  C5  UNL     1      18.621   1.020  51.541  1.00  0.00     0.198 C 
BRANCH   9  10
HETATM   10  C4  UNL     1      17.758  -0.147  51.217  1.00  0.00    -0.005 C 
HETATM   11  C3  UNL     1      17.376  -1.134  51.977  1.00  0.00    -0.029 C 
BRANCH  11  12
HETATM   12  C2  UNL     1      17.721  -1.343  53.403  1.00  0.00     0.022 C 
HETATM   13  C1  UNL     1      17.780  -2.830  53.700  1.00  0.00     0.009 C 
ENDBRANCH  11  12
ENDBRANCH   9  10
ENDBRANCH   8   9
ENDBRANCH   1   8
BRANCH   1  14
HETATM   14  N4  UNL     1      22.155   1.029  52.136  1.00  0.00    -0.279 N 
HETATM   15  C15 UNL     1      23.445   1.244  51.818  1.00  0.00     0.195 A 
HETATM   16  C14 UNL     1      24.386   0.571  52.618  1.00  0.00     0.077 A 
HETATM   17  F1  UNL     1      23.900   2.050  50.797  1.00  0.00    -0.186 F 
HETATM   18  C13 UNL     1      23.623  -0.112  53.501  1.00  0.00     0.018 A 
HETATM   19  C12 UNL     1      23.653  -0.973  54.604  1.00  0.00     0.155 A 
HETATM   20  C16 UNL     1      22.318   0.189  53.176  1.00  0.00     0.099 A 
HETATM   21  N3  UNL     1      22.586  -1.478  55.302  1.00  0.00    -0.160 NA
HETATM   22  N2  UNL     1      21.309  -1.167  54.963  1.00  0.00    -0.130 NA
HETATM   23  C11 UNL     1      21.239  -0.353  53.922  1.00  0.00     0.176 A 
ENDBRANCH   1  14
TORSDOF 6
ENDMDL
MODEL 3
REMARK VINA RESULT:      -7.1      2.908      6.432
REMARK  6 active torsions:
REMARK  status: ('A' for Active; 'I' for Inactive)
REMARK    1  A    between atoms: C2_2  and  C3_3 
REMARK    2  A    between atoms: C4_4  and  C5_5 
REMARK    3  A    between atoms: C5_5  and  O1_6 
REMARK    4  A    between atoms: O1_6  and  C6_7 
REMARK    5  A    between atoms: C6_7  and  N4_22 
REMARK    6  A    between atoms: N1_9  and  C11_14 
ROOT
HETATM    1  C6  UNL     1      22.997   2.817  51.578  1.00  0.00     0.198 C 
HETATM    2  C7  UNL     1      22.774   4.185  52.329  1.00  0.00     0.193 C 
HETATM    3  N1  UNL     1      23.163   5.078  51.204  1.00  0.00    -0.354 N 
HETATM    4  C8  UNL     1      22.070   5.636  50.434  1.00  0.00     0.153 C 
HETATM    5  C9  UNL     1      21.532   4.256  49.915  1.00  0.00     0.017 C 
HETATM    6  C10 UNL     1      22.203   3.109  50.302  1.00  0.00     0.067 C 
HETATM    7 CL1  UNL     1      22.259   1.670  49.299  1.00  0.00    -0.084 Cl
ENDROOT
BRANCH   1   8
HETATM    8  O1  UNL     1      22.481   1.761  52.183  1.00  0.00    -0.350 OA
BRANCH   8   9
HETATM    9  C5  UNL     1      21.210   1.848  52.681  1.00  0.00     0.198 C 
BRANCH   9  10
HETATM   10  C4  UNL     1      20.631   0.479  52.619  1.00  0.00    -0.005 C 
HETATM   11  C3  UNL     1      20.719  -0.498  53.477  1.00  0.00    -0.029 C 
BRANCH  11  12
HETATM   12  C2  UNL     1      21.443  -0.486  54.769  1.00  0.00     0.022 C 
HETATM   13  C1  UNL     1      22.868  -0.965  54.560  1.00  0.00     0.009 C 
ENDBRANCH  11  12
ENDBRANCH   9  10
ENDBRANCH   8   9
ENDBRANCH   1   8
BRANCH   1  14
HETATM   14  N4  UNL     1      24.382   2.824  51.229  1.00  0.00    -0.279 N 
HETATM   15  C15 UNL     1      25.099   3.085  50.121  1.00  0.00     0.195 A 
HETATM   16  C14 UNL     1      26.493   2.948  50.256  1.00  0.00     0.077 A 
HETATM   17  F1  UNL     1      24.587   3.465  48.900  1.00  0.00    -0.186 F 
HETATM   18  C13 UNL     1      26.653   2.576  51.545  1.00  0.00     0.018 A 
HETATM   19  C12 UNL     1      27.596   2.253  52.528  1.00  0.00     0.155 A 
HETATM   20  C16 UNL     1      25.383   2.515  52.076  1.00  0.00     0.099 A 
HETATM   21  N3  UNL     1      27.361   1.919  53.837  1.00  0.00    -0.160 NA
HETATM   22  N2  UNL     1      26.100   1.866  54.337  1.00  0.00    -0.130 NA
HETATM   23  C11 UNL     1      25.178   2.165  53.436  1.00  0.00     0.176 A 
ENDBRANCH   1  14
TORSDOF 6
ENDMDL
MODEL 4
REMARK VINA RESULT:      -7.0      2.940      4.928
REMARK  6 active torsions:
REMARK  status: ('A' for Active; 'I' for Inactive)
REMARK    1  A    between atoms: C2_2  and  C3_3 
REMARK    2  A    between atoms: C4_4  and  C5_5 
REMARK    3  A    between atoms: C5_5  and  O1_6 
REMARK    4  A    between atoms: O1_6  and  C6_7 
REMARK    5  A    between atoms: C6_7  and  N4_22 
REMARK    6  A    between atoms: N1_9  and  C11_14 
ROOT
HETATM    1  C6  UNL     1      24.003   2.329  52.583  1.00  0.00     0.198 C 
HETATM    2  C7  UNL     1      24.470   1.556  51.290  1.00  0.00     0.193 C 
HETATM    3  N1  UNL     1      23.562   2.239  50.329  1.00  0.00    -0.354 N 
HETATM    4  C8  UNL     1      24.150   3.319  49.564  1.00  0.00     0.153 C 
HETATM    5  C9  UNL     1      24.465   4.228  50.804  1.00  0.00     0.017 C 
HETATM    6  C10 UNL     1      24.109   3.763  52.058  1.00  0.00     0.067 C 
HETATM    7 CL1  UNL     1      23.679   4.844  53.373  1.00  0.00    -0.084 Cl
ENDROOT
BRANCH   1   8
HETATM    8  O1  UNL     1      24.795   2.187  53.632  1.00  0.00    -0.350 OA
BRANCH   8   9
HETATM    9  C5  UNL     1      26.114   1.894  53.420  1.00  0.00     0.198 C 
BRANCH   9  10
HETATM   10  C4  UNL     1      26.482   0.841  54.404  1.00  0.00    -0.005 C 
HETATM   11  C3  UNL     1      27.644   0.306  54.651  1.00  0.00    -0.029 C 
BRANCH  11  12
HETATM   12  C2  UNL     1      28.930   0.625  53.988  1.00  0.00     0.022 C 
HETATM   13  C1  UNL     1      29.636  -0.660  53.598  1.00  0.00     0.009 C 
ENDBRANCH  11  12
ENDBRANCH   9  10
ENDBRANCH   8   9
ENDBRANCH   1   8
BRANCH   1  14
HETATM   14  N4  UNL     1      22.613   2.020  52.700  1.00  0.00    -0.279 N 
HETATM   15  C15 UNL     1      21.457   2.625  52.375  1.00  0.00     0.195 A 
HETATM   16  C14 UNL     1      20.288   1.914  52.704  1.00  0.00     0.077 A 
HETATM   17  F1  UNL     1      21.334   3.853  51.762  1.00  0.00    -0.186 F 
HETATM   18  C13 UNL     1      20.754   0.781  53.275  1.00  0.00     0.018 A 
HETATM   19  C12 UNL     1      20.383  -0.439  53.852  1.00  0.00     0.155 A 
HETATM   20  C16 UNL     1      22.128   0.890  53.251  1.00  0.00     0.099 A 
HETATM   21  N3  UNL     1      21.208  -1.421  54.338  1.00  0.00    -0.160 NA
HETATM   22  N2  UNL     1      22.559  -1.290  54.304  1.00  0.00    -0.130 NA
HETATM   23  C11 UNL     1      22.950  -0.147  53.765  1.00  0.00     0.176 A 
ENDBRANCH   1  14
TORSDOF 6
ENDMDL
MODEL 5
REMARK VINA RESULT:      -7.0      2.888      6.177
REMARK  6 active torsions:
REMARK  status: ('A' for Active; 'I' for Inactive)
REMARK    1  A    between atoms: C2_2  and  C3_3 
REMARK    2  A    between atoms: C4_4  and  C5_5 
REMARK    3  A    between atoms: C5_5  and  O1_6 
REMARK    4  A    between atoms: O1_6  and  C6_7 
REMARK    5  A    between atoms: C6_7  and  N4_22 
REMARK    6  A    between atoms: N1_9  and  C11_14 
ROOT
HETATM    1  C6  UNL     1      22.977   2.523  51.056  1.00  0.00     0.198 C 
HETATM    2  C7  UNL     1      22.633   3.426  52.302  1.00  0.00     0.193 C 
HETATM    3  N1  UNL     1      23.476   4.592  51.923  1.00  0.00    -0.354 N 
HETATM    4  C8  UNL     1      22.783   5.691  51.281  1.00  0.00     0.153 C 
HETATM    5  C9  UNL     1      22.334   4.869  50.021  1.00  0.00     0.017 C 
HETATM    6  C10 UNL     1      22.715   3.540  49.942  1.00  0.00     0.067 C 
HETATM    7 CL1  UNL     1      22.984   2.731  48.408  1.00  0.00    -0.084 Cl
ENDROOT
BRANCH   1   8
HETATM    8  O1  UNL     1      22.183   1.479  50.891  1.00  0.00    -0.350 OA
BRANCH   8   9
HETATM    9  C5  UNL     1      20.847   1.626  51.146  1.00  0.00     0.198 C 
BRANCH   9  10
HETATM   10  C4  UNL     1      20.349   0.298  51.596  1.00  0.00    -0.005 C 
HETATM   11  C3  UNL     1      20.307  -0.210  52.795  1.00  0.00    -0.029 C 
BRANCH  11  12
HETATM   12  C2  UNL     1      20.763   0.434  54.050  1.00  0.00     0.022 C 
HETATM   13  C1  UNL     1      21.507  -0.579  54.901  1.00  0.00     0.009 C 
ENDBRANCH  11  12
ENDBRANCH   9  10
ENDBRANCH   8   9
ENDBRANCH   1   8
BRANCH   1  14
HETATM   14  N4  UNL     1      24.390   2.331  51.133  1.00  0.00    -0.279 N 
HETATM   15  C15 UNL     1      25.475   2.903  50.582  1.00  0.00     0.195 A 
HETATM   16  C14 UNL     1      26.711   2.350  50.966  1.00  0.00     0.077 A 
HETATM   17  F1  UNL     1      25.469   3.958  49.696  1.00  0.00    -0.186 F 
HETATM   18  C13 UNL     1      26.367   1.362  51.821  1.00  0.00     0.018 A 
HETATM   19  C12 UNL     1      26.864   0.357  52.659  1.00  0.00     0.155 A 
HETATM   20  C16 UNL     1      24.991   1.390  51.886  1.00  0.00     0.099 A 
HETATM   21  N3  UNL     1      26.147  -0.503  53.452  1.00  0.00    -0.160 NA
HETATM   22  N2  UNL     1      24.792  -0.456  53.499  1.00  0.00    -0.130 NA
HETATM   23  C11 UNL     1      24.283   0.483  52.718  1.00  0.00     0.176 A 
ENDBRANCH   1  14
TORSDOF 6
ENDMDL
MODEL 6
REMARK VINA RESULT:      -6.8      2.672      4.734
REMARK  6 active torsions:
REMARK  status: ('A' for Active; 'I' for Inactive)
REMARK    1  A    between atoms: C2_2  and  C3_3 
REMARK    2  A    between atoms: C4_4  and  C5_5 
REMARK    3  A    between atoms: C5_5  and  O1_6 
REMARK    4  A    between atoms: O1_6  and  C6_7 
REMARK    5  A    between atoms: C6_7  and  N4_22 
REMARK    6  A    between atoms: N1_9  and  C11_14 
ROOT
HETATM    1  C6  UNL     1      23.422   2.891  51.001  1.00  0.00     0.198 C 
HETATM    2  C7  UNL     1      23.027   2.198  49.641  1.00  0.00     0.193 C 
HETATM    3  N1  UNL     1      21.631   1.845  50.011  1.00  0.00    -0.354 N 
HETATM    4  C8  UNL     1      20.603   2.748  49.533  1.00  0.00     0.153 C 
HETATM    5  C9  UNL     1      21.114   3.996  50.336  1.00  0.00     0.017 C 
HETATM    6  C10 UNL     1      22.227   3.838  51.144  1.00  0.00     0.067 C 
HETATM    7 CL1  UNL     1      22.472   4.786  52.600  1.00  0.00    -0.084 Cl
ENDROOT
BRANCH   1   8
HETATM    8  O1  UNL     1      24.538   3.598  50.961  1.00  0.00    -0.350 OA
BRANCH   8   9
HETATM    9  C5  UNL     1      24.889   4.201  49.784  1.00  0.00     0.198 C 
BRANCH   9  10
HETATM   10  C4  UNL     1      26.299   3.814  49.510  1.00  0.00    -0.005 C 
HETATM   11  C3  UNL     1      27.265   4.516  48.987  1.00  0.00    -0.029 C 
BRANCH  11  12
HETATM   12  C2  UNL     1      27.193   5.920  48.521  1.00  0.00     0.022 C 
HETATM   13  C1  UNL     1      28.557   6.364  48.024  1.00  0.00     0.009 C 
ENDBRANCH  11  12
ENDBRANCH   9  10
ENDBRANCH   8   9
ENDBRANCH   1   8
BRANCH   1  14
HETATM   14  N4  UNL     1      23.271   1.864  51.981  1.00  0.00    -0.279 N 
HETATM   15  C15 UNL     1      22.281   1.429  52.782  1.00  0.00     0.195 A 
HETATM   16  C14 UNL     1      22.612   0.349  53.621  1.00  0.00     0.077 A 
HETATM   17  F1  UNL     1      21.006   1.947  52.843  1.00  0.00    -0.186 F 
HETATM   18  C13 UNL     1      23.903   0.092  53.316  1.00  0.00     0.018 A 
HETATM   19  C12 UNL     1      24.994  -0.742  53.589  1.00  0.00     0.155 A 
HETATM   20  C16 UNL     1      24.246   1.010  52.347  1.00  0.00     0.099 A 
HETATM   21  N3  UNL     1      26.240  -0.707  53.017  1.00  0.00    -0.160 NA
HETATM   22  N2  UNL     1      26.554   0.208  52.064  1.00  0.00    -0.130 NA
HETATM   23  C11 UNL     1      25.547   1.017  51.778  1.00  0.00     0.176 A 
ENDBRANCH   1  14
TORSDOF 6
ENDMDL
MODEL 7
REMARK VINA RESULT:      -6.5      8.148      9.955
REMARK  6 active torsions:
REMARK  status: ('A' for Active; 'I' for Inactive)
REMARK    1  A    between atoms: C2_2  and  C3_3 
REMARK    2  A    between atoms: C4_4  and  C5_5 
REMARK    3  A    between atoms: C5_5  and  O1_6 
REMARK    4  A    between atoms: O1_6  and  C6_7 
REMARK    5  A    between atoms: C6_7  and  N4_22 
REMARK    6  A    between atoms: N1_9  and  C11_14 
ROOT
HETATM    1  C6  UNL     1      30.565   8.367  48.174  1.00  0.00     0.198 C 
HETATM    2  C7  UNL     1      31.350   8.177  49.528  1.00  0.00     0.193 C 
HETATM    3  N1  UNL     1      31.506   6.700  49.446  1.00  0.00    -0.354 N 
HETATM    4  C8  UNL     1      32.785   6.226  48.955  1.00  0.00     0.153 C 
HETATM    5  C9  UNL     1      32.648   6.872  47.531  1.00  0.00     0.017 C 
HETATM    6  C10 UNL     1      31.491   7.578  47.246  1.00  0.00     0.067 C 
HETATM    7 CL1  UNL     1      30.838   7.692  45.621  1.00  0.00    -0.084 Cl
ENDROOT
BRANCH   1   8
HETATM    8  O1  UNL     1      30.481   9.616  47.751  1.00  0.00    -0.350 OA
BRANCH   8   9
HETATM    9  C5  UNL     1      31.272  10.562  48.344  1.00  0.00     0.198 C 
BRANCH   9  10
HETATM   10  C4  UNL     1      31.900  11.344  47.245  1.00  0.00    -0.005 C 
HETATM   11  C3  UNL     1      33.066  11.195  46.682  1.00  0.00    -0.029 C 
BRANCH  11  12
HETATM   12  C2  UNL     1      34.089  10.175  47.011  1.00  0.00     0.022 C 
HETATM   13  C1  UNL     1      34.607   9.542  45.732  1.00  0.00     0.009 C 
ENDBRANCH  11  12
ENDBRANCH   9  10
ENDBRANCH   8   9
ENDBRANCH   1   8
BRANCH   1  14
HETATM   14  N4  UNL     1      29.374   7.597  48.343  1.00  0.00    -0.279 N 
HETATM   15  C15 UNL     1      28.989   6.338  48.066  1.00  0.00     0.195 A 
HETATM   16  C14 UNL     1      27.664   6.019  48.420  1.00  0.00     0.077 A 
HETATM   17  F1  UNL     1      29.769   5.366  47.480  1.00  0.00    -0.186 F 
HETATM   18  C13 UNL     1      27.193   7.165  48.958  1.00  0.00     0.018 A 
HETATM   19  C12 UNL     1      26.082   7.768  49.560  1.00  0.00     0.155 A 
HETATM   20  C16 UNL     1      28.235   8.065  48.889  1.00  0.00     0.099 A 
HETATM   21  N3  UNL     1      25.979   9.052  50.033  1.00  0.00    -0.160 NA
HETATM   22  N2  UNL     1      27.020   9.919  49.954  1.00  0.00    -0.130 NA
HETATM   23  C11 UNL     1      28.091   9.386  49.388  1.00  0.00     0.176 A 
ENDBRANCH   1  14
TORSDOF 6
ENDMDL
MODEL 8
REMARK VINA RESULT:      -6.3      7.452     11.111
REMARK  6 active torsions:
REMARK  status: ('A' for Active; 'I' for Inactive)
REMARK    1  A    between atoms: C2_2  and  C3_3 
REMARK    2  A    between atoms: C4_4  and  C5_5 
REMARK    3  A    between atoms: C5_5  and  O1_6 
REMARK    4  A    between atoms: O1_6  and  C6_7 
REMARK    5  A    between atoms: C6_7  and  N4_22 
REMARK    6  A    between atoms: N1_9  and  C11_14 
ROOT
HETATM    1  C6  UNL     1      29.735   8.353  47.756  1.00  0.00     0.198 C 
HETATM    2  C7  UNL     1      29.286   8.397  46.246  1.00  0.00     0.193 C 
HETATM    3  N1  UNL     1      30.587   8.839  45.678  1.00  0.00    -0.354 N 
HETATM    4  C8  UNL     1      31.419   7.794  45.116  1.00  0.00     0.153 C 
HETATM    5  C9  UNL     1      31.613   7.015  46.465  1.00  0.00     0.017 C 
HETATM    6  C10 UNL     1      31.015   7.527  47.603  1.00  0.00     0.067 C 
HETATM    7 CL1  UNL     1      31.689   7.289  49.206  1.00  0.00    -0.084 Cl
ENDROOT
BRANCH   1   8
HETATM    8  O1  UNL     1      28.901   7.724  48.566  1.00  0.00    -0.350 OA
BRANCH   8   9
HETATM    9  C5  UNL     1      27.905   6.964  48.018  1.00  0.00     0.198 C 
BRANCH   9  10
HETATM   10  C4  UNL     1      28.201   5.550  48.372  1.00  0.00    -0.005 C 
HETATM   11  C3  UNL     1      27.412   4.634  48.858  1.00  0.00    -0.029 C 
BRANCH  11  12
HETATM   12  C2  UNL     1      25.976   4.781  49.190  1.00  0.00     0.022 C 
HETATM   13  C1  UNL     1      25.593   3.775  50.259  1.00  0.00     0.009 C 
ENDBRANCH  11  12
ENDBRANCH   9  10
ENDBRANCH   8   9
ENDBRANCH   1   8
BRANCH   1  14
HETATM   14  N4  UNL     1      30.127   9.695  48.050  1.00  0.00    -0.279 N 
HETATM   15  C15 UNL     1      31.289  10.372  48.111  1.00  0.00     0.195 A 
HETATM   16  C14 UNL     1      31.179  11.730  48.462  1.00  0.00     0.077 A 
HETATM   17  F1  UNL     1      32.540   9.851  47.863  1.00  0.00    -0.186 F 
HETATM   18  C13 UNL     1      29.850  11.910  48.630  1.00  0.00     0.018 A 
HETATM   19  C12 UNL     1      28.858  12.848  48.938  1.00  0.00     0.155 A 
HETATM   20  C16 UNL     1      29.274  10.684  48.378  1.00  0.00     0.099 A 
HETATM   21  N3  UNL     1      27.503  12.646  48.997  1.00  0.00    -0.160 NA
HETATM   22  N2  UNL     1      26.959  11.429  48.744  1.00  0.00    -0.130 NA
HETATM   23  C11 UNL     1      27.867  10.512  48.449  1.00  0.00     0.176 A 
ENDBRANCH   1  14
TORSDOF 6
ENDMDL
MODEL 9
REMARK VINA RESULT:      -6.2      8.141      9.903
REMARK  6 active torsions:
REMARK  status: ('A' for Active; 'I' for Inactive)
REMARK    1  A    between atoms: C2_2  and  C3_3 
REMARK    2  A    between atoms: C4_4  and  C5_5 
REMARK    3  A    between atoms: C5_5  and  O1_6 
REMARK    4  A    between atoms: O1_6  and  C6_7 
REMARK    5  A    between atoms: C6_7  and  N4_22 
REMARK    6  A    between atoms: N1_9  and  C11_14 
ROOT
HETATM    1  C6  UNL     1      30.370   8.584  48.155  1.00  0.00     0.198 C 
HETATM    2  C7  UNL     1      31.219   8.391  49.469  1.00  0.00     0.193 C 
HETATM    3  N1  UNL     1      31.446   6.927  49.329  1.00  0.00    -0.354 N 
HETATM    4  C8  UNL     1      32.725   6.537  48.773  1.00  0.00     0.153 C 
HETATM    5  C9  UNL     1      32.497   7.221  47.378  1.00  0.00     0.017 C 
HETATM    6  C10 UNL     1      31.296   7.875  47.163  1.00  0.00     0.067 C 
HETATM    7 CL1  UNL     1      30.572   8.008  45.570  1.00  0.00    -0.084 Cl
ENDROOT
BRANCH   1   8
HETATM    8  O1  UNL     1      30.206   9.840  47.779  1.00  0.00    -0.350 OA
BRANCH   8   9
HETATM    9  C5  UNL     1      31.254  10.708  47.921  1.00  0.00     0.198 C 
BRANCH   9  10
HETATM   10  C4  UNL     1      30.912  11.611  49.052  1.00  0.00    -0.005 C 
HETATM   11  C3  UNL     1      30.087  12.620  49.088  1.00  0.00    -0.029 C 
BRANCH  11  12
HETATM   12  C2  UNL     1      29.260  13.132  47.972  1.00  0.00     0.022 C 
HETATM   13  C1  UNL     1      27.846  13.389  48.461  1.00  0.00     0.009 C 
ENDBRANCH  11  12
ENDBRANCH   9  10
ENDBRANCH   8   9
ENDBRANCH   1   8
BRANCH   1  14
HETATM   14  N4  UNL     1      29.227   7.748  48.343  1.00  0.00    -0.279 N 
HETATM   15  C15 UNL     1      28.907   6.471  48.068  1.00  0.00     0.195 A 
HETATM   16  C14 UNL     1      27.610   6.077  48.447  1.00  0.00     0.077 A 
HETATM   17  F1  UNL     1      29.729   5.546  47.463  1.00  0.00    -0.186 F 
HETATM   18  C13 UNL     1      27.087   7.194  48.999  1.00  0.00     0.018 A 
HETATM   19  C12 UNL     1      25.956   7.732  49.626  1.00  0.00     0.155 A 
HETATM   20  C16 UNL     1      28.075   8.150  48.914  1.00  0.00     0.099 A 
HETATM   21  N3  UNL     1      25.791   9.006  50.106  1.00  0.00    -0.160 NA
HETATM   22  N2  UNL     1      26.780   9.930  50.010  1.00  0.00    -0.130 NA
HETATM   23  C11 UNL     1      27.868   9.459  49.422  1.00  0.00     0.176 A 
ENDBRANCH   1  14
TORSDOF 6
ENDMDL
