MODEL 1
REMARK VINA RESULT:      -8.5      0.000      0.000
REMARK  6 active torsions:
REMARK  status: ('A' for Active; 'I' for Inactive)
REMARK    1  A    between atoms: N1_1  and  C1_2 
REMARK    2  A    between atoms: C2_4  and  N3_5 
REMARK    3  A    between atoms: N3_5  and  C3_6 
REMARK    4  A    between atoms: N5_17  and  C11_18 
REMARK    5  A    between atoms: C11_18  and  C12_19 
REMARK    6  A    between atoms: C12_19  and  C13_20 
ROOT
HETATM    1  C1  UNL     1      29.281   1.962  54.430  1.00  0.00     0.724 A 
HETATM    2  N2  UNL     1      28.698   2.585  53.402  1.00  0.00    -0.043 NA
HETATM    3  C2  UNL     1      27.585   2.183  52.812  1.00  0.00     0.178 A 
HETATM    4  C9  UNL     1      27.015   1.026  53.331  1.00  0.00     0.130 A 
HETATM    5  C10 UNL     1      27.585   0.370  54.375  1.00  0.00     0.180 A 
HETATM    6  N4  UNL     1      28.718   0.825  54.936  1.00  0.00    -0.043 NA
HETATM    7  N5  UNL     1      26.381  -0.192  53.846  1.00  0.00    -0.323 N 
ENDROOT
BRANCH   3   8
HETATM    8  N3  UNL     1      26.964   2.835  51.728  1.00  0.00    -0.336 N 
HETATM    9  H3  UNL     1      27.611   3.259  50.994  1.00  0.00     0.168 HD
BRANCH   8  10
HETATM   10  C3  UNL     1      25.593   3.016  51.463  1.00  0.00     0.072 A 
HETATM   11  C4  UNL     1      24.596   3.100  52.408  1.00  0.00     0.034 A 
HETATM   12  C5  UNL     1      23.252   3.277  52.166  1.00  0.00     0.026 A 
HETATM   13  C6  UNL     1      22.854   3.381  50.855  1.00  0.00     0.037 A 
HETATM   14 CL1  UNL     1      21.164   3.607  50.463  1.00  0.00    -0.084 Cl
HETATM   15  C7  UNL     1      23.796   3.307  49.851  1.00  0.00     0.068 A 
HETATM   16  C8  UNL     1      25.119   3.130  50.174  1.00  0.00     0.144 A 
HETATM   17  F1  UNL     1      25.996   3.065  49.120  1.00  0.00    -0.204 F 
ENDBRANCH   8  10
ENDBRANCH   3   8
BRANCH   1  18
HETATM   18  N1  UNL     1      30.494   2.502  54.985  1.00  0.00    -0.231 N 
HETATM   19  H1  UNL     1      31.519   2.254  54.912  1.00  0.00     0.174 HD
HETATM   20  H2  UNL     1      30.390   3.333  55.611  1.00  0.00     0.174 HD
ENDBRANCH   1  18
BRANCH   7  21
HETATM   21  C11 UNL     1      25.257  -1.075  53.662  1.00  0.00     0.135 C 
BRANCH  21  22
HETATM   22  C12 UNL     1      24.213  -0.901  54.696  1.00  0.00     0.054 C 
BRANCH  22  23
HETATM   23  C13 UNL     1      22.844  -0.775  54.187  1.00  0.00    -0.078 C 
HETATM   24  C14 UNL     1      22.814  -0.206  52.954  1.00  0.00    -0.020 C 
HETATM   25  C15 UNL     1      21.507   0.016  52.248  1.00  0.00     0.054 C 
HETATM   26  C16 UNL     1      20.698   0.855  53.188  1.00  0.00    -0.027 C 
HETATM   27  C17 UNL     1      20.689   0.270  54.379  1.00  0.00    -0.026 C 
HETATM   28  C18 UNL     1      21.435  -1.038  54.569  1.00  0.00     0.060 C 
ENDBRANCH  22  23
ENDBRANCH  21  22
ENDBRANCH   7  21
TORSDOF 6
ENDMDL
MODEL 2
REMARK VINA RESULT:      -8.3      3.054      5.269
REMARK  6 active torsions:
REMARK  status: ('A' for Active; 'I' for Inactive)
REMARK    1  A    between atoms: N1_1  and  C1_2 
REMARK    2  A    between atoms: C2_4  and  N3_5 
REMARK    3  A    between atoms: N3_5  and  C3_6 
REMARK    4  A    between atoms: N5_17  and  C11_18 
REMARK    5  A    between atoms: C11_18  and  C12_19 
REMARK    6  A    between atoms: C12_19  and  C13_20 
ROOT
HETATM    1  C1  UNL     1      26.158   4.002  49.662  1.00  0.00     0.724 A 
HETATM    2  N2  UNL     1      26.426   3.339  50.791  1.00  0.00    -0.043 NA
HETATM    3  C2  UNL     1      25.539   2.645  51.486  1.00  0.00     0.178 A 
HETATM    4  C9  UNL     1      24.249   2.632  50.967  1.00  0.00     0.130 A 
HETATM    5  C10 UNL     1      23.946   3.296  49.822  1.00  0.00     0.180 A 
HETATM    6  N4  UNL     1      24.889   3.986  49.157  1.00  0.00    -0.043 NA
HETATM    7  N5  UNL     1      22.875   2.592  50.456  1.00  0.00    -0.323 N 
ENDROOT
BRANCH   3   8
HETATM    8  N3  UNL     1      25.815   1.944  52.677  1.00  0.00    -0.336 N 
HETATM    9  H3  UNL     1      25.142   2.101  53.488  1.00  0.00     0.168 HD
BRANCH   8  10
HETATM   10  C3  UNL     1      26.865   1.050  52.962  1.00  0.00     0.072 A 
HETATM   11  C4  UNL     1      26.848  -0.308  52.738  1.00  0.00     0.034 A 
HETATM   12  C5  UNL     1      27.866  -1.195  53.011  1.00  0.00     0.026 A 
HETATM   13  C6  UNL     1      29.018  -0.686  53.561  1.00  0.00     0.037 A 
HETATM   14 CL1  UNL     1      30.358  -1.746  53.935  1.00  0.00    -0.084 Cl
HETATM   15  C7  UNL     1      29.110   0.666  53.813  1.00  0.00     0.068 A 
HETATM   16  C8  UNL     1      28.050   1.487  53.512  1.00  0.00     0.144 A 
HETATM   17  F1  UNL     1      28.218   2.820  53.793  1.00  0.00    -0.204 F 
ENDBRANCH   8  10
ENDBRANCH   3   8
BRANCH   1  18
HETATM   18  N1  UNL     1      27.213   4.720  49.000  1.00  0.00    -0.231 N 
HETATM   19  H1  UNL     1      27.985   4.455  48.328  1.00  0.00     0.174 HD
HETATM   20  H2  UNL     1      27.274   5.745  49.198  1.00  0.00     0.174 HD
ENDBRANCH   1  18
BRANCH   7  21
HETATM   21  C11 UNL     1      21.561   2.063  50.719  1.00  0.00     0.135 C 
BRANCH  21  22
HETATM   22  C12 UNL     1      21.571   0.613  51.009  1.00  0.00     0.054 C 
BRANCH  22  23
HETATM   23  C13 UNL     1      21.599   0.260  52.432  1.00  0.00    -0.078 C 
HETATM   24  C14 UNL     1      22.801  -0.253  52.802  1.00  0.00    -0.020 C 
HETATM   25  C15 UNL     1      23.044  -0.680  54.221  1.00  0.00     0.054 C 
HETATM   26  C16 UNL     1      21.977  -1.691  54.508  1.00  0.00    -0.027 C 
HETATM   27  C17 UNL     1      20.800  -1.168  54.191  1.00  0.00    -0.026 C 
HETATM   28  C18 UNL     1      20.739   0.245  53.640  1.00  0.00     0.060 C 
ENDBRANCH  22  23
ENDBRANCH  21  22
ENDBRANCH   7  21
TORSDOF 6
ENDMDL
MODEL 3
REMARK VINA RESULT:      -8.2      3.472      6.877
REMARK  6 active torsions:
REMARK  status: ('A' for Active; 'I' for Inactive)
REMARK    1  A    between atoms: N1_1  and  C1_2 
REMARK    2  A    between atoms: C2_4  and  N3_5 
REMARK    3  A    between atoms: N3_5  and  C3_6 
REMARK    4  A    between atoms: N5_17  and  C11_18 
REMARK    5  A    between atoms: C11_18  and  C12_19 
REMARK    6  A    between atoms: C12_19  and  C13_20 
ROOT
HETATM    1  C1  UNL     1      21.080  -0.179  53.232  1.00  0.00     0.724 A 
HETATM    2  N2  UNL     1      22.285   0.243  53.626  1.00  0.00    -0.043 NA
HETATM    3  C2  UNL     1      23.126   0.931  52.869  1.00  0.00     0.178 A 
HETATM    4  C9  UNL     1      22.681   1.213  51.583  1.00  0.00     0.130 A 
HETATM    5  C10 UNL     1      21.461   0.797  51.154  1.00  0.00     0.180 A 
HETATM    6  N4  UNL     1      20.649   0.100  51.966  1.00  0.00    -0.043 NA
HETATM    7  N5  UNL     1      22.253   1.532  50.217  1.00  0.00    -0.323 N 
ENDROOT
BRANCH   3   8
HETATM    8  N3  UNL     1      24.398   1.380  53.278  1.00  0.00    -0.336 N 
HETATM    9  H3  UNL     1      24.453   2.374  53.657  1.00  0.00     0.168 HD
BRANCH   8  10
HETATM   10  C3  UNL     1      25.631   0.699  53.261  1.00  0.00     0.072 A 
HETATM   11  C4  UNL     1      25.821  -0.610  52.882  1.00  0.00     0.034 A 
HETATM   12  C5  UNL     1      27.018  -1.290  52.860  1.00  0.00     0.026 A 
HETATM   13  C6  UNL     1      28.143  -0.603  53.252  1.00  0.00     0.037 A 
HETATM   14 CL1  UNL     1      29.703  -1.395  53.251  1.00  0.00    -0.084 Cl
HETATM   15  C7  UNL     1      28.031   0.713  53.644  1.00  0.00     0.068 A 
HETATM   16  C8  UNL     1      26.800   1.322  53.639  1.00  0.00     0.144 A 
HETATM   17  F1  UNL     1      26.771   2.633  54.044  1.00  0.00    -0.204 F 
ENDBRANCH   8  10
ENDBRANCH   3   8
BRANCH   1  18
HETATM   18  N1  UNL     1      20.260  -0.921  54.151  1.00  0.00    -0.231 N 
HETATM   19  H1  UNL     1      20.441  -1.452  55.047  1.00  0.00     0.174 HD
HETATM   20  H2  UNL     1      19.241  -0.977  53.925  1.00  0.00     0.174 HD
ENDBRANCH   1  18
BRANCH   7  21
HETATM   21  C11 UNL     1      22.663   2.191  49.003  1.00  0.00     0.135 C 
BRANCH  21  22
HETATM   22  C12 UNL     1      22.914   3.637  49.190  1.00  0.00     0.054 C 
BRANCH  22  23
HETATM   23  C13 UNL     1      24.276   3.986  49.608  1.00  0.00    -0.078 C 
HETATM   24  C14 UNL     1      24.740   5.080  48.951  1.00  0.00    -0.020 C 
HETATM   25  C15 UNL     1      26.118   5.609  49.231  1.00  0.00     0.054 C 
HETATM   26  C16 UNL     1      27.036   4.457  48.962  1.00  0.00    -0.027 C 
HETATM   27  C17 UNL     1      26.607   3.404  49.643  1.00  0.00    -0.026 C 
HETATM   28  C18 UNL     1      25.365   3.533  50.507  1.00  0.00     0.060 C 
ENDBRANCH  22  23
ENDBRANCH  21  22
ENDBRANCH   7  21
TORSDOF 6
ENDMDL
MODEL 4
REMARK VINA RESULT:      -8.2      2.637      3.658
REMARK  6 active torsions:
REMARK  status: ('A' for Active; 'I' for Inactive)
REMARK    1  A    between atoms: N1_1  and  C1_2 
REMARK    2  A    between atoms: C2_4  and  N3_5 
REMARK    3  A    between atoms: N3_5  and  C3_6 
REMARK    4  A    between atoms: N5_17  and  C11_18 
REMARK    5  A    between atoms: C11_18  and  C12_19 
REMARK    6  A    between atoms: C12_19  and  C13_20 
ROOT
HETATM    1  C1  UNL     1      27.579   2.199  53.402  1.00  0.00     0.724 A 
HETATM    2  N2  UNL     1      27.619   2.496  52.100  1.00  0.00    -0.043 NA
HETATM    3  C2  UNL     1      26.554   2.698  51.341  1.00  0.00     0.178 A 
HETATM    4  C9  UNL     1      25.328   2.586  51.987  1.00  0.00     0.130 A 
HETATM    5  C10 UNL     1      25.256   2.287  53.310  1.00  0.00     0.180 A 
HETATM    6  N4  UNL     1      26.372   2.090  54.032  1.00  0.00    -0.043 NA
HETATM    7  N5  UNL     1      24.013   2.477  52.628  1.00  0.00    -0.323 N 
ENDROOT
BRANCH   3   8
HETATM    8  N3  UNL     1      26.588   3.011  49.967  1.00  0.00    -0.336 N 
HETATM    9  H3  UNL     1      26.573   2.187  49.291  1.00  0.00     0.168 HD
BRANCH   8  10
HETATM   10  C3  UNL     1      26.641   4.272  49.341  1.00  0.00     0.072 A 
HETATM   11  C4  UNL     1      27.764   4.853  48.799  1.00  0.00     0.034 A 
HETATM   12  C5  UNL     1      27.833   6.084  48.184  1.00  0.00     0.026 A 
HETATM   13  C6  UNL     1      26.671   6.812  48.097  1.00  0.00     0.037 A 
HETATM   14 CL1  UNL     1      26.673   8.384  47.330  1.00  0.00    -0.084 Cl
HETATM   15  C7  UNL     1      25.504   6.295  48.617  1.00  0.00     0.068 A 
HETATM   16  C8  UNL     1      25.517   5.058  49.216  1.00  0.00     0.144 A 
HETATM   17  F1  UNL     1      24.317   4.613  49.711  1.00  0.00    -0.204 F 
ENDBRANCH   8  10
ENDBRANCH   3   8
BRANCH   1  18
HETATM   18  N1  UNL     1      28.812   2.001  54.117  1.00  0.00    -0.231 N 
HETATM   19  H1  UNL     1      29.271   2.463  54.950  1.00  0.00     0.174 HD
HETATM   20  H2  UNL     1      29.433   1.235  53.770  1.00  0.00     0.174 HD
ENDBRANCH   1  18
BRANCH   7  21
HETATM   21  C11 UNL     1      22.597   2.573  52.381  1.00  0.00     0.135 C 
BRANCH  21  22
HETATM   22  C12 UNL     1      22.019   1.320  51.849  1.00  0.00     0.054 C 
BRANCH  22  23
HETATM   23  C13 UNL     1      22.282   0.121  52.650  1.00  0.00    -0.078 C 
HETATM   24  C14 UNL     1      21.194  -0.252  53.373  1.00  0.00    -0.020 C 
HETATM   25  C15 UNL     1      21.248  -1.459  54.265  1.00  0.00     0.054 C 
HETATM   26  C16 UNL     1      22.387  -1.197  55.201  1.00  0.00    -0.027 C 
HETATM   27  C17 UNL     1      23.459  -0.882  54.488  1.00  0.00    -0.026 C 
HETATM   28  C18 UNL     1      23.360  -0.845  52.974  1.00  0.00     0.060 C 
ENDBRANCH  22  23
ENDBRANCH  21  22
ENDBRANCH   7  21
TORSDOF 6
ENDMDL
MODEL 5
REMARK VINA RESULT:      -8.2      2.059      2.924
REMARK  6 active torsions:
REMARK  status: ('A' for Active; 'I' for Inactive)
REMARK    1  A    between atoms: N1_1  and  C1_2 
REMARK    2  A    between atoms: C2_4  and  N3_5 
REMARK    3  A    between atoms: N3_5  and  C3_6 
REMARK    4  A    between atoms: N5_17  and  C11_18 
REMARK    5  A    between atoms: C11_18  and  C12_19 
REMARK    6  A    between atoms: C12_19  and  C13_20 
ROOT
HETATM    1  C1  UNL     1      27.279   0.623  54.533  1.00  0.00     0.724 A 
HETATM    2  N2  UNL     1      26.798   1.781  54.071  1.00  0.00    -0.043 NA
HETATM    3  C2  UNL     1      25.584   1.946  53.571  1.00  0.00     0.178 A 
HETATM    4  C9  UNL     1      24.787   0.808  53.546  1.00  0.00     0.130 A 
HETATM    5  C10 UNL     1      25.247  -0.383  54.009  1.00  0.00     0.180 A 
HETATM    6  N4  UNL     1      26.491  -0.492  54.505  1.00  0.00    -0.043 NA
HETATM    7  N5  UNL     1      23.911  -0.367  53.499  1.00  0.00    -0.323 N 
ENDROOT
BRANCH   3   8
HETATM    8  N3  UNL     1      25.071   3.165  53.082  1.00  0.00    -0.336 N 
HETATM    9  H3  UNL     1      25.134   4.004  53.735  1.00  0.00     0.168 HD
BRANCH   8  10
HETATM   10  C3  UNL     1      24.476   3.445  51.836  1.00  0.00     0.072 A 
HETATM   11  C4  UNL     1      24.946   3.033  50.610  1.00  0.00     0.034 A 
HETATM   12  C5  UNL     1      24.377   3.298  49.384  1.00  0.00     0.026 A 
HETATM   13  C6  UNL     1      23.225   4.048  49.371  1.00  0.00     0.037 A 
HETATM   14 CL1  UNL     1      22.440   4.428  47.855  1.00  0.00    -0.084 Cl
HETATM   15  C7  UNL     1      22.694   4.497  50.561  1.00  0.00     0.068 A 
HETATM   16  C8  UNL     1      23.321   4.190  51.744  1.00  0.00     0.144 A 
HETATM   17  F1  UNL     1      22.731   4.673  52.885  1.00  0.00    -0.204 F 
ENDBRANCH   8  10
ENDBRANCH   3   8
BRANCH   1  18
HETATM   18  N1  UNL     1      28.620   0.575  55.052  1.00  0.00    -0.231 N 
HETATM   19  H1  UNL     1      29.353  -0.181  55.145  1.00  0.00     0.174 HD
HETATM   20  H2  UNL     1      29.002   1.468  55.437  1.00  0.00     0.174 HD
ENDBRANCH   1  18
BRANCH   7  21
HETATM   21  C11 UNL     1      22.597  -0.814  53.111  1.00  0.00     0.135 C 
BRANCH  21  22
HETATM   22  C12 UNL     1      21.618   0.291  53.019  1.00  0.00     0.054 C 
BRANCH  22  23
HETATM   23  C13 UNL     1      20.924   0.406  51.732  1.00  0.00    -0.078 C 
HETATM   24  C14 UNL     1      21.776   0.739  50.728  1.00  0.00    -0.020 C 
HETATM   25  C15 UNL     1      21.269   0.908  49.323  1.00  0.00     0.054 C 
HETATM   26  C16 UNL     1      20.203   1.954  49.421  1.00  0.00    -0.027 C 
HETATM   27  C17 UNL     1      19.346   1.600  50.370  1.00  0.00    -0.026 C 
HETATM   28  C18 UNL     1      19.573   0.306  51.130  1.00  0.00     0.060 C 
ENDBRANCH  22  23
ENDBRANCH  21  22
ENDBRANCH   7  21
TORSDOF 6
ENDMDL
MODEL 6
REMARK VINA RESULT:      -8.1      2.426      3.215
REMARK  6 active torsions:
REMARK  status: ('A' for Active; 'I' for Inactive)
REMARK    1  A    between atoms: N1_1  and  C1_2 
REMARK    2  A    between atoms: C2_4  and  N3_5 
REMARK    3  A    between atoms: N3_5  and  C3_6 
REMARK    4  A    between atoms: N5_17  and  C11_18 
REMARK    5  A    between atoms: C11_18  and  C12_19 
REMARK    6  A    between atoms: C12_19  and  C13_20 
ROOT
HETATM    1  C1  UNL     1      28.155   1.987  53.522  1.00  0.00     0.724 A 
HETATM    2  N2  UNL     1      27.622   2.449  52.387  1.00  0.00    -0.043 NA
HETATM    3  C2  UNL     1      26.447   2.078  51.902  1.00  0.00     0.178 A 
HETATM    4  C9  UNL     1      25.755   1.140  52.660  1.00  0.00     0.130 A 
HETATM    5  C10 UNL     1      26.272   0.653  53.817  1.00  0.00     0.180 A 
HETATM    6  N4  UNL     1      27.471   1.065  54.262  1.00  0.00    -0.043 NA
HETATM    7  N5  UNL     1      24.990   0.152  53.427  1.00  0.00    -0.323 N 
ENDROOT
BRANCH   3   8
HETATM    8  N3  UNL     1      25.878   2.561  50.707  1.00  0.00    -0.336 N 
HETATM    9  H3  UNL     1      25.144   1.942  50.245  1.00  0.00     0.168 HD
BRANCH   8  10
HETATM   10  C3  UNL     1      26.139   3.761  50.017  1.00  0.00     0.072 A 
HETATM   11  C4  UNL     1      27.234   4.008  49.220  1.00  0.00     0.034 A 
HETATM   12  C5  UNL     1      27.504   5.175  48.539  1.00  0.00     0.026 A 
HETATM   13  C6  UNL     1      26.597   6.201  48.659  1.00  0.00     0.037 A 
HETATM   14 CL1  UNL     1      26.866   7.715  47.825  1.00  0.00    -0.084 Cl
HETATM   15  C7  UNL     1      25.475   6.027  49.440  1.00  0.00     0.068 A 
HETATM   16  C8  UNL     1      25.277   4.832  50.089  1.00  0.00     0.144 A 
HETATM   17  F1  UNL     1      24.137   4.738  50.847  1.00  0.00    -0.204 F 
ENDBRANCH   8  10
ENDBRANCH   3   8
BRANCH   1  18
HETATM   18  N1  UNL     1      29.443   2.471  53.942  1.00  0.00    -0.231 N 
HETATM   19  H1  UNL     1      30.058   2.311  54.787  1.00  0.00     0.174 HD
HETATM   20  H2  UNL     1      29.923   3.138  53.295  1.00  0.00     0.174 HD
ENDBRANCH   1  18
BRANCH   7  21
HETATM   21  C11 UNL     1      23.760  -0.597  53.442  1.00  0.00     0.135 C 
BRANCH  21  22
HETATM   22  C12 UNL     1      22.571   0.253  53.670  1.00  0.00     0.054 C 
BRANCH  22  23
HETATM   23  C13 UNL     1      22.050   0.933  52.479  1.00  0.00    -0.078 C 
HETATM   24  C14 UNL     1      21.103   0.192  51.849  1.00  0.00    -0.020 C 
HETATM   25  C15 UNL     1      20.438   0.705  50.603  1.00  0.00     0.054 C 
HETATM   26  C16 UNL     1      21.559   0.973  49.648  1.00  0.00    -0.027 C 
HETATM   27  C17 UNL     1      22.459   1.737  50.252  1.00  0.00    -0.026 C 
HETATM   28  C18 UNL     1      22.219   2.175  51.686  1.00  0.00     0.060 C 
ENDBRANCH  22  23
ENDBRANCH  21  22
ENDBRANCH   7  21
TORSDOF 6
ENDMDL
MODEL 7
REMARK VINA RESULT:      -7.9      3.526      5.989
REMARK  6 active torsions:
REMARK  status: ('A' for Active; 'I' for Inactive)
REMARK    1  A    between atoms: N1_1  and  C1_2 
REMARK    2  A    between atoms: C2_4  and  N3_5 
REMARK    3  A    between atoms: N3_5  and  C3_6 
REMARK    4  A    between atoms: N5_17  and  C11_18 
REMARK    5  A    between atoms: C11_18  and  C12_19 
REMARK    6  A    between atoms: C12_19  and  C13_20 
ROOT
HETATM    1  C1  UNL     1      22.382   2.584  48.442  1.00  0.00     0.724 A 
HETATM    2  N2  UNL     1      23.290   3.467  48.868  1.00  0.00    -0.043 NA
HETATM    3  C2  UNL     1      23.860   3.443  50.062  1.00  0.00     0.178 A 
HETATM    4  C9  UNL     1      23.455   2.410  50.899  1.00  0.00     0.130 A 
HETATM    5  C10 UNL     1      22.534   1.498  50.494  1.00  0.00     0.180 A 
HETATM    6  N4  UNL     1      21.987   1.571  49.269  1.00  0.00    -0.043 NA
HETATM    7  N5  UNL     1      23.057   1.336  51.815  1.00  0.00    -0.323 N 
ENDROOT
BRANCH   3   8
HETATM    8  N3  UNL     1      24.819   4.371  50.518  1.00  0.00    -0.336 N 
HETATM    9  H3  UNL     1      24.794   4.609  51.556  1.00  0.00     0.168 HD
BRANCH   8  10
HETATM   10  C3  UNL     1      25.824   5.042  49.794  1.00  0.00     0.072 A 
HETATM   11  C4  UNL     1      25.906   6.403  49.606  1.00  0.00     0.034 A 
HETATM   12  C5  UNL     1      26.881   7.074  48.902  1.00  0.00     0.026 A 
HETATM   13  C6  UNL     1      27.876   6.322  48.326  1.00  0.00     0.037 A 
HETATM   14 CL1  UNL     1      29.152   7.098  47.415  1.00  0.00    -0.084 Cl
HETATM   15  C7  UNL     1      27.861   4.951  48.471  1.00  0.00     0.068 A 
HETATM   16  C8  UNL     1      26.853   4.355  49.189  1.00  0.00     0.144 A 
HETATM   17  F1  UNL     1      26.908   2.987  49.288  1.00  0.00    -0.204 F 
ENDBRANCH   8  10
ENDBRANCH   3   8
BRANCH   1  18
HETATM   18  N1  UNL     1      21.836   2.720  47.118  1.00  0.00    -0.231 N 
HETATM   19  H1  UNL     1      20.985   3.198  46.710  1.00  0.00     0.174 HD
HETATM   20  H2  UNL     1      22.366   2.255  46.346  1.00  0.00     0.174 HD
ENDBRANCH   1  18
BRANCH   7  21
HETATM   21  C11 UNL     1      23.283   0.801  53.134  1.00  0.00     0.135 C 
BRANCH  21  22
HETATM   22  C12 UNL     1      24.325  -0.249  53.157  1.00  0.00     0.054 C 
BRANCH  22  23
HETATM   23  C13 UNL     1      25.698   0.227  52.968  1.00  0.00    -0.078 C 
HETATM   24  C14 UNL     1      26.377   0.293  54.143  1.00  0.00    -0.020 C 
HETATM   25  C15 UNL     1      27.805   0.758  54.173  1.00  0.00     0.054 C 
HETATM   26  C16 UNL     1      27.781   2.119  53.551  1.00  0.00    -0.027 C 
HETATM   27  C17 UNL     1      27.161   2.041  52.381  1.00  0.00    -0.026 C 
HETATM   28  C18 UNL     1      26.627   0.700  51.912  1.00  0.00     0.060 C 
ENDBRANCH  22  23
ENDBRANCH  21  22
ENDBRANCH   7  21
TORSDOF 6
ENDMDL
MODEL 8
REMARK VINA RESULT:      -7.8      3.163      5.366
REMARK  6 active torsions:
REMARK  status: ('A' for Active; 'I' for Inactive)
REMARK    1  A    between atoms: N1_1  and  C1_2 
REMARK    2  A    between atoms: C2_4  and  N3_5 
REMARK    3  A    between atoms: N3_5  and  C3_6 
REMARK    4  A    between atoms: N5_17  and  C11_18 
REMARK    5  A    between atoms: C11_18  and  C12_19 
REMARK    6  A    between atoms: C12_19  and  C13_20 
ROOT
HETATM    1  C1  UNL     1      21.948   6.067  51.047  1.00  0.00     0.724 A 
HETATM    2  N2  UNL     1      23.176   5.695  51.420  1.00  0.00    -0.043 NA
HETATM    3  C2  UNL     1      23.653   4.465  51.318  1.00  0.00     0.178 A 
HETATM    4  C9  UNL     1      22.781   3.526  50.778  1.00  0.00     0.130 A 
HETATM    5  C10 UNL     1      21.528   3.875  50.389  1.00  0.00     0.180 A 
HETATM    6  N4  UNL     1      21.095   5.141  50.517  1.00  0.00    -0.043 NA
HETATM    7  N5  UNL     1      21.895   2.504  50.213  1.00  0.00    -0.323 N 
ENDROOT
BRANCH   3   8
HETATM    8  N3  UNL     1      24.947   4.065  51.710  1.00  0.00    -0.336 N 
HETATM    9  H3  UNL     1      25.690   4.828  51.745  1.00  0.00     0.168 HD
BRANCH   8  10
HETATM   10  C3  UNL     1      25.415   2.786  52.068  1.00  0.00     0.072 A 
HETATM   11  C4  UNL     1      25.099   2.110  53.224  1.00  0.00     0.034 A 
HETATM   12  C5  UNL     1      25.547   0.860  53.589  1.00  0.00     0.026 A 
HETATM   13  C6  UNL     1      26.394   0.214  52.721  1.00  0.00     0.037 A 
HETATM   14 CL1  UNL     1      27.007  -1.378  53.111  1.00  0.00    -0.084 Cl
HETATM   15  C7  UNL     1      26.755   0.828  51.541  1.00  0.00     0.068 A 
HETATM   16  C8  UNL     1      26.265   2.077  51.248  1.00  0.00     0.144 A 
HETATM   17  F1  UNL     1      26.671   2.622  50.056  1.00  0.00    -0.204 F 
ENDBRANCH   8  10
ENDBRANCH   3   8
BRANCH   1  18
HETATM   18  N1  UNL     1      21.548   7.439  51.211  1.00  0.00    -0.231 N 
HETATM   19  H1  UNL     1      21.979   8.289  51.670  1.00  0.00     0.174 HD
HETATM   20  H2  UNL     1      20.626   7.707  50.799  1.00  0.00     0.174 HD
ENDBRANCH   1  18
BRANCH   7  21
HETATM   21  C11 UNL     1      21.817   1.108  49.865  1.00  0.00     0.135 C 
BRANCH  21  22
HETATM   22  C12 UNL     1      20.977   0.328  50.799  1.00  0.00     0.054 C 
BRANCH  22  23
HETATM   23  C13 UNL     1      21.409   0.353  52.200  1.00  0.00    -0.078 C 
HETATM   24  C14 UNL     1      22.164  -0.731  52.515  1.00  0.00    -0.020 C 
HETATM   25  C15 UNL     1      22.711  -0.902  53.904  1.00  0.00     0.054 C 
HETATM   26  C16 UNL     1      21.511  -0.871  54.798  1.00  0.00    -0.027 C 
HETATM   27  C17 UNL     1      20.803   0.215  54.521  1.00  0.00    -0.026 C 
HETATM   28  C18 UNL     1      21.287   1.162  53.437  1.00  0.00     0.060 C 
ENDBRANCH  22  23
ENDBRANCH  21  22
ENDBRANCH   7  21
TORSDOF 6
ENDMDL
MODEL 9
REMARK VINA RESULT:      -7.8      2.688      6.137
REMARK  6 active torsions:
REMARK  status: ('A' for Active; 'I' for Inactive)
REMARK    1  A    between atoms: N1_1  and  C1_2 
REMARK    2  A    between atoms: C2_4  and  N3_5 
REMARK    3  A    between atoms: N3_5  and  C3_6 
REMARK    4  A    between atoms: N5_17  and  C11_18 
REMARK    5  A    between atoms: C11_18  and  C12_19 
REMARK    6  A    between atoms: C12_19  and  C13_20 
ROOT
HETATM    1  C1  UNL     1      27.143  -1.696  52.920  1.00  0.00     0.724 A 
HETATM    2  N2  UNL     1      26.066  -1.449  53.672  1.00  0.00    -0.043 NA
HETATM    3  C2  UNL     1      25.322  -0.357  53.585  1.00  0.00     0.178 A 
HETATM    4  C9  UNL     1      25.726   0.569  52.631  1.00  0.00     0.130 A 
HETATM    5  C10 UNL     1      26.816   0.346  51.852  1.00  0.00     0.180 A 
HETATM    6  N4  UNL     1      27.536  -0.782  51.985  1.00  0.00    -0.043 NA
HETATM    7  N5  UNL     1      26.117   1.575  51.637  1.00  0.00    -0.323 N 
ENDROOT
BRANCH   3   8
HETATM    8  N3  UNL     1      24.185  -0.090  54.374  1.00  0.00    -0.336 N 
HETATM    9  H3  UNL     1      24.363   0.324  55.340  1.00  0.00     0.168 HD
BRANCH   8  10
HETATM   10  C3  UNL     1      22.824  -0.292  54.074  1.00  0.00     0.072 A 
HETATM   11  C4  UNL     1      22.068  -1.375  54.459  1.00  0.00     0.034 A 
HETATM   12  C5  UNL     1      20.737  -1.588  54.174  1.00  0.00     0.026 A 
HETATM   13  C6  UNL     1      20.090  -0.630  53.432  1.00  0.00     0.037 A 
HETATM   14 CL1  UNL     1      18.399  -0.824  53.027  1.00  0.00    -0.084 Cl
HETATM   15  C7  UNL     1      20.782   0.485  53.009  1.00  0.00     0.068 A 
HETATM   16  C8  UNL     1      22.109   0.624  53.335  1.00  0.00     0.144 A 
HETATM   17  F1  UNL     1      22.728   1.760  52.877  1.00  0.00    -0.204 F 
ENDBRANCH   8  10
ENDBRANCH   3   8
BRANCH   1  18
HETATM   18  N1  UNL     1      27.868  -2.923  53.112  1.00  0.00    -0.231 N 
HETATM   19  H1  UNL     1      27.778  -3.906  52.733  1.00  0.00     0.174 HD
HETATM   20  H2  UNL     1      28.680  -2.886  53.769  1.00  0.00     0.174 HD
ENDBRANCH   1  18
BRANCH   7  21
HETATM   21  C11 UNL     1      25.760   2.860  51.094  1.00  0.00     0.135 C 
BRANCH  21  22
HETATM   22  C12 UNL     1      26.462   3.166  49.829  1.00  0.00     0.054 C 
BRANCH  22  23
HETATM   23  C13 UNL     1      26.230   4.511  49.293  1.00  0.00    -0.078 C 
HETATM   24  C14 UNL     1      27.364   5.051  48.776  1.00  0.00    -0.020 C 
HETATM   25  C15 UNL     1      27.347   6.427  48.174  1.00  0.00     0.054 C 
HETATM   26  C16 UNL     1      26.838   7.319  49.264  1.00  0.00    -0.027 C 
HETATM   27  C17 UNL     1      25.705   6.814  49.732  1.00  0.00    -0.026 C 
HETATM   28  C18 UNL     1      25.162   5.529  49.136  1.00  0.00     0.060 C 
ENDBRANCH  22  23
ENDBRANCH  21  22
ENDBRANCH   7  21
TORSDOF 6
ENDMDL
