MODEL 1
REMARK VINA RESULT:      -9.3      0.000      0.000
REMARK  6 active torsions:
REMARK  status: ('A' for Active; 'I' for Inactive)
REMARK    1  A    between atoms: O1_2  and  C2_3 
REMARK    2  A    between atoms: C6_7  and  C7_8 
REMARK    3  A    between atoms: C8_9  and  C9_10 
REMARK    4  A    between atoms: C9_10  and  C10_12 
REMARK    5  A    between atoms: C11_13  and  C12_14 
REMARK    6  A    between atoms: C15_17  and  C16_18 
ROOT
HETATM    1  C10 UNL     1      21.371  -0.017  52.323  1.00  0.00     0.055 C 
HETATM    2  C11 UNL     1      21.257   0.709  51.225  1.00  0.00     0.006 C 
ENDROOT
BRANCH   2   3
HETATM    3  C12 UNL     1      22.346   1.375  50.528  1.00  0.00     0.027 C 
HETATM    4  C13 UNL     1      22.953   2.516  50.820  1.00  0.00     0.041 A 
HETATM    5  C14 UNL     1      24.062   3.033  49.966  1.00  0.00     0.119 A 
HETATM    6  N2  UNL     1      22.467   3.198  51.992  1.00  0.00    -0.246 NA
HETATM    7  C15 UNL     1      24.521   4.302  50.526  1.00  0.00     0.051 A 
HETATM    8  N1  UNL     1      24.067   4.912  51.592  1.00  0.00    -0.245 NA
HETATM    9  C22 UNL     1      23.008   4.327  52.337  1.00  0.00     0.233 A 
BRANCH   7  10
HETATM   10  C16 UNL     1      25.607   4.978  49.820  1.00  0.00    -0.010 A 
HETATM   11  C17 UNL     1      26.652   4.228  49.266  1.00  0.00     0.013 A 
HETATM   12  C18 UNL     1      27.710   4.798  48.583  1.00  0.00     0.002 A 
HETATM   13  C19 UNL     1      27.756   6.171  48.431  1.00  0.00     0.019 A 
HETATM   14  C20 UNL     1      26.728   6.912  48.977  1.00  0.00     0.011 A 
HETATM   15 BR1  UNL     1      26.773   8.817  48.778  1.00  0.00    -0.051 Br
HETATM   16  C21 UNL     1      25.673   6.345  49.657  1.00  0.00     0.032 A 
ENDBRANCH   7  10
ENDBRANCH   2   3
BRANCH   1  17
HETATM   17  C9  UNL     1      22.246  -0.547  53.333  1.00  0.00     0.172 C 
HETATM   18  O2  UNL     1      21.342  -0.819  54.179  1.00  0.00    -0.289 OA
BRANCH  17  19
HETATM   19  C8  UNL     1      23.658  -0.801  53.580  1.00  0.00     0.055 C 
HETATM   20  C7  UNL     1      24.644  -0.092  53.066  1.00  0.00     0.015 C 
BRANCH  20  21
HETATM   21  C6  UNL     1      26.059  -0.338  53.305  1.00  0.00    -0.034 A 
HETATM   22  C5  UNL     1      26.702  -1.430  52.720  1.00  0.00     0.011 A 
HETATM   23  C4  UNL     1      28.047  -1.645  52.967  1.00  0.00     0.004 A 
HETATM   24  C3  UNL     1      28.795  -0.798  53.792  1.00  0.00     0.037 A 
HETATM   25  C2  UNL     1      28.188   0.300  54.392  1.00  0.00     0.069 A 
HETATM   26  C23 UNL     1      26.848   0.456  54.105  1.00  0.00     0.048 A 
BRANCH  25  27
HETATM   27  O1  UNL     1      28.848   1.197  55.226  1.00  0.00    -0.356 OA
HETATM   28  C1  UNL     1      29.730   2.140  54.627  1.00  0.00     0.210 C 
ENDBRANCH  25  27
ENDBRANCH  20  21
ENDBRANCH  17  19
ENDBRANCH   1  17
TORSDOF 6
ENDMDL
MODEL 2
REMARK VINA RESULT:      -9.1      0.996      1.606
REMARK  6 active torsions:
REMARK  status: ('A' for Active; 'I' for Inactive)
REMARK    1  A    between atoms: O1_2  and  C2_3 
REMARK    2  A    between atoms: C6_7  and  C7_8 
REMARK    3  A    between atoms: C8_9  and  C9_10 
REMARK    4  A    between atoms: C9_10  and  C10_12 
REMARK    5  A    between atoms: C11_13  and  C12_14 
REMARK    6  A    between atoms: C15_17  and  C16_18 
ROOT
HETATM    1  C10 UNL     1      21.721  -0.070  52.320  1.00  0.00     0.055 C 
HETATM    2  C11 UNL     1      21.459   0.624  51.227  1.00  0.00     0.006 C 
ENDROOT
BRANCH   2   3
HETATM    3  C12 UNL     1      22.427   1.374  50.443  1.00  0.00     0.027 C 
HETATM    4  C13 UNL     1      23.010   2.532  50.717  1.00  0.00     0.041 A 
HETATM    5  C14 UNL     1      23.987   3.142  49.768  1.00  0.00     0.119 A 
HETATM    6  N2  UNL     1      22.632   3.139  51.968  1.00  0.00    -0.246 NA
HETATM    7  C15 UNL     1      24.447   4.409  50.332  1.00  0.00     0.051 A 
HETATM    8  N1  UNL     1      24.093   4.949  51.470  1.00  0.00    -0.245 NA
HETATM    9  C22 UNL     1      23.156   4.279  52.302  1.00  0.00     0.233 A 
BRANCH   7  10
HETATM   10  C16 UNL     1      25.412   5.169  49.539  1.00  0.00    -0.010 A 
HETATM   11  C17 UNL     1      26.665   4.616  49.248  1.00  0.00     0.013 A 
HETATM   12  C18 UNL     1      27.625   5.275  48.502  1.00  0.00     0.002 A 
HETATM   13  C19 UNL     1      27.353   6.540  48.015  1.00  0.00     0.019 A 
HETATM   14  C20 UNL     1      26.119   7.086  48.302  1.00  0.00     0.011 A 
HETATM   15 BR1  UNL     1      25.722   8.839  47.636  1.00  0.00    -0.051 Br
HETATM   16  C21 UNL     1      25.162   6.430  49.043  1.00  0.00     0.032 A 
ENDBRANCH   7  10
ENDBRANCH   2   3
BRANCH   1  17
HETATM   17  C9  UNL     1      22.714  -0.503  53.265  1.00  0.00     0.172 C 
HETATM   18  O2  UNL     1      21.962  -1.291  53.914  1.00  0.00    -0.289 OA
BRANCH  17  19
HETATM   19  C8  UNL     1      24.116  -0.297  53.600  1.00  0.00     0.055 C 
HETATM   20  C7  UNL     1      24.942   0.467  52.913  1.00  0.00     0.015 C 
BRANCH  20  21
HETATM   21  C6  UNL     1      26.345   0.680  53.239  1.00  0.00    -0.034 A 
HETATM   22  C5  UNL     1      26.880   1.968  53.283  1.00  0.00     0.011 A 
HETATM   23  C4  UNL     1      28.219   2.143  53.591  1.00  0.00     0.004 A 
HETATM   24  C3  UNL     1      29.065   1.062  53.863  1.00  0.00     0.037 A 
HETATM   25  C2  UNL     1      28.567  -0.235  53.829  1.00  0.00     0.069 A 
HETATM   26  C23 UNL     1      27.228  -0.339  53.516  1.00  0.00     0.048 A 
BRANCH  25  27
HETATM   27  O1  UNL     1      29.330  -1.370  54.086  1.00  0.00    -0.356 OA
HETATM   28  C1  UNL     1      29.155  -2.499  53.236  1.00  0.00     0.210 C 
ENDBRANCH  25  27
ENDBRANCH  20  21
ENDBRANCH  17  19
ENDBRANCH   1  17
TORSDOF 6
ENDMDL
MODEL 3
REMARK VINA RESULT:      -8.9      4.821      8.359
REMARK  6 active torsions:
REMARK  status: ('A' for Active; 'I' for Inactive)
REMARK    1  A    between atoms: O1_2  and  C2_3 
REMARK    2  A    between atoms: C6_7  and  C7_8 
REMARK    3  A    between atoms: C8_9  and  C9_10 
REMARK    4  A    between atoms: C9_10  and  C10_12 
REMARK    5  A    between atoms: C11_13  and  C12_14 
REMARK    6  A    between atoms: C15_17  and  C16_18 
ROOT
HETATM    1  C10 UNL     1      27.858   7.078  48.126  1.00  0.00     0.055 C 
HETATM    2  C11 UNL     1      26.835   6.259  48.294  1.00  0.00     0.006 C 
ENDROOT
BRANCH   2   3
HETATM    3  C12 UNL     1      26.884   4.959  48.943  1.00  0.00     0.027 C 
HETATM    4  C13 UNL     1      26.066   4.444  49.849  1.00  0.00     0.041 A 
HETATM    5  C14 UNL     1      26.294   3.075  50.397  1.00  0.00     0.119 A 
HETATM    6  N2  UNL     1      24.973   5.291  50.254  1.00  0.00    -0.246 NA
HETATM    7  C15 UNL     1      25.248   2.790  51.376  1.00  0.00     0.051 A 
HETATM    8  N1  UNL     1      24.261   3.572  51.736  1.00  0.00    -0.245 NA
HETATM    9  C22 UNL     1      24.135   4.858  51.146  1.00  0.00     0.233 A 
BRANCH   7  10
HETATM   10  C16 UNL     1      25.303   1.488  52.038  1.00  0.00    -0.010 A 
HETATM   11  C17 UNL     1      26.463   0.709  51.949  1.00  0.00     0.013 A 
HETATM   12  C18 UNL     1      26.589  -0.529  52.551  1.00  0.00     0.002 A 
HETATM   13  C19 UNL     1      25.527  -1.039  53.276  1.00  0.00     0.019 A 
HETATM   14  C20 UNL     1      24.383  -0.274  53.363  1.00  0.00     0.011 A 
HETATM   15 BR1  UNL     1      22.900  -0.962  54.363  1.00  0.00    -0.051 Br
HETATM   16  C21 UNL     1      24.258   0.960  52.765  1.00  0.00     0.032 A 
ENDBRANCH   7  10
ENDBRANCH   2   3
BRANCH   1  17
HETATM   17  C9  UNL     1      29.261   7.313  48.329  1.00  0.00     0.172 C 
HETATM   18  O2  UNL     1      29.152   8.514  48.721  1.00  0.00    -0.289 OA
BRANCH  17  19
HETATM   19  C8  UNL     1      30.545   6.635  48.216  1.00  0.00     0.055 C 
HETATM   20  C7  UNL     1      30.701   5.405  47.768  1.00  0.00     0.015 C 
BRANCH  20  21
HETATM   21  C6  UNL     1      31.979   4.718  47.651  1.00  0.00    -0.034 A 
HETATM   22  C5  UNL     1      32.094   3.545  46.903  1.00  0.00     0.011 A 
HETATM   23  C4  UNL     1      33.319   2.907  46.812  1.00  0.00     0.004 A 
HETATM   24  C3  UNL     1      34.463   3.403  47.449  1.00  0.00     0.037 A 
HETATM   25  C2  UNL     1      34.387   4.569  48.203  1.00  0.00     0.069 A 
HETATM   26  C23 UNL     1      33.139   5.152  48.253  1.00  0.00     0.048 A 
BRANCH  25  27
HETATM   27  O1  UNL     1      35.468   5.136  48.870  1.00  0.00    -0.356 OA
HETATM   28  C1  UNL     1      35.668   6.540  48.745  1.00  0.00     0.210 C 
ENDBRANCH  25  27
ENDBRANCH  20  21
ENDBRANCH  17  19
ENDBRANCH   1  17
TORSDOF 6
ENDMDL
MODEL 4
REMARK VINA RESULT:      -8.8      5.257      8.957
REMARK  6 active torsions:
REMARK  status: ('A' for Active; 'I' for Inactive)
REMARK    1  A    between atoms: O1_2  and  C2_3 
REMARK    2  A    between atoms: C6_7  and  C7_8 
REMARK    3  A    between atoms: C8_9  and  C9_10 
REMARK    4  A    between atoms: C9_10  and  C10_12 
REMARK    5  A    between atoms: C11_13  and  C12_14 
REMARK    6  A    between atoms: C15_17  and  C16_18 
ROOT
HETATM    1  C10 UNL     1      28.309   6.900  47.929  1.00  0.00     0.055 C 
HETATM    2  C11 UNL     1      27.239   6.171  48.191  1.00  0.00     0.006 C 
ENDROOT
BRANCH   2   3
HETATM    3  C12 UNL     1      27.232   4.888  48.876  1.00  0.00     0.027 C 
HETATM    4  C13 UNL     1      26.338   4.396  49.721  1.00  0.00     0.041 A 
HETATM    5  C14 UNL     1      26.517   3.042  50.324  1.00  0.00     0.119 A 
HETATM    6  N2  UNL     1      25.214   5.250  50.006  1.00  0.00    -0.246 NA
HETATM    7  C15 UNL     1      25.389   2.781  51.214  1.00  0.00     0.051 A 
HETATM    8  N1  UNL     1      24.374   3.569  51.466  1.00  0.00    -0.245 NA
HETATM    9  C22 UNL     1      24.300   4.839  50.833  1.00  0.00     0.233 A 
BRANCH   7  10
HETATM   10  C16 UNL     1      25.386   1.497  51.913  1.00  0.00    -0.010 A 
HETATM   11  C17 UNL     1      26.523   0.680  51.875  1.00  0.00     0.013 A 
HETATM   12  C18 UNL     1      26.594  -0.544  52.513  1.00  0.00     0.002 A 
HETATM   13  C19 UNL     1      25.499  -0.999  53.226  1.00  0.00     0.019 A 
HETATM   14  C20 UNL     1      24.379  -0.196  53.264  1.00  0.00     0.011 A 
HETATM   15 BR1  UNL     1      22.852  -0.808  54.246  1.00  0.00    -0.051 Br
HETATM   16  C21 UNL     1      24.308   1.024  52.629  1.00  0.00     0.032 A 
ENDBRANCH   7  10
ENDBRANCH   2   3
BRANCH   1  17
HETATM   17  C9  UNL     1      29.737   7.028  48.031  1.00  0.00     0.172 C 
HETATM   18  O2  UNL     1      29.738   7.994  48.852  1.00  0.00    -0.289 OA
BRANCH  17  19
HETATM   19  C8  UNL     1      30.961   6.430  47.516  1.00  0.00     0.055 C 
HETATM   20  C7  UNL     1      31.222   5.138  47.530  1.00  0.00     0.015 C 
BRANCH  20  21
HETATM   21  C6  UNL     1      32.443   4.531  47.019  1.00  0.00    -0.034 A 
HETATM   22  C5  UNL     1      33.104   3.538  47.743  1.00  0.00     0.011 A 
HETATM   23  C4  UNL     1      34.266   2.979  47.238  1.00  0.00     0.004 A 
HETATM   24  C3  UNL     1      34.808   3.378  46.011  1.00  0.00     0.037 A 
HETATM   25  C2  UNL     1      34.177   4.365  45.262  1.00  0.00     0.069 A 
HETATM   26  C23 UNL     1      33.027   4.879  45.822  1.00  0.00     0.048 A 
BRANCH  25  27
HETATM   27  O1  UNL     1      34.640   4.825  44.033  1.00  0.00    -0.356 OA
HETATM   28  C1  UNL     1      33.790   4.679  42.901  1.00  0.00     0.210 C 
ENDBRANCH  25  27
ENDBRANCH  20  21
ENDBRANCH  17  19
ENDBRANCH   1  17
TORSDOF 6
ENDMDL
MODEL 5
REMARK VINA RESULT:      -8.5      4.197      6.117
REMARK  6 active torsions:
REMARK  status: ('A' for Active; 'I' for Inactive)
REMARK    1  A    between atoms: O1_2  and  C2_3 
REMARK    2  A    between atoms: C6_7  and  C7_8 
REMARK    3  A    between atoms: C8_9  and  C9_10 
REMARK    4  A    between atoms: C9_10  and  C10_12 
REMARK    5  A    between atoms: C11_13  and  C12_14 
REMARK    6  A    between atoms: C15_17  and  C16_18 
ROOT
HETATM    1  C10 UNL     1      25.067   4.361  49.478  1.00  0.00     0.055 C 
HETATM    2  C11 UNL     1      25.917   5.140  48.833  1.00  0.00     0.006 C 
ENDROOT
BRANCH   2   3
HETATM    3  C12 UNL     1      27.359   4.963  48.776  1.00  0.00     0.027 C 
HETATM    4  C13 UNL     1      28.285   5.780  48.297  1.00  0.00     0.041 A 
HETATM    5  C14 UNL     1      29.729   5.406  48.332  1.00  0.00     0.119 A 
HETATM    6  N2  UNL     1      27.797   7.021  47.752  1.00  0.00    -0.246 NA
HETATM    7  C15 UNL     1      30.500   6.491  47.728  1.00  0.00     0.051 A 
HETATM    8  N1  UNL     1      30.043   7.614  47.234  1.00  0.00    -0.245 NA
HETATM    9  C22 UNL     1      28.645   7.871  47.255  1.00  0.00     0.233 A 
BRANCH   7  10
HETATM   10  C16 UNL     1      31.948   6.308  47.660  1.00  0.00    -0.010 A 
HETATM   11  C17 UNL     1      32.788   7.082  48.471  1.00  0.00     0.013 A 
HETATM   12  C18 UNL     1      34.165   6.963  48.463  1.00  0.00     0.002 A 
HETATM   13  C19 UNL     1      34.759   6.043  47.619  1.00  0.00     0.019 A 
HETATM   14  C20 UNL     1      33.934   5.280  46.819  1.00  0.00     0.011 A 
HETATM   15 BR1  UNL     1      34.737   3.999  45.642  1.00  0.00    -0.051 Br
HETATM   16  C21 UNL     1      32.562   5.398  46.827  1.00  0.00     0.032 A 
ENDBRANCH   7  10
ENDBRANCH   2   3
BRANCH   1  17
HETATM   17  C9  UNL     1      24.884   3.199  50.305  1.00  0.00     0.172 C 
HETATM   18  O2  UNL     1      23.657   3.023  50.037  1.00  0.00    -0.289 OA
BRANCH  17  19
HETATM   19  C8  UNL     1      25.625   2.334  51.210  1.00  0.00     0.055 C 
HETATM   20  C7  UNL     1      26.814   2.616  51.706  1.00  0.00     0.015 C 
BRANCH  20  21
HETATM   21  C6  UNL     1      27.564   1.757  52.611  1.00  0.00    -0.034 A 
HETATM   22  C5  UNL     1      28.477   2.299  53.517  1.00  0.00     0.011 A 
HETATM   23  C4  UNL     1      29.182   1.461  54.364  1.00  0.00     0.004 A 
HETATM   24  C3  UNL     1      29.009   0.072  54.346  1.00  0.00     0.037 A 
HETATM   25  C2  UNL     1      28.108  -0.503  53.457  1.00  0.00     0.069 A 
HETATM   26  C23 UNL     1      27.441   0.387  52.642  1.00  0.00     0.048 A 
BRANCH  25  27
HETATM   27  O1  UNL     1      27.869  -1.871  53.366  1.00  0.00    -0.356 OA
HETATM   28  C1  UNL     1      26.925  -2.322  52.402  1.00  0.00     0.210 C 
ENDBRANCH  25  27
ENDBRANCH  20  21
ENDBRANCH  17  19
ENDBRANCH   1  17
TORSDOF 6
ENDMDL
MODEL 6
REMARK VINA RESULT:      -8.4      2.149      3.052
REMARK  6 active torsions:
REMARK  status: ('A' for Active; 'I' for Inactive)
REMARK    1  A    between atoms: O1_2  and  C2_3 
REMARK    2  A    between atoms: C6_7  and  C7_8 
REMARK    3  A    between atoms: C8_9  and  C9_10 
REMARK    4  A    between atoms: C9_10  and  C10_12 
REMARK    5  A    between atoms: C11_13  and  C12_14 
REMARK    6  A    between atoms: C15_17  and  C16_18 
ROOT
HETATM    1  C10 UNL     1      20.815  -0.852  53.856  1.00  0.00     0.055 C 
HETATM    2  C11 UNL     1      20.027   0.066  53.325  1.00  0.00     0.006 C 
ENDROOT
BRANCH   2   3
HETATM    3  C12 UNL     1      20.395   1.443  53.042  1.00  0.00     0.027 C 
HETATM    4  C13 UNL     1      21.043   1.939  51.997  1.00  0.00     0.041 A 
HETATM    5  C14 UNL     1      21.327   3.401  51.895  1.00  0.00     0.119 A 
HETATM    6  N2  UNL     1      21.442   0.980  51.000  1.00  0.00    -0.246 NA
HETATM    7  C15 UNL     1      22.056   3.643  50.653  1.00  0.00     0.051 A 
HETATM    8  N1  UNL     1      22.415   2.760  49.756  1.00  0.00    -0.245 NA
HETATM    9  C22 UNL     1      22.089   1.390  49.951  1.00  0.00     0.233 A 
BRANCH   7  10
HETATM   10  C16 UNL     1      22.438   5.026  50.373  1.00  0.00    -0.010 A 
HETATM   11  C17 UNL     1      21.692   6.079  50.918  1.00  0.00     0.013 A 
HETATM   12  C18 UNL     1      21.995   7.410  50.699  1.00  0.00     0.002 A 
HETATM   13  C19 UNL     1      23.080   7.735  49.906  1.00  0.00     0.019 A 
HETATM   14  C20 UNL     1      23.815   6.699  49.368  1.00  0.00     0.011 A 
HETATM   15 BR1  UNL     1      25.323   7.128  48.267  1.00  0.00    -0.051 Br
HETATM   16  C21 UNL     1      23.515   5.373  49.587  1.00  0.00     0.032 A 
ENDBRANCH   7  10
ENDBRANCH   2   3
BRANCH   1  17
HETATM   17  C9  UNL     1      22.115  -1.167  54.381  1.00  0.00     0.172 C 
HETATM   18  O2  UNL     1      21.731  -2.069  55.186  1.00  0.00    -0.289 OA
BRANCH  17  19
HETATM   19  C8  UNL     1      23.511  -0.777  54.243  1.00  0.00     0.055 C 
HETATM   20  C7  UNL     1      23.946   0.154  53.418  1.00  0.00     0.015 C 
BRANCH  20  21
HETATM   21  C6  UNL     1      25.339   0.551  53.271  1.00  0.00    -0.034 A 
HETATM   22  C5  UNL     1      25.689   1.656  52.492  1.00  0.00     0.011 A 
HETATM   23  C4  UNL     1      27.021   2.010  52.365  1.00  0.00     0.004 A 
HETATM   24  C3  UNL     1      28.043   1.294  52.997  1.00  0.00     0.037 A 
HETATM   25  C2  UNL     1      27.733   0.188  53.781  1.00  0.00     0.069 A 
HETATM   26  C23 UNL     1      26.390  -0.111  53.865  1.00  0.00     0.048 A 
BRANCH  25  27
HETATM   27  O1  UNL     1      28.679  -0.584  54.448  1.00  0.00    -0.356 OA
HETATM   28  C1  UNL     1      29.784  -1.081  53.699  1.00  0.00     0.210 C 
ENDBRANCH  25  27
ENDBRANCH  20  21
ENDBRANCH  17  19
ENDBRANCH   1  17
TORSDOF 6
ENDMDL
MODEL 7
REMARK VINA RESULT:      -8.4      3.578      6.517
REMARK  6 active torsions:
REMARK  status: ('A' for Active; 'I' for Inactive)
REMARK    1  A    between atoms: O1_2  and  C2_3 
REMARK    2  A    between atoms: C6_7  and  C7_8 
REMARK    3  A    between atoms: C8_9  and  C9_10 
REMARK    4  A    between atoms: C9_10  and  C10_12 
REMARK    5  A    between atoms: C11_13  and  C12_14 
REMARK    6  A    between atoms: C15_17  and  C16_18 
ROOT
HETATM    1  C10 UNL     1      25.455   4.736  49.303  1.00  0.00     0.055 C 
HETATM    2  C11 UNL     1      24.238   4.951  48.836  1.00  0.00     0.006 C 
ENDROOT
BRANCH   2   3
HETATM    3  C12 UNL     1      23.141   3.996  48.846  1.00  0.00     0.027 C 
HETATM    4  C13 UNL     1      22.324   3.670  49.837  1.00  0.00     0.041 A 
HETATM    5  C14 UNL     1      21.250   2.652  49.640  1.00  0.00     0.119 A 
HETATM    6  N2  UNL     1      22.551   4.355  51.083  1.00  0.00    -0.246 NA
HETATM    7  C15 UNL     1      20.526   2.498  50.899  1.00  0.00     0.051 A 
HETATM    8  N1  UNL     1      20.746   3.127  52.027  1.00  0.00    -0.245 NA
HETATM    9  C22 UNL     1      21.795   4.082  52.103  1.00  0.00     0.233 A 
BRANCH   7  10
HETATM   10  C16 UNL     1      19.431   1.530  50.914  1.00  0.00    -0.010 A 
HETATM   11  C17 UNL     1      18.510   1.504  49.860  1.00  0.00     0.013 A 
HETATM   12  C18 UNL     1      17.452   0.615  49.804  1.00  0.00     0.002 A 
HETATM   13  C19 UNL     1      17.280  -0.296  50.830  1.00  0.00     0.019 A 
HETATM   14  C20 UNL     1      18.186  -0.271  51.869  1.00  0.00     0.011 A 
HETATM   15 BR1  UNL     1      17.966  -1.526  53.301  1.00  0.00    -0.051 Br
HETATM   16  C21 UNL     1      19.240   0.613  51.925  1.00  0.00     0.032 A 
ENDBRANCH   7  10
ENDBRANCH   2   3
BRANCH   1  17
HETATM   17  C9  UNL     1      26.358   3.814  49.935  1.00  0.00     0.172 C 
HETATM   18  O2  UNL     1      27.395   4.167  49.296  1.00  0.00    -0.289 OA
BRANCH  17  19
HETATM   19  C8  UNL     1      26.374   2.764  50.943  1.00  0.00     0.055 C 
HETATM   20  C7  UNL     1      25.303   2.309  51.562  1.00  0.00     0.015 C 
BRANCH  20  21
HETATM   21  C6  UNL     1      25.308   1.260  52.572  1.00  0.00    -0.034 A 
HETATM   22  C5  UNL     1      24.161   0.504  52.821  1.00  0.00     0.011 A 
HETATM   23  C4  UNL     1      24.189  -0.484  53.790  1.00  0.00     0.004 A 
HETATM   24  C3  UNL     1      25.340  -0.758  54.538  1.00  0.00     0.037 A 
HETATM   25  C2  UNL     1      26.501  -0.025  54.318  1.00  0.00     0.069 A 
HETATM   26  C23 UNL     1      26.405   0.943  53.340  1.00  0.00     0.048 A 
BRANCH  25  27
HETATM   27  O1  UNL     1      27.692  -0.224  55.010  1.00  0.00    -0.356 OA
HETATM   28  C1  UNL     1      28.908  -0.185  54.272  1.00  0.00     0.210 C 
ENDBRANCH  25  27
ENDBRANCH  20  21
ENDBRANCH  17  19
ENDBRANCH   1  17
TORSDOF 6
ENDMDL
MODEL 8
REMARK VINA RESULT:      -8.3      3.805      5.693
REMARK  6 active torsions:
REMARK  status: ('A' for Active; 'I' for Inactive)
REMARK    1  A    between atoms: O1_2  and  C2_3 
REMARK    2  A    between atoms: C6_7  and  C7_8 
REMARK    3  A    between atoms: C8_9  and  C9_10 
REMARK    4  A    between atoms: C9_10  and  C10_12 
REMARK    5  A    between atoms: C11_13  and  C12_14 
REMARK    6  A    between atoms: C15_17  and  C16_18 
ROOT
HETATM    1  C10 UNL     1      24.163   5.363  49.458  1.00  0.00     0.055 C 
HETATM    2  C11 UNL     1      25.229   5.965  48.960  1.00  0.00     0.006 C 
ENDROOT
BRANCH   2   3
HETATM    3  C12 UNL     1      26.524   5.347  48.729  1.00  0.00     0.027 C 
HETATM    4  C13 UNL     1      27.707   5.920  48.555  1.00  0.00     0.041 A 
HETATM    5  C14 UNL     1      28.931   5.097  48.328  1.00  0.00     0.119 A 
HETATM    6  N2  UNL     1      27.713   7.360  48.599  1.00  0.00    -0.246 NA
HETATM    7  C15 UNL     1      30.067   5.999  48.161  1.00  0.00     0.051 A 
HETATM    8  N1  UNL     1      30.058   7.308  48.201  1.00  0.00    -0.245 NA
HETATM    9  C22 UNL     1      28.834   7.993  48.429  1.00  0.00     0.233 A 
BRANCH   7  10
HETATM   10  C16 UNL     1      31.368   5.380  47.917  1.00  0.00    -0.010 A 
HETATM   11  C17 UNL     1      31.454   4.222  47.133  1.00  0.00     0.013 A 
HETATM   12  C18 UNL     1      32.649   3.584  46.858  1.00  0.00     0.002 A 
HETATM   13  C19 UNL     1      33.824   4.098  47.374  1.00  0.00     0.019 A 
HETATM   14  C20 UNL     1      33.742   5.237  48.146  1.00  0.00     0.011 A 
HETATM   15 BR1  UNL     1      35.360   5.966  48.871  1.00  0.00    -0.051 Br
HETATM   16  C21 UNL     1      32.552   5.874  48.420  1.00  0.00     0.032 A 
ENDBRANCH   7  10
ENDBRANCH   2   3
BRANCH   1  17
HETATM   17  C9  UNL     1      23.595   4.147  49.972  1.00  0.00     0.172 C 
HETATM   18  O2  UNL     1      22.431   4.320  49.499  1.00  0.00    -0.289 OA
BRANCH  17  19
HETATM   19  C8  UNL     1      23.959   2.979  50.762  1.00  0.00     0.055 C 
HETATM   20  C7  UNL     1      24.457   3.030  51.981  1.00  0.00     0.015 C 
BRANCH  20  21
HETATM   21  C6  UNL     1      24.825   1.868  52.779  1.00  0.00    -0.034 A 
HETATM   22  C5  UNL     1      24.016   0.731  52.798  1.00  0.00     0.011 A 
HETATM   23  C4  UNL     1      24.386  -0.359  53.569  1.00  0.00     0.004 A 
HETATM   24  C3  UNL     1      25.556  -0.362  54.337  1.00  0.00     0.037 A 
HETATM   25  C2  UNL     1      26.386   0.753  54.342  1.00  0.00     0.069 A 
HETATM   26  C23 UNL     1      25.960   1.802  53.555  1.00  0.00     0.048 A 
BRANCH  25  27
HETATM   27  O1  UNL     1      27.567   0.842  55.072  1.00  0.00    -0.356 OA
HETATM   28  C1  UNL     1      28.645  -0.010  54.704  1.00  0.00     0.210 C 
ENDBRANCH  25  27
ENDBRANCH  20  21
ENDBRANCH  17  19
ENDBRANCH   1  17
TORSDOF 6
ENDMDL
MODEL 9
REMARK VINA RESULT:      -8.1      3.989      6.056
REMARK  6 active torsions:
REMARK  status: ('A' for Active; 'I' for Inactive)
REMARK    1  A    between atoms: O1_2  and  C2_3 
REMARK    2  A    between atoms: C6_7  and  C7_8 
REMARK    3  A    between atoms: C8_9  and  C9_10 
REMARK    4  A    between atoms: C9_10  and  C10_12 
REMARK    5  A    between atoms: C11_13  and  C12_14 
REMARK    6  A    between atoms: C15_17  and  C16_18 
ROOT
HETATM    1  C10 UNL     1      24.579   4.870  49.350  1.00  0.00     0.055 C 
HETATM    2  C11 UNL     1      25.548   5.659  48.921  1.00  0.00     0.006 C 
ENDROOT
BRANCH   2   3
HETATM    3  C12 UNL     1      26.919   5.255  48.654  1.00  0.00     0.027 C 
HETATM    4  C13 UNL     1      28.005   6.005  48.539  1.00  0.00     0.041 A 
HETATM    5  C14 UNL     1      29.335   5.388  48.259  1.00  0.00     0.119 A 
HETATM    6  N2  UNL     1      27.804   7.422  48.697  1.00  0.00    -0.246 NA
HETATM    7  C15 UNL     1      30.329   6.455  48.176  1.00  0.00     0.051 A 
HETATM    8  N1  UNL     1      30.131   7.741  48.320  1.00  0.00    -0.245 NA
HETATM    9  C22 UNL     1      28.821   8.222  48.589  1.00  0.00     0.233 A 
BRANCH   7  10
HETATM   10  C16 UNL     1      31.706   6.051  47.896  1.00  0.00    -0.010 A 
HETATM   11  C17 UNL     1      32.673   6.125  48.906  1.00  0.00     0.013 A 
HETATM   12  C18 UNL     1      33.992   5.758  48.716  1.00  0.00     0.002 A 
HETATM   13  C19 UNL     1      34.393   5.295  47.476  1.00  0.00     0.019 A 
HETATM   14  C20 UNL     1      33.442   5.222  46.480  1.00  0.00     0.011 A 
HETATM   15 BR1  UNL     1      33.977   4.583  44.754  1.00  0.00    -0.051 Br
HETATM   16  C21 UNL     1      32.128   5.587  46.669  1.00  0.00     0.032 A 
ENDBRANCH   7  10
ENDBRANCH   2   3
BRANCH   1  17
HETATM   17  C9  UNL     1      24.190   3.545  49.749  1.00  0.00     0.172 C 
HETATM   18  O2  UNL     1      23.509   3.276  48.713  1.00  0.00    -0.289 OA
BRANCH  17  19
HETATM   19  C8  UNL     1      24.354   2.606  50.849  1.00  0.00     0.055 C 
HETATM   20  C7  UNL     1      23.396   1.829  51.315  1.00  0.00     0.015 C 
BRANCH  20  21
HETATM   21  C6  UNL     1      23.549   0.888  52.415  1.00  0.00    -0.034 A 
HETATM   22  C5  UNL     1      22.431   0.368  53.071  1.00  0.00     0.011 A 
HETATM   23  C4  UNL     1      22.603  -0.521  54.117  1.00  0.00     0.004 A 
HETATM   24  C3  UNL     1      23.873  -0.925  54.548  1.00  0.00     0.037 A 
HETATM   25  C2  UNL     1      25.009  -0.428  53.919  1.00  0.00     0.069 A 
HETATM   26  C23 UNL     1      24.767   0.453  52.886  1.00  0.00     0.048 A 
BRANCH  25  27
HETATM   27  O1  UNL     1      26.309  -0.770  54.275  1.00  0.00    -0.356 OA
HETATM   28  C1  UNL     1      27.155   0.256  54.783  1.00  0.00     0.210 C 
ENDBRANCH  25  27
ENDBRANCH  20  21
ENDBRANCH  17  19
ENDBRANCH   1  17
TORSDOF 6
ENDMDL
