MODEL 1
REMARK VINA RESULT:      -9.0      0.000      0.000
REMARK  4 active torsions:
REMARK  status: ('A' for Active; 'I' for Inactive)
REMARK    1  A    between atoms: C7_11  and  S1_12 
REMARK    2  A    between atoms: S1_12  and  C8_13 
REMARK    3  A    between atoms: C8_13  and  C9_14 
REMARK    4  A    between atoms: C9_14  and  C10_15 
ROOT
HETATM    1  S1  UNL     1      24.562   3.173  49.797  1.00  0.00    -0.090 SA
ENDROOT
BRANCH   1   2
HETATM    2  C7  UNL     1      24.224   4.895  49.506  1.00  0.00     0.196 A 
HETATM    3  N3  UNL     1      22.996   5.400  49.684  1.00  0.00    -0.122 NA
HETATM    4  N2  UNL     1      22.991   6.700  49.406  1.00  0.00    -0.126 NA
HETATM    5  C6  UNL     1      24.266   7.005  49.044  1.00  0.00     0.198 A 
HETATM    6  C5  UNL     1      24.784   8.225  48.661  1.00  0.00     0.165 A 
HETATM    7  N6  UNL     1      25.012   5.901  49.107  1.00  0.00    -0.267 N 
HETATM    8  C4  UNL     1      26.118   8.325  48.327  1.00  0.00     0.057 A 
HETATM    9  F1  UNL     1      23.987   9.320  48.611  1.00  0.00    -0.202 F 
HETATM   10  C3  UNL     1      26.843   7.156  48.409  1.00  0.00    -0.007 A 
HETATM   11  C2  UNL     1      28.295   7.246  48.052  1.00  0.00     0.185 A 
HETATM   12  C19 UNL     1      26.304   5.951  48.795  1.00  0.00     0.070 A 
HETATM   13  N1  UNL     1      28.950   5.980  48.165  1.00  0.00    -0.306 N 
HETATM   14  C1  UNL     1      30.375   6.052  47.809  1.00  0.00     0.173 C 
HETATM   15  N7  UNL     1      28.358   4.761  48.566  1.00  0.00    -0.187 NA
HETATM   16  C20 UNL     1      27.103   4.752  48.863  1.00  0.00     0.169 A 
ENDBRANCH   1   2
BRANCH   1  17
HETATM   17  C8  UNL     1      25.247   2.935  51.442  1.00  0.00     0.083 C 
BRANCH  17  18
HETATM   18  C9  UNL     1      25.734   1.519  51.624  1.00  0.00     0.023 C 
BRANCH  18  19
HETATM   19  C10 UNL     1      25.466   1.001  53.034  1.00  0.00    -0.009 C 
HETATM   20  C11 UNL     1      23.951   0.743  53.082  1.00  0.00     0.018 C 
HETATM   21  C12 UNL     1      25.739   2.013  54.072  1.00  0.00     0.159 C 
HETATM   22  N4  UNL     1      27.035   2.620  54.079  1.00  0.00    -0.298 NA
HETATM   23  C13 UNL     1      28.230   2.097  53.917  1.00  0.00     0.142 C 
HETATM   24  C14 UNL     1      28.506   0.681  53.680  1.00  0.00     0.076 C 
HETATM   25  C15 UNL     1      29.775   0.313  53.777  1.00  0.00     0.166 C 
HETATM   26  N5  UNL     1      27.542  -0.317  53.357  1.00  0.00    -0.312 N 
HETATM   27  O1  UNL     1      30.246  -0.979  53.590  1.00  0.00    -0.352 OA
HETATM   28  C16 UNL     1      29.446  -2.045  53.127  1.00  0.00     0.277 C 
HETATM   29  C17 UNL     1      28.020  -1.657  53.161  1.00  0.00     0.248 C 
HETATM   30  O2  UNL     1      27.221  -2.602  53.003  1.00  0.00    -0.271 OA
HETATM   31  C18 UNL     1      26.106  -0.331  53.164  1.00  0.00     0.143 C 
ENDBRANCH  18  19
ENDBRANCH  17  18
ENDBRANCH   1  17
TORSDOF 4
ENDMDL
MODEL 2
REMARK VINA RESULT:      -8.9      1.354      3.090
REMARK  4 active torsions:
REMARK  status: ('A' for Active; 'I' for Inactive)
REMARK    1  A    between atoms: C7_11  and  S1_12 
REMARK    2  A    between atoms: S1_12  and  C8_13 
REMARK    3  A    between atoms: C8_13  and  C9_14 
REMARK    4  A    between atoms: C9_14  and  C10_15 
ROOT
HETATM    1  S1  UNL     1      24.730   3.338  49.769  1.00  0.00    -0.090 SA
ENDROOT
BRANCH   1   2
HETATM    2  C7  UNL     1      26.115   4.300  49.199  1.00  0.00     0.196 A 
HETATM    3  N3  UNL     1      27.344   3.773  49.132  1.00  0.00    -0.122 NA
HETATM    4  N2  UNL     1      28.206   4.678  48.681  1.00  0.00    -0.126 NA
HETATM    5  C6  UNL     1      27.477   5.806  48.461  1.00  0.00     0.198 A 
HETATM    6  C5  UNL     1      27.905   7.030  47.991  1.00  0.00     0.165 A 
HETATM    7  N6  UNL     1      26.204   5.568  48.779  1.00  0.00    -0.267 N 
HETATM    8  C4  UNL     1      26.997   8.057  47.839  1.00  0.00     0.057 A 
HETATM    9  F1  UNL     1      29.210   7.224  47.680  1.00  0.00    -0.202 F 
HETATM   10  C3  UNL     1      25.696   7.759  48.182  1.00  0.00    -0.007 A 
HETATM   11  C2  UNL     1      24.696   8.863  48.021  1.00  0.00     0.185 A 
HETATM   12  C19 UNL     1      25.294   6.529  48.648  1.00  0.00     0.070 A 
HETATM   13  N1  UNL     1      23.382   8.450  48.409  1.00  0.00    -0.306 N 
HETATM   14  C1  UNL     1      22.391   9.526  48.265  1.00  0.00     0.173 C 
HETATM   15  N7  UNL     1      23.009   7.173  48.884  1.00  0.00    -0.187 NA
HETATM   16  C20 UNL     1      23.919   6.265  48.997  1.00  0.00     0.169 A 
ENDBRANCH   1   2
BRANCH   1  17
HETATM   17  C8  UNL     1      24.924   2.924  51.507  1.00  0.00     0.083 C 
BRANCH  17  18
HETATM   18  C9  UNL     1      25.581   1.575  51.670  1.00  0.00     0.023 C 
BRANCH  18  19
HETATM   19  C10 UNL     1      25.359   0.999  53.066  1.00  0.00    -0.009 C 
HETATM   20  C11 UNL     1      23.853   0.696  53.136  1.00  0.00     0.018 C 
HETATM   21  C12 UNL     1      25.626   1.979  54.135  1.00  0.00     0.159 C 
HETATM   22  N4  UNL     1      26.905   2.622  54.136  1.00  0.00    -0.298 NA
HETATM   23  C13 UNL     1      28.110   2.140  53.930  1.00  0.00     0.142 C 
HETATM   24  C14 UNL     1      28.420   0.742  53.633  1.00  0.00     0.076 C 
HETATM   25  C15 UNL     1      29.700   0.407  53.690  1.00  0.00     0.166 C 
HETATM   26  N5  UNL     1      27.477  -0.270  53.294  1.00  0.00    -0.312 N 
HETATM   27  O1  UNL     1      30.203  -0.863  53.444  1.00  0.00    -0.352 OA
HETATM   28  C16 UNL     1      29.423  -1.934  52.959  1.00  0.00     0.277 C 
HETATM   29  C17 UNL     1      27.988  -1.588  53.039  1.00  0.00     0.248 C 
HETATM   30  O2  UNL     1      27.211  -2.549  52.862  1.00  0.00    -0.271 OA
HETATM   31  C18 UNL     1      26.038  -0.319  53.132  1.00  0.00     0.143 C 
ENDBRANCH  18  19
ENDBRANCH  17  18
ENDBRANCH   1  17
TORSDOF 4
ENDMDL
MODEL 3
REMARK VINA RESULT:      -8.7      4.653      9.432
REMARK  4 active torsions:
REMARK  status: ('A' for Active; 'I' for Inactive)
REMARK    1  A    between atoms: C7_11  and  S1_12 
REMARK    2  A    between atoms: S1_12  and  C8_13 
REMARK    3  A    between atoms: C8_13  and  C9_14 
REMARK    4  A    between atoms: C9_14  and  C10_15 
ROOT
HETATM    1  S1  UNL     1      25.115   3.025  50.613  1.00  0.00    -0.090 SA
ENDROOT
BRANCH   1   2
HETATM    2  C7  UNL     1      26.193   2.269  51.810  1.00  0.00     0.196 A 
HETATM    3  N3  UNL     1      27.493   2.587  51.871  1.00  0.00    -0.122 NA
HETATM    4  N2  UNL     1      28.088   1.897  52.839  1.00  0.00    -0.126 NA
HETATM    5  C6  UNL     1      27.115   1.126  53.395  1.00  0.00     0.198 A 
HETATM    6  C5  UNL     1      27.218   0.230  54.438  1.00  0.00     0.165 A 
HETATM    7  N6  UNL     1      25.963   1.358  52.763  1.00  0.00    -0.267 N 
HETATM    8  C4  UNL     1      26.101  -0.462  54.855  1.00  0.00     0.057 A 
HETATM    9  F1  UNL     1      28.411   0.027  55.049  1.00  0.00    -0.202 F 
HETATM   10  C3  UNL     1      24.937  -0.186  54.170  1.00  0.00    -0.007 A 
HETATM   11  C2  UNL     1      23.712  -0.927  54.612  1.00  0.00     0.185 A 
HETATM   12  C19 UNL     1      24.860   0.714  53.133  1.00  0.00     0.070 A 
HETATM   13  N1  UNL     1      22.566  -0.571  53.833  1.00  0.00    -0.306 N 
HETATM   14  C1  UNL     1      21.358  -1.298  54.250  1.00  0.00     0.173 C 
HETATM   15  N7  UNL     1      22.528   0.361  52.773  1.00  0.00    -0.187 NA
HETATM   16  C20 UNL     1      23.618   0.968  52.444  1.00  0.00     0.169 A 
ENDBRANCH   1   2
BRANCH   1  17
HETATM   17  C8  UNL     1      26.027   4.189  49.591  1.00  0.00     0.083 C 
BRANCH  17  18
HETATM   18  C9  UNL     1      25.095   5.183  48.944  1.00  0.00     0.023 C 
BRANCH  18  19
HETATM   19  C10 UNL     1      25.709   6.579  48.876  1.00  0.00    -0.009 C 
HETATM   20  C11 UNL     1      27.150   6.356  48.387  1.00  0.00     0.018 C 
HETATM   21  C12 UNL     1      25.824   7.214  50.202  1.00  0.00     0.159 C 
HETATM   22  N4  UNL     1      24.635   7.308  50.994  1.00  0.00    -0.298 NA
HETATM   23  C13 UNL     1      23.405   7.634  50.664  1.00  0.00     0.142 C 
HETATM   24  C14 UNL     1      22.960   7.996  49.319  1.00  0.00     0.076 C 
HETATM   25  C15 UNL     1      21.746   8.517  49.231  1.00  0.00     0.166 C 
HETATM   26  N5  UNL     1      23.711   7.837  48.119  1.00  0.00    -0.312 N 
HETATM   27  O1  UNL     1      21.139   8.927  48.052  1.00  0.00    -0.352 OA
HETATM   28  C16 UNL     1      21.687   8.704  46.771  1.00  0.00     0.277 C 
HETATM   29  C17 UNL     1      23.090   8.258  46.893  1.00  0.00     0.248 C 
HETATM   30  O2  UNL     1      23.734   8.267  45.824  1.00  0.00    -0.271 OA
HETATM   31  C18 UNL     1      25.027   7.328  47.792  1.00  0.00     0.143 C 
ENDBRANCH  18  19
ENDBRANCH  17  18
ENDBRANCH   1  17
TORSDOF 4
ENDMDL
MODEL 4
REMARK VINA RESULT:      -8.7      4.161      8.825
REMARK  4 active torsions:
REMARK  status: ('A' for Active; 'I' for Inactive)
REMARK    1  A    between atoms: C7_11  and  S1_12 
REMARK    2  A    between atoms: S1_12  and  C8_13 
REMARK    3  A    between atoms: C8_13  and  C9_14 
REMARK    4  A    between atoms: C9_14  and  C10_15 
ROOT
HETATM    1  S1  UNL     1      24.800   3.060  50.346  1.00  0.00    -0.090 SA
ENDROOT
BRANCH   1   2
HETATM    2  C7  UNL     1      25.909   2.336  51.534  1.00  0.00     0.196 A 
HETATM    3  N3  UNL     1      27.204   2.677  51.571  1.00  0.00    -0.122 NA
HETATM    4  N2  UNL     1      27.826   2.007  52.536  1.00  0.00    -0.126 NA
HETATM    5  C6  UNL     1      26.875   1.226  53.116  1.00  0.00     0.198 A 
HETATM    6  C5  UNL     1      27.010   0.342  54.166  1.00  0.00     0.165 A 
HETATM    7  N6  UNL     1      25.710   1.432  52.500  1.00  0.00    -0.267 N 
HETATM    8  C4  UNL     1      25.911  -0.364  54.608  1.00  0.00     0.057 A 
HETATM    9  F1  UNL     1      28.215   0.166  54.761  1.00  0.00    -0.202 F 
HETATM   10  C3  UNL     1      24.732  -0.114  53.939  1.00  0.00    -0.007 A 
HETATM   11  C2  UNL     1      23.527  -0.871  54.408  1.00  0.00     0.185 A 
HETATM   12  C19 UNL     1      24.623   0.773  52.894  1.00  0.00     0.070 A 
HETATM   13  N1  UNL     1      22.363  -0.543  53.643  1.00  0.00    -0.306 N 
HETATM   14  C1  UNL     1      21.174  -1.285  54.087  1.00  0.00     0.173 C 
HETATM   15  N7  UNL     1      22.293   0.377  52.574  1.00  0.00    -0.187 NA
HETATM   16  C20 UNL     1      23.367   0.999  52.221  1.00  0.00     0.169 A 
ENDBRANCH   1   2
BRANCH   1  17
HETATM   17  C8  UNL     1      25.575   4.466  49.536  1.00  0.00     0.083 C 
BRANCH  17  18
HETATM   18  C9  UNL     1      25.075   5.766  50.116  1.00  0.00     0.023 C 
BRANCH  18  19
HETATM   19  C10 UNL     1      24.464   6.668  49.048  1.00  0.00    -0.009 C 
HETATM   20  C11 UNL     1      25.643   7.074  48.149  1.00  0.00     0.018 C 
HETATM   21  C12 UNL     1      23.927   7.924  49.605  1.00  0.00     0.159 C 
HETATM   22  N4  UNL     1      22.978   7.821  50.672  1.00  0.00    -0.298 NA
HETATM   23  C13 UNL     1      21.953   7.014  50.836  1.00  0.00     0.142 C 
HETATM   24  C14 UNL     1      21.537   5.977  49.893  1.00  0.00     0.076 C 
HETATM   25  C15 UNL     1      20.352   5.429  50.120  1.00  0.00     0.166 C 
HETATM   26  N5  UNL     1      22.287   5.514  48.774  1.00  0.00    -0.312 N 
HETATM   27  O1  UNL     1      19.775   4.432  49.346  1.00  0.00    -0.352 OA
HETATM   28  C16 UNL     1      20.445   3.768  48.297  1.00  0.00     0.277 C 
HETATM   29  C17 UNL     1      21.697   4.481  47.968  1.00  0.00     0.248 C 
HETATM   30  O2  UNL     1      22.237   4.119  46.903  1.00  0.00    -0.271 OA
HETATM   31  C18 UNL     1      23.576   5.838  48.198  1.00  0.00     0.143 C 
ENDBRANCH  18  19
ENDBRANCH  17  18
ENDBRANCH   1  17
TORSDOF 4
ENDMDL
MODEL 5
REMARK VINA RESULT:      -8.6      3.502      5.243
REMARK  4 active torsions:
REMARK  status: ('A' for Active; 'I' for Inactive)
REMARK    1  A    between atoms: C7_11  and  S1_12 
REMARK    2  A    between atoms: S1_12  and  C8_13 
REMARK    3  A    between atoms: C8_13  and  C9_14 
REMARK    4  A    between atoms: C9_14  and  C10_15 
ROOT
HETATM    1  S1  UNL     1      22.675   4.742  52.148  1.00  0.00    -0.090 SA
ENDROOT
BRANCH   1   2
HETATM    2  C7  UNL     1      24.174   4.465  51.231  1.00  0.00     0.196 A 
HETATM    3  N3  UNL     1      24.911   3.363  51.423  1.00  0.00    -0.122 NA
HETATM    4  N2  UNL     1      25.977   3.380  50.629  1.00  0.00    -0.126 NA
HETATM    5  C6  UNL     1      25.890   4.538  49.920  1.00  0.00     0.198 A 
HETATM    6  C5  UNL     1      26.752   5.026  48.960  1.00  0.00     0.165 A 
HETATM    7  N6  UNL     1      24.789   5.193  50.292  1.00  0.00    -0.267 N 
HETATM    8  C4  UNL     1      26.483   6.235  48.353  1.00  0.00     0.057 A 
HETATM    9  F1  UNL     1      27.859   4.324  48.615  1.00  0.00    -0.202 F 
HETATM   10  C3  UNL     1      25.334   6.871  48.773  1.00  0.00    -0.007 A 
HETATM   11  C2  UNL     1      25.025   8.185  48.123  1.00  0.00     0.185 A 
HETATM   12  C19 UNL     1      24.490   6.363  49.732  1.00  0.00     0.070 A 
HETATM   13  N1  UNL     1      23.819   8.760  48.635  1.00  0.00    -0.306 N 
HETATM   14  C1  UNL     1      23.508  10.055  48.012  1.00  0.00     0.173 C 
HETATM   15  N7  UNL     1      22.977   8.204  49.623  1.00  0.00    -0.187 NA
HETATM   16  C20 UNL     1      23.299   7.067  50.141  1.00  0.00     0.169 A 
ENDBRANCH   1   2
BRANCH   1  17
HETATM   17  C8  UNL     1      21.319   3.799  51.438  1.00  0.00     0.083 C 
BRANCH  17  18
HETATM   18  C9  UNL     1      21.099   2.514  52.198  1.00  0.00     0.023 C 
BRANCH  18  19
HETATM   19  C10 UNL     1      21.409   1.287  51.345  1.00  0.00    -0.009 C 
HETATM   20  C11 UNL     1      21.828   1.850  49.977  1.00  0.00     0.018 C 
HETATM   21  C12 UNL     1      20.218   0.455  51.094  1.00  0.00     0.159 C 
HETATM   22  N4  UNL     1      19.473   0.008  52.232  1.00  0.00    -0.298 NA
HETATM   23  C13 UNL     1      19.874  -0.469  53.389  1.00  0.00     0.142 C 
HETATM   24  C14 UNL     1      21.269  -0.657  53.787  1.00  0.00     0.076 C 
HETATM   25  C15 UNL     1      21.467  -1.363  54.889  1.00  0.00     0.166 C 
HETATM   26  N5  UNL     1      22.410  -0.152  53.099  1.00  0.00    -0.312 N 
HETATM   27  O1  UNL     1      22.710  -1.656  55.434  1.00  0.00    -0.352 OA
HETATM   28  C16 UNL     1      23.922  -1.112  54.959  1.00  0.00     0.277 C 
HETATM   29  C17 UNL     1      23.700  -0.450  53.656  1.00  0.00     0.248 C 
HETATM   30  O2  UNL     1      24.744  -0.150  53.041  1.00  0.00    -0.271 OA
HETATM   31  C18 UNL     1      22.620   0.636  51.901  1.00  0.00     0.143 C 
ENDBRANCH  18  19
ENDBRANCH  17  18
ENDBRANCH   1  17
TORSDOF 4
ENDMDL
MODEL 6
REMARK VINA RESULT:      -8.6      4.770      9.021
REMARK  4 active torsions:
REMARK  status: ('A' for Active; 'I' for Inactive)
REMARK    1  A    between atoms: C7_11  and  S1_12 
REMARK    2  A    between atoms: S1_12  and  C8_13 
REMARK    3  A    between atoms: C8_13  and  C9_14 
REMARK    4  A    between atoms: C9_14  and  C10_15 
ROOT
HETATM    1  S1  UNL     1      25.225   2.762  50.361  1.00  0.00    -0.090 SA
ENDROOT
BRANCH   1   2
HETATM    2  C7  UNL     1      26.290   2.201  51.670  1.00  0.00     0.196 A 
HETATM    3  N3  UNL     1      27.560   2.619  51.758  1.00  0.00    -0.122 NA
HETATM    4  N2  UNL     1      28.152   2.066  52.812  1.00  0.00    -0.126 NA
HETATM    5  C6  UNL     1      27.207   1.279  53.395  1.00  0.00     0.198 A 
HETATM    6  C5  UNL     1      27.320   0.492  54.522  1.00  0.00     0.165 A 
HETATM    7  N6  UNL     1      26.076   1.367  52.694  1.00  0.00    -0.267 N 
HETATM    8  C4  UNL     1      26.233  -0.240  54.954  1.00  0.00     0.057 A 
HETATM    9  F1  UNL     1      28.491   0.435  55.202  1.00  0.00    -0.202 F 
HETATM   10  C3  UNL     1      25.089  -0.114  54.194  1.00  0.00    -0.007 A 
HETATM   11  C2  UNL     1      23.898  -0.900  54.650  1.00  0.00     0.185 A 
HETATM   12  C19 UNL     1      25.002   0.679  53.075  1.00  0.00     0.070 A 
HETATM   13  N1  UNL     1      22.771  -0.703  53.791  1.00  0.00    -0.306 N 
HETATM   14  C1  UNL     1      21.597  -1.476  54.221  1.00  0.00     0.173 C 
HETATM   15  N7  UNL     1      22.723   0.123  52.646  1.00  0.00    -0.187 NA
HETATM   16  C20 UNL     1      23.783   0.777  52.310  1.00  0.00     0.169 A 
ENDBRANCH   1   2
BRANCH   1  17
HETATM   17  C8  UNL     1      25.146   4.558  50.338  1.00  0.00     0.083 C 
BRANCH  17  18
HETATM   18  C9  UNL     1      23.772   5.033  49.935  1.00  0.00     0.023 C 
BRANCH  18  19
HETATM   19  C10 UNL     1      23.156   5.953  50.985  1.00  0.00    -0.009 C 
HETATM   20  C11 UNL     1      24.172   7.094  51.159  1.00  0.00     0.018 C 
HETATM   21  C12 UNL     1      23.040   5.309  52.307  1.00  0.00     0.159 C 
HETATM   22  N4  UNL     1      22.346   4.058  52.373  1.00  0.00    -0.298 NA
HETATM   23  C13 UNL     1      21.230   3.663  51.801  1.00  0.00     0.142 C 
HETATM   24  C14 UNL     1      20.403   4.477  50.912  1.00  0.00     0.076 C 
HETATM   25  C15 UNL     1      19.206   3.990  50.626  1.00  0.00     0.166 C 
HETATM   26  N5  UNL     1      20.773   5.728  50.338  1.00  0.00    -0.312 N 
HETATM   27  O1  UNL     1      18.271   4.605  49.804  1.00  0.00    -0.352 OA
HETATM   28  C16 UNL     1      18.536   5.767  49.050  1.00  0.00     0.277 C 
HETATM   29  C17 UNL     1      19.812   6.372  49.487  1.00  0.00     0.248 C 
HETATM   30  O2  UNL     1      20.016   7.525  49.054  1.00  0.00    -0.271 OA
HETATM   31  C18 UNL     1      21.946   6.577  50.397  1.00  0.00     0.143 C 
ENDBRANCH  18  19
ENDBRANCH  17  18
ENDBRANCH   1  17
TORSDOF 4
ENDMDL
MODEL 7
REMARK VINA RESULT:      -8.4      4.284      9.068
REMARK  4 active torsions:
REMARK  status: ('A' for Active; 'I' for Inactive)
REMARK    1  A    between atoms: C7_11  and  S1_12 
REMARK    2  A    between atoms: S1_12  and  C8_13 
REMARK    3  A    between atoms: C8_13  and  C9_14 
REMARK    4  A    between atoms: C9_14  and  C10_15 
ROOT
HETATM    1  S1  UNL     1      24.854   3.346  49.989  1.00  0.00    -0.090 SA
ENDROOT
BRANCH   1   2
HETATM    2  C7  UNL     1      25.859   2.542  51.218  1.00  0.00     0.196 A 
HETATM    3  N3  UNL     1      27.170   2.801  51.318  1.00  0.00    -0.122 NA
HETATM    4  N2  UNL     1      27.703   2.084  52.302  1.00  0.00    -0.126 NA
HETATM    5  C6  UNL     1      26.679   1.359  52.828  1.00  0.00     0.198 A 
HETATM    6  C5  UNL     1      26.710   0.458  53.872  1.00  0.00     0.165 A 
HETATM    7  N6  UNL     1      25.559   1.643  52.162  1.00  0.00    -0.267 N 
HETATM    8  C4  UNL     1      25.550  -0.182  54.255  1.00  0.00     0.057 A 
HETATM    9  F1  UNL     1      27.873   0.201  54.519  1.00  0.00    -0.202 F 
HETATM   10  C3  UNL     1      24.422   0.147  53.535  1.00  0.00    -0.007 A 
HETATM   11  C2  UNL     1      23.151  -0.537  53.938  1.00  0.00     0.185 A 
HETATM   12  C19 UNL     1      24.417   1.049  52.497  1.00  0.00     0.070 A 
HETATM   13  N1  UNL     1      22.047  -0.130  53.126  1.00  0.00    -0.306 N 
HETATM   14  C1  UNL     1      20.795  -0.800  53.504  1.00  0.00     0.173 C 
HETATM   15  N7  UNL     1      22.084   0.804  52.066  1.00  0.00    -0.187 NA
HETATM   16  C20 UNL     1      23.210   1.360  51.771  1.00  0.00     0.169 A 
ENDBRANCH   1   2
BRANCH   1  17
HETATM   17  C8  UNL     1      24.525   5.049  50.461  1.00  0.00     0.083 C 
BRANCH  17  18
HETATM   18  C9  UNL     1      25.037   6.008  49.414  1.00  0.00     0.023 C 
BRANCH  18  19
HETATM   19  C10 UNL     1      24.423   7.397  49.565  1.00  0.00    -0.009 C 
HETATM   20  C11 UNL     1      23.485   7.287  50.778  1.00  0.00     0.018 C 
HETATM   21  C12 UNL     1      23.568   7.767  48.422  1.00  0.00     0.159 C 
HETATM   22  N4  UNL     1      24.146   7.694  47.114  1.00  0.00    -0.298 NA
HETATM   23  C13 UNL     1      25.328   8.064  46.674  1.00  0.00     0.142 C 
HETATM   24  C14 UNL     1      26.378   8.673  47.489  1.00  0.00     0.076 C 
HETATM   25  C15 UNL     1      27.401   9.188  46.825  1.00  0.00     0.166 C 
HETATM   26  N5  UNL     1      26.392   8.755  48.911  1.00  0.00    -0.312 N 
HETATM   27  O1  UNL     1      28.498   9.810  47.407  1.00  0.00    -0.352 OA
HETATM   28  C16 UNL     1      28.731   9.843  48.799  1.00  0.00     0.277 C 
HETATM   29  C17 UNL     1      27.522   9.396  49.523  1.00  0.00     0.248 C 
HETATM   30  O2  UNL     1      27.542   9.617  50.751  1.00  0.00    -0.271 OA
HETATM   31  C18 UNL     1      25.500   8.333  49.972  1.00  0.00     0.143 C 
ENDBRANCH  18  19
ENDBRANCH  17  18
ENDBRANCH   1  17
TORSDOF 4
ENDMDL
MODEL 8
REMARK VINA RESULT:      -8.4      4.247      8.566
REMARK  4 active torsions:
REMARK  status: ('A' for Active; 'I' for Inactive)
REMARK    1  A    between atoms: C7_11  and  S1_12 
REMARK    2  A    between atoms: S1_12  and  C8_13 
REMARK    3  A    between atoms: C8_13  and  C9_14 
REMARK    4  A    between atoms: C9_14  and  C10_15 
ROOT
HETATM    1  S1  UNL     1      24.842   3.323  49.867  1.00  0.00    -0.090 SA
ENDROOT
BRANCH   1   2
HETATM    2  C7  UNL     1      23.996   2.151  50.903  1.00  0.00     0.196 A 
HETATM    3  N3  UNL     1      22.696   1.878  50.724  1.00  0.00    -0.122 NA
HETATM    4  N2  UNL     1      22.290   0.978  51.613  1.00  0.00    -0.126 NA
HETATM    5  C6  UNL     1      23.384   0.685  52.368  1.00  0.00     0.198 A 
HETATM    6  C5  UNL     1      23.489  -0.194  53.426  1.00  0.00     0.165 A 
HETATM    7  N6  UNL     1      24.419   1.403  51.930  1.00  0.00    -0.267 N 
HETATM    8  C4  UNL     1      24.701  -0.347  54.066  1.00  0.00     0.057 A 
HETATM    9  F1  UNL     1      22.409  -0.903  53.836  1.00  0.00    -0.202 F 
HETATM   10  C3  UNL     1      25.737   0.417  53.575  1.00  0.00    -0.007 A 
HETATM   11  C2  UNL     1      27.061   0.262  54.258  1.00  0.00     0.185 A 
HETATM   12  C19 UNL     1      25.607   1.286  52.518  1.00  0.00     0.070 A 
HETATM   13  N1  UNL     1      28.061   1.102  53.675  1.00  0.00    -0.306 N 
HETATM   14  C1  UNL     1      29.365   0.966  54.341  1.00  0.00     0.173 C 
HETATM   15  N7  UNL     1      27.886   1.984  52.586  1.00  0.00    -0.187 NA
HETATM   16  C20 UNL     1      26.720   2.068  52.040  1.00  0.00     0.169 A 
ENDBRANCH   1   2
BRANCH   1  17
HETATM   17  C8  UNL     1      24.475   5.004  50.389  1.00  0.00     0.083 C 
BRANCH  17  18
HETATM   18  C9  UNL     1      25.030   6.007  49.407  1.00  0.00     0.023 C 
BRANCH  18  19
HETATM   19  C10 UNL     1      24.388   7.381  49.573  1.00  0.00    -0.009 C 
HETATM   20  C11 UNL     1      23.460   7.243  50.791  1.00  0.00     0.018 C 
HETATM   21  C12 UNL     1      23.518   7.742  48.438  1.00  0.00     0.159 C 
HETATM   22  N4  UNL     1      24.088   7.691  47.126  1.00  0.00    -0.298 NA
HETATM   23  C13 UNL     1      25.259   8.090  46.681  1.00  0.00     0.142 C 
HETATM   24  C14 UNL     1      26.302   8.715  47.494  1.00  0.00     0.076 C 
HETATM   25  C15 UNL     1      27.309   9.256  46.827  1.00  0.00     0.166 C 
HETATM   26  N5  UNL     1      26.323   8.786  48.917  1.00  0.00    -0.312 N 
HETATM   27  O1  UNL     1      28.396   9.897  47.407  1.00  0.00    -0.352 OA
HETATM   28  C16 UNL     1      28.637   9.925  48.797  1.00  0.00     0.277 C 
HETATM   29  C17 UNL     1      27.443   9.447  49.526  1.00  0.00     0.248 C 
HETATM   30  O2  UNL     1      27.466   9.659  50.756  1.00  0.00    -0.271 OA
HETATM   31  C18 UNL     1      25.447   8.337  49.980  1.00  0.00     0.143 C 
ENDBRANCH  18  19
ENDBRANCH  17  18
ENDBRANCH   1  17
TORSDOF 4
ENDMDL
MODEL 9
REMARK VINA RESULT:      -8.3      4.278      8.540
REMARK  4 active torsions:
REMARK  status: ('A' for Active; 'I' for Inactive)
REMARK    1  A    between atoms: C7_11  and  S1_12 
REMARK    2  A    between atoms: S1_12  and  C8_13 
REMARK    3  A    between atoms: C8_13  and  C9_14 
REMARK    4  A    between atoms: C9_14  and  C10_15 
ROOT
HETATM    1  S1  UNL     1      23.880   4.280  51.115  1.00  0.00    -0.090 SA
ENDROOT
BRANCH   1   2
HETATM    2  C7  UNL     1      25.108   3.027  51.413  1.00  0.00     0.196 A 
HETATM    3  N3  UNL     1      26.379   3.196  51.025  1.00  0.00    -0.122 NA
HETATM    4  N2  UNL     1      27.103   2.131  51.356  1.00  0.00    -0.126 NA
HETATM    5  C6  UNL     1      26.242   1.276  51.971  1.00  0.00     0.198 A 
HETATM    6  C5  UNL     1      26.501   0.029  52.502  1.00  0.00     0.165 A 
HETATM    7  N6  UNL     1      25.029   1.829  52.003  1.00  0.00    -0.267 N 
HETATM    8  C4  UNL     1      25.479  -0.687  53.088  1.00  0.00     0.057 A 
HETATM    9  F1  UNL     1      27.751  -0.492  52.446  1.00  0.00    -0.202 F 
HETATM   10  C3  UNL     1      24.245  -0.071  53.094  1.00  0.00    -0.007 A 
HETATM   11  C2  UNL     1      23.124  -0.835  53.730  1.00  0.00     0.185 A 
HETATM   12  C19 UNL     1      24.014   1.174  52.560  1.00  0.00     0.070 A 
HETATM   13  N1  UNL     1      21.891  -0.110  53.677  1.00  0.00    -0.306 N 
HETATM   14  C1  UNL     1      20.779  -0.851  54.289  1.00  0.00     0.173 C 
HETATM   15  N7  UNL     1      21.694   1.172  53.117  1.00  0.00    -0.187 NA
HETATM   16  C20 UNL     1      22.704   1.777  52.587  1.00  0.00     0.169 A 
ENDBRANCH   1   2
BRANCH   1  17
HETATM   17  C8  UNL     1      24.024   4.916  49.439  1.00  0.00     0.083 C 
BRANCH  17  18
HETATM   18  C9  UNL     1      23.031   6.026  49.196  1.00  0.00     0.023 C 
BRANCH  18  19
HETATM   19  C10 UNL     1      22.155   5.751  47.978  1.00  0.00    -0.009 C 
HETATM   20  C11 UNL     1      22.867   6.452  46.809  1.00  0.00     0.018 C 
HETATM   21  C12 UNL     1      20.825   6.381  48.080  1.00  0.00     0.159 C 
HETATM   22  N4  UNL     1      20.044   6.089  49.244  1.00  0.00    -0.298 NA
HETATM   23  C13 UNL     1      19.836   4.956  49.877  1.00  0.00     0.142 C 
HETATM   24  C14 UNL     1      20.399   3.661  49.498  1.00  0.00     0.076 C 
HETATM   25  C15 UNL     1      19.890   2.605  50.114  1.00  0.00     0.166 C 
HETATM   26  N5  UNL     1      21.433   3.447  48.541  1.00  0.00    -0.312 N 
HETATM   27  O1  UNL     1      20.284   1.291  49.898  1.00  0.00    -0.352 OA
HETATM   28  C16 UNL     1      21.385   0.926  49.096  1.00  0.00     0.277 C 
HETATM   29  C17 UNL     1      21.847   2.090  48.312  1.00  0.00     0.248 C 
HETATM   30  O2  UNL     1      22.653   1.816  47.400  1.00  0.00    -0.271 OA
HETATM   31  C18 UNL     1      22.226   4.299  47.679  1.00  0.00     0.143 C 
ENDBRANCH  18  19
ENDBRANCH  17  18
ENDBRANCH   1  17
TORSDOF 4
ENDMDL
