MODEL 1
REMARK VINA RESULT:      -8.2      0.000      0.000
REMARK  8 active torsions:
REMARK  status: ('A' for Active; 'I' for Inactive)
REMARK    1  A    between atoms: C3_3  and  C4_4 
REMARK    2  A    between atoms: C15_17  and  O1_18 
REMARK    3  A    between atoms: O1_18  and  C16_19 
REMARK    4  A    between atoms: C16_19  and  C17_20 
REMARK    5  A    between atoms: C19_22  and  O2_23 
REMARK    6  A    between atoms: O2_23  and  C20_24 
REMARK    7  A    between atoms: C20_24  and  C21_25 
REMARK    8  A    between atoms: C21_25  and  O3_26 
ROOT
HETATM    1  C1  UNL     1      27.555   6.114  48.289  1.00  0.00     0.012 C 
HETATM    2  C2  UNL     1      26.950   5.124  48.677  1.00  0.00    -0.114 C 
HETATM    3  C3  UNL     1      26.217   3.920  49.162  1.00  0.00     0.122 C 
ENDROOT
BRANCH   3   4
HETATM    4  C4  UNL     1      26.739   3.415  50.429  1.00  0.00     0.015 C 
HETATM    5  C5  UNL     1      26.609   2.919  51.584  1.00  0.00     0.036 C 
HETATM    6  N1  UNL     1      27.635   2.589  52.514  1.00  0.00    -0.355 N 
HETATM    7  C13 UNL     1      25.213   2.647  51.878  1.00  0.00    -0.025 C 
HETATM    8  C6  UNL     1      27.482   1.549  53.476  1.00  0.00     0.046 A 
HETATM    9  H5  UNL     1      28.514   3.092  52.459  1.00  0.00     0.166 HD
HETATM   10  C7  UNL     1      28.558   1.212  54.258  1.00  0.00     0.049 A 
HETATM   11  C10 UNL     1      26.420   0.647  53.725  1.00  0.00     0.019 A 
HETATM   12  C8  UNL     1      28.065   0.091  54.960  1.00  0.00     0.119 A 
HETATM   13  N2  UNL     1      26.914  -0.532  54.930  1.00  0.00    -0.260 NA
HETATM   14  C9  UNL     1      25.784  -0.414  54.288  1.00  0.00     0.071 A 
HETATM   15  C23 UNL     1      24.600  -0.426  53.745  1.00  0.00     0.071 C 
HETATM   16  C19 UNL     1      23.677   0.131  52.765  1.00  0.00     0.100 C 
HETATM   17  C15 UNL     1      23.490   1.061  51.809  1.00  0.00     0.084 C 
HETATM   18  C14 UNL     1      24.078   2.255  51.032  1.00  0.00     0.108 C 
HETATM   19  C11 UNL     1      25.248   1.483  53.753  1.00  0.00     0.017 C 
HETATM   20  C12 UNL     1      24.645   2.682  53.112  1.00  0.00     0.011 C 
BRANCH  16  21
HETATM   21  O2  UNL     1      22.590  -0.756  53.005  1.00  0.00    -0.346 OA
BRANCH  21  22
HETATM   22  C20 UNL     1      22.012  -0.844  54.290  1.00  0.00     0.201 C 
BRANCH  22  23
HETATM   23  C21 UNL     1      20.857   0.083  54.514  1.00  0.00     0.193 C 
BRANCH  23  24
HETATM   24  O3  UNL     1      20.106   0.047  53.323  1.00  0.00    -0.394 OA
HETATM   25  C22 UNL     1      19.073  -0.853  53.348  1.00  0.00     0.201 C 
ENDBRANCH  23  24
ENDBRANCH  22  23
ENDBRANCH  21  22
ENDBRANCH  16  21
BRANCH  17  26
HETATM   26  O1  UNL     1      22.234   0.934  51.232  1.00  0.00    -0.352 OA
BRANCH  26  27
HETATM   27  C16 UNL     1      21.839   1.899  50.274  1.00  0.00     0.175 C 
BRANCH  27  28
HETATM   28  C17 UNL     1      21.407   1.274  48.964  1.00  0.00     0.022 C 
HETATM   29  C18 UNL     1      22.181   1.798  47.784  1.00  0.00     0.007 C 
ENDBRANCH  27  28
ENDBRANCH  26  27
ENDBRANCH  17  26
ENDBRANCH   3   4
TORSDOF 8
ENDMDL
MODEL 2
REMARK VINA RESULT:      -8.1      2.248      5.316
REMARK  8 active torsions:
REMARK  status: ('A' for Active; 'I' for Inactive)
REMARK    1  A    between atoms: C3_3  and  C4_4 
REMARK    2  A    between atoms: C15_17  and  O1_18 
REMARK    3  A    between atoms: O1_18  and  C16_19 
REMARK    4  A    between atoms: C16_19  and  C17_20 
REMARK    5  A    between atoms: C19_22  and  O2_23 
REMARK    6  A    between atoms: O2_23  and  C20_24 
REMARK    7  A    between atoms: C20_24  and  C21_25 
REMARK    8  A    between atoms: C21_25  and  O3_26 
ROOT
HETATM    1  C1  UNL     1      29.107   1.745  54.159  1.00  0.00     0.012 C 
HETATM    2  C2  UNL     1      28.524   0.803  53.640  1.00  0.00    -0.114 C 
HETATM    3  C3  UNL     1      27.802  -0.339  53.012  1.00  0.00     0.122 C 
ENDROOT
BRANCH   3   4
HETATM    4  C4  UNL     1      26.428  -0.469  53.489  1.00  0.00     0.015 C 
HETATM    5  C5  UNL     1      25.233  -0.075  53.607  1.00  0.00     0.036 C 
HETATM    6  N1  UNL     1      24.165  -0.715  54.297  1.00  0.00    -0.355 N 
HETATM    7  C13 UNL     1      25.020   1.160  52.872  1.00  0.00    -0.025 C 
HETATM    8  C6  UNL     1      22.804  -0.549  53.910  1.00  0.00     0.046 A 
HETATM    9  H5  UNL     1      24.393  -1.337  55.065  1.00  0.00     0.166 HD
HETATM   10  C7  UNL     1      21.843  -1.292  54.549  1.00  0.00     0.049 A 
HETATM   11  C10 UNL     1      22.208   0.176  52.850  1.00  0.00     0.019 A 
HETATM   12  C8  UNL     1      20.683  -0.956  53.816  1.00  0.00     0.119 A 
HETATM   13  N2  UNL     1      20.488  -0.170  52.788  1.00  0.00    -0.260 NA
HETATM   14  C9  UNL     1      21.214   0.602  52.027  1.00  0.00     0.071 A 
HETATM   15  C23 UNL     1      21.792   1.417  51.192  1.00  0.00     0.071 C 
HETATM   16  C19 UNL     1      23.021   2.022  50.695  1.00  0.00     0.100 C 
HETATM   17  C15 UNL     1      24.357   2.117  50.839  1.00  0.00     0.084 C 
HETATM   18  C14 UNL     1      25.606   1.694  51.636  1.00  0.00     0.108 C 
HETATM   19  C11 UNL     1      22.834   1.472  52.917  1.00  0.00     0.017 C 
HETATM   20  C12 UNL     1      24.134   2.135  53.208  1.00  0.00     0.011 C 
BRANCH  16  21
HETATM   21  O2  UNL     1      22.446   2.771  49.631  1.00  0.00    -0.346 OA
BRANCH  21  22
HETATM   22  C20 UNL     1      21.481   3.766  49.900  1.00  0.00     0.201 C 
BRANCH  22  23
HETATM   23  C21 UNL     1      22.052   5.125  50.166  1.00  0.00     0.193 C 
BRANCH  23  24
HETATM   24  O3  UNL     1      22.271   5.179  51.556  1.00  0.00    -0.394 OA
HETATM   25  C22 UNL     1      23.535   5.575  51.902  1.00  0.00     0.201 C 
ENDBRANCH  23  24
ENDBRANCH  22  23
ENDBRANCH  21  22
ENDBRANCH  16  21
BRANCH  17  26
HETATM   26  O1  UNL     1      24.903   2.945  49.869  1.00  0.00    -0.352 OA
BRANCH  26  27
HETATM   27  C16 UNL     1      26.142   3.572  50.146  1.00  0.00     0.175 C 
BRANCH  27  28
HETATM   28  C17 UNL     1      26.350   4.832  49.332  1.00  0.00     0.022 C 
HETATM   29  C18 UNL     1      27.667   4.845  48.602  1.00  0.00     0.007 C 
ENDBRANCH  27  28
ENDBRANCH  26  27
ENDBRANCH  17  26
ENDBRANCH   3   4
TORSDOF 8
ENDMDL
MODEL 3
REMARK VINA RESULT:      -7.5      2.261      5.381
REMARK  8 active torsions:
REMARK  status: ('A' for Active; 'I' for Inactive)
REMARK    1  A    between atoms: C3_3  and  C4_4 
REMARK    2  A    between atoms: C15_17  and  O1_18 
REMARK    3  A    between atoms: O1_18  and  C16_19 
REMARK    4  A    between atoms: C16_19  and  C17_20 
REMARK    5  A    between atoms: C19_22  and  O2_23 
REMARK    6  A    between atoms: O2_23  and  C20_24 
REMARK    7  A    between atoms: C20_24  and  C21_25 
REMARK    8  A    between atoms: C21_25  and  O3_26 
ROOT
HETATM    1  C1  UNL     1      29.772  -0.964  53.870  1.00  0.00     0.012 C 
HETATM    2  C2  UNL     1      28.829  -0.526  53.226  1.00  0.00    -0.114 C 
HETATM    3  C3  UNL     1      27.672   0.005  52.452  1.00  0.00     0.122 C 
ENDROOT
BRANCH   3   4
HETATM    4  C4  UNL     1      26.390  -0.253  53.103  1.00  0.00     0.015 C 
HETATM    5  C5  UNL     1      25.190   0.028  53.380  1.00  0.00     0.036 C 
HETATM    6  N1  UNL     1      24.287  -0.707  54.198  1.00  0.00    -0.355 N 
HETATM    7  C13 UNL     1      24.768   1.236  52.692  1.00  0.00    -0.025 C 
HETATM    8  C6  UNL     1      22.877  -0.670  53.995  1.00  0.00     0.046 A 
HETATM    9  H5  UNL     1      24.670  -1.302  54.924  1.00  0.00     0.166 HD
HETATM   10  C7  UNL     1      22.082  -1.498  54.747  1.00  0.00     0.049 A 
HETATM   11  C10 UNL     1      22.082  -0.007  53.030  1.00  0.00     0.019 A 
HETATM   12  C8  UNL     1      20.810  -1.275  54.176  1.00  0.00     0.119 A 
HETATM   13  N2  UNL     1      20.408  -0.513  53.190  1.00  0.00    -0.260 NA
HETATM   14  C9  UNL     1      20.953   0.322  52.348  1.00  0.00     0.071 A 
HETATM   15  C23 UNL     1      21.338   1.185  51.452  1.00  0.00     0.071 C 
HETATM   16  C19 UNL     1      22.429   1.900  50.804  1.00  0.00     0.100 C 
HETATM   17  C15 UNL     1      23.757   2.121  50.773  1.00  0.00     0.084 C 
HETATM   18  C14 UNL     1      25.135   1.819  51.395  1.00  0.00     0.108 C 
HETATM   19  C11 UNL     1      22.588   1.342  53.025  1.00  0.00     0.017 C 
HETATM   20  C12 UNL     1      23.847   2.124  53.150  1.00  0.00     0.011 C 
BRANCH  16  21
HETATM   21  O2  UNL     1      21.652   2.589  49.831  1.00  0.00    -0.346 OA
BRANCH  21  22
HETATM   22  C20 UNL     1      20.822   1.871  48.942  1.00  0.00     0.201 C 
BRANCH  22  23
HETATM   23  C21 UNL     1      20.437   2.628  47.708  1.00  0.00     0.193 C 
BRANCH  23  24
HETATM   24  O3  UNL     1      21.478   3.550  47.488  1.00  0.00    -0.394 OA
HETATM   25  C22 UNL     1      21.908   3.600  46.189  1.00  0.00     0.201 C 
ENDBRANCH  23  24
ENDBRANCH  22  23
ENDBRANCH  21  22
ENDBRANCH  16  21
BRANCH  17  26
HETATM   26  O1  UNL     1      24.092   2.994  49.747  1.00  0.00    -0.352 OA
BRANCH  26  27
HETATM   27  C16 UNL     1      25.380   3.579  49.762  1.00  0.00     0.175 C 
BRANCH  27  28
HETATM   28  C17 UNL     1      25.335   5.087  49.629  1.00  0.00     0.022 C 
HETATM   29  C18 UNL     1      24.250   5.559  48.697  1.00  0.00     0.007 C 
ENDBRANCH  27  28
ENDBRANCH  26  27
ENDBRANCH  17  26
ENDBRANCH   3   4
TORSDOF 8
ENDMDL
MODEL 4
REMARK VINA RESULT:      -7.4      2.199      5.885
REMARK  8 active torsions:
REMARK  status: ('A' for Active; 'I' for Inactive)
REMARK    1  A    between atoms: C3_3  and  C4_4 
REMARK    2  A    between atoms: C15_17  and  O1_18 
REMARK    3  A    between atoms: O1_18  and  C16_19 
REMARK    4  A    between atoms: C16_19  and  C17_20 
REMARK    5  A    between atoms: C19_22  and  O2_23 
REMARK    6  A    between atoms: O2_23  and  C20_24 
REMARK    7  A    between atoms: C20_24  and  C21_25 
REMARK    8  A    between atoms: C21_25  and  O3_26 
ROOT
HETATM    1  C1  UNL     1      18.625   1.346  51.803  1.00  0.00     0.012 C 
HETATM    2  C2  UNL     1      19.282   1.269  50.774  1.00  0.00    -0.114 C 
HETATM    3  C3  UNL     1      20.092   1.182  49.526  1.00  0.00     0.122 C 
ENDROOT
BRANCH   3   4
HETATM    4  C4  UNL     1      21.216   2.114  49.517  1.00  0.00     0.015 C 
HETATM    5  C5  UNL     1      22.252   2.635  50.018  1.00  0.00     0.036 C 
HETATM    6  N1  UNL     1      23.062   3.670  49.470  1.00  0.00    -0.355 N 
HETATM    7  C13 UNL     1      22.598   1.997  51.276  1.00  0.00    -0.025 C 
HETATM    8  C6  UNL     1      24.452   3.783  49.765  1.00  0.00     0.046 A 
HETATM    9  H5  UNL     1      22.636   4.322  48.822  1.00  0.00     0.166 HD
HETATM   10  C7  UNL     1      25.190   4.734  49.107  1.00  0.00     0.049 A 
HETATM   11  C10 UNL     1      25.314   2.984  50.555  1.00  0.00     0.019 A 
HETATM   12  C8  UNL     1      26.498   4.448  49.556  1.00  0.00     0.119 A 
HETATM   13  N2  UNL     1      26.971   3.538  50.369  1.00  0.00    -0.260 NA
HETATM   14  C9  UNL     1      26.491   2.553  51.080  1.00  0.00     0.071 A 
HETATM   15  C23 UNL     1      26.173   1.552  51.848  1.00  0.00     0.071 C 
HETATM   16  C19 UNL     1      25.148   0.642  52.343  1.00  0.00     0.100 C 
HETATM   17  C15 UNL     1      23.844   0.306  52.314  1.00  0.00     0.084 C 
HETATM   18  C14 UNL     1      22.438   0.622  51.769  1.00  0.00     0.108 C 
HETATM   19  C11 UNL     1      24.591   2.799  51.786  1.00  0.00     0.017 C 
HETATM   20  C12 UNL     1      23.218   2.601  52.324  1.00  0.00     0.011 C 
BRANCH  16  21
HETATM   21  O2  UNL     1      25.991  -0.169  53.155  1.00  0.00    -0.346 OA
BRANCH  21  22
HETATM   22  C20 UNL     1      26.921  -1.048  52.560  1.00  0.00     0.201 C 
BRANCH  22  23
HETATM   23  C21 UNL     1      28.271  -1.052  53.209  1.00  0.00     0.193 C 
BRANCH  23  24
HETATM   24  O3  UNL     1      28.067  -0.555  54.511  1.00  0.00    -0.394 OA
HETATM   25  C22 UNL     1      28.837   0.537  54.813  1.00  0.00     0.201 C 
ENDBRANCH  23  24
ENDBRANCH  22  23
ENDBRANCH  21  22
ENDBRANCH  16  21
BRANCH  17  26
HETATM   26  O1  UNL     1      23.602  -0.812  53.099  1.00  0.00    -0.352 OA
BRANCH  26  27
HETATM   27  C16 UNL     1      22.273  -1.057  53.521  1.00  0.00     0.175 C 
BRANCH  27  28
HETATM   28  C17 UNL     1      22.157  -1.207  55.023  1.00  0.00     0.022 C 
HETATM   29  C18 UNL     1      23.491  -1.406  55.694  1.00  0.00     0.007 C 
ENDBRANCH  27  28
ENDBRANCH  26  27
ENDBRANCH  17  26
ENDBRANCH   3   4
TORSDOF 8
ENDMDL
MODEL 5
REMARK VINA RESULT:      -7.3      2.896      5.275
REMARK  8 active torsions:
REMARK  status: ('A' for Active; 'I' for Inactive)
REMARK    1  A    between atoms: C3_3  and  C4_4 
REMARK    2  A    between atoms: C15_17  and  O1_18 
REMARK    3  A    between atoms: O1_18  and  C16_19 
REMARK    4  A    between atoms: C16_19  and  C17_20 
REMARK    5  A    between atoms: C19_22  and  O2_23 
REMARK    6  A    between atoms: O2_23  and  C20_24 
REMARK    7  A    between atoms: C20_24  and  C21_25 
REMARK    8  A    between atoms: C21_25  and  O3_26 
ROOT
HETATM    1  C1  UNL     1      29.973   7.136  47.891  1.00  0.00     0.012 C 
HETATM    2  C2  UNL     1      29.206   6.230  48.184  1.00  0.00    -0.114 C 
HETATM    3  C3  UNL     1      28.260   5.134  48.538  1.00  0.00     0.122 C 
ENDROOT
BRANCH   3   4
HETATM    4  C4  UNL     1      26.882   5.599  48.677  1.00  0.00     0.015 C 
HETATM    5  C5  UNL     1      25.660   5.438  48.954  1.00  0.00     0.036 C 
HETATM    6  N1  UNL     1      24.615   6.402  48.891  1.00  0.00    -0.355 N 
HETATM    7  C13 UNL     1      25.411   4.088  49.429  1.00  0.00    -0.025 C 
HETATM    8  C6  UNL     1      23.468   6.333  49.734  1.00  0.00     0.046 A 
HETATM    9  H5  UNL     1      24.716   7.179  48.248  1.00  0.00     0.166 HD
HETATM   10  C7  UNL     1      22.562   7.363  49.697  1.00  0.00     0.049 A 
HETATM   11  C10 UNL     1      23.106   5.427  50.759  1.00  0.00     0.019 A 
HETATM   12  C8  UNL     1      21.674   7.004  50.734  1.00  0.00     0.119 A 
HETATM   13  N2  UNL     1      21.650   5.990  51.562  1.00  0.00    -0.260 NA
HETATM   14  C9  UNL     1      22.377   4.931  51.793  1.00  0.00     0.071 A 
HETATM   15  C23 UNL     1      22.983   3.832  52.140  1.00  0.00     0.071 C 
HETATM   16  C19 UNL     1      24.118   2.934  51.974  1.00  0.00     0.100 C 
HETATM   17  C15 UNL     1      25.259   2.688  51.302  1.00  0.00     0.084 C 
HETATM   18  C14 UNL     1      26.229   3.136  50.191  1.00  0.00     0.108 C 
HETATM   19  C11 UNL     1      23.334   4.129  50.177  1.00  0.00     0.017 C 
HETATM   20  C12 UNL     1      24.252   3.395  49.265  1.00  0.00     0.011 C 
BRANCH  16  21
HETATM   21  O2  UNL     1      23.771   2.001  52.990  1.00  0.00    -0.346 OA
BRANCH  21  22
HETATM   22  C20 UNL     1      22.614   1.202  52.859  1.00  0.00     0.201 C 
BRANCH  22  23
HETATM   23  C21 UNL     1      22.789  -0.217  53.305  1.00  0.00     0.193 C 
BRANCH  23  24
HETATM   24  O3  UNL     1      21.487  -0.736  53.442  1.00  0.00    -0.394 OA
HETATM   25  C22 UNL     1      21.371  -1.688  54.419  1.00  0.00     0.201 C 
ENDBRANCH  23  24
ENDBRANCH  22  23
ENDBRANCH  21  22
ENDBRANCH  16  21
BRANCH  17  26
HETATM   26  O1  UNL     1      25.880   1.543  51.779  1.00  0.00    -0.352 OA
BRANCH  26  27
HETATM   27  C16 UNL     1      27.175   1.667  52.336  1.00  0.00     0.175 C 
BRANCH  27  28
HETATM   28  C17 UNL     1      27.665   0.377  52.960  1.00  0.00     0.022 C 
HETATM   29  C18 UNL     1      26.798  -0.805  52.616  1.00  0.00     0.007 C 
ENDBRANCH  27  28
ENDBRANCH  26  27
ENDBRANCH  17  26
ENDBRANCH   3   4
TORSDOF 8
ENDMDL
MODEL 6
REMARK VINA RESULT:      -7.3      2.672      6.393
REMARK  8 active torsions:
REMARK  status: ('A' for Active; 'I' for Inactive)
REMARK    1  A    between atoms: C3_3  and  C4_4 
REMARK    2  A    between atoms: C15_17  and  O1_18 
REMARK    3  A    between atoms: O1_18  and  C16_19 
REMARK    4  A    between atoms: C16_19  and  C17_20 
REMARK    5  A    between atoms: C19_22  and  O2_23 
REMARK    6  A    between atoms: O2_23  and  C20_24 
REMARK    7  A    between atoms: C20_24  and  C21_25 
REMARK    8  A    between atoms: C21_25  and  O3_26 
ROOT
HETATM    1  C1  UNL     1      17.769  -2.829  53.751  1.00  0.00     0.012 C 
HETATM    2  C2  UNL     1      18.324  -1.779  53.459  1.00  0.00    -0.114 C 
HETATM    3  C3  UNL     1      19.012  -0.507  53.101  1.00  0.00     0.122 C 
ENDROOT
BRANCH   3   4
HETATM    4  C4  UNL     1      20.467  -0.608  53.185  1.00  0.00     0.015 C 
HETATM    5  C5  UNL     1      21.641  -0.242  52.897  1.00  0.00     0.036 C 
HETATM    6  N1  UNL     1      22.868  -0.807  53.344  1.00  0.00    -0.355 N 
HETATM    7  C13 UNL     1      21.622   0.933  52.043  1.00  0.00    -0.025 C 
HETATM    8  C6  UNL     1      24.059  -0.035  53.467  1.00  0.00     0.046 A 
HETATM    9  H5  UNL     1      22.876  -1.784  53.616  1.00  0.00     0.166 HD
HETATM   10  C7  UNL     1      25.170  -0.622  54.018  1.00  0.00     0.049 A 
HETATM   11  C10 UNL     1      24.318   1.338  53.242  1.00  0.00     0.019 A 
HETATM   12  C8  UNL     1      26.067   0.466  54.091  1.00  0.00     0.119 A 
HETATM   13  N2  UNL     1      25.952   1.726  53.758  1.00  0.00    -0.260 NA
HETATM   14  C9  UNL     1      25.029   2.497  53.248  1.00  0.00     0.071 A 
HETATM   15  C23 UNL     1      24.228   3.389  52.741  1.00  0.00     0.071 C 
HETATM   16  C19 UNL     1      22.903   3.726  52.239  1.00  0.00     0.100 C 
HETATM   17  C15 UNL     1      21.663   3.275  51.965  1.00  0.00     0.084 C 
HETATM   18  C14 UNL     1      20.700   2.072  51.940  1.00  0.00     0.108 C 
HETATM   19  C11 UNL     1      23.725   1.601  51.957  1.00  0.00     0.017 C 
HETATM   20  C12 UNL     1      22.557   1.243  51.106  1.00  0.00     0.011 C 
BRANCH  16  21
HETATM   21  O2  UNL     1      23.140   5.107  51.992  1.00  0.00    -0.346 OA
BRANCH  21  22
HETATM   22  C20 UNL     1      24.165   5.507  51.106  1.00  0.00     0.201 C 
BRANCH  22  23
HETATM   23  C21 UNL     1      24.382   6.987  51.040  1.00  0.00     0.193 C 
BRANCH  23  24
HETATM   24  O3  UNL     1      25.223   7.198  49.930  1.00  0.00    -0.394 OA
HETATM   25  C22 UNL     1      26.103   8.234  50.091  1.00  0.00     0.201 C 
ENDBRANCH  23  24
ENDBRANCH  22  23
ENDBRANCH  21  22
ENDBRANCH  16  21
BRANCH  17  26
HETATM   26  O1  UNL     1      20.853   4.300  51.498  1.00  0.00    -0.352 OA
BRANCH  26  27
HETATM   27  C16 UNL     1      20.111   4.078  50.313  1.00  0.00     0.175 C 
BRANCH  27  28
HETATM   28  C17 UNL     1      20.719   4.767  49.109  1.00  0.00     0.022 C 
HETATM   29  C18 UNL     1      21.886   4.010  48.531  1.00  0.00     0.007 C 
ENDBRANCH  27  28
ENDBRANCH  26  27
ENDBRANCH  17  26
ENDBRANCH   3   4
TORSDOF 8
ENDMDL
MODEL 7
REMARK VINA RESULT:      -7.2      2.502      5.438
REMARK  8 active torsions:
REMARK  status: ('A' for Active; 'I' for Inactive)
REMARK    1  A    between atoms: C3_3  and  C4_4 
REMARK    2  A    between atoms: C15_17  and  O1_18 
REMARK    3  A    between atoms: O1_18  and  C16_19 
REMARK    4  A    between atoms: C16_19  and  C17_20 
REMARK    5  A    between atoms: C19_22  and  O2_23 
REMARK    6  A    between atoms: O2_23  and  C20_24 
REMARK    7  A    between atoms: C20_24  and  C21_25 
REMARK    8  A    between atoms: C21_25  and  O3_26 
ROOT
HETATM    1  C1  UNL     1      26.601  -1.690  52.326  1.00  0.00     0.012 C 
HETATM    2  C2  UNL     1      26.642  -0.582  52.843  1.00  0.00    -0.114 C 
HETATM    3  C3  UNL     1      26.686   0.773  53.462  1.00  0.00     0.122 C 
ENDROOT
BRANCH   3   4
HETATM    4  C4  UNL     1      26.375   1.838  52.512  1.00  0.00     0.015 C 
HETATM    5  C5  UNL     1      25.604   2.458  51.727  1.00  0.00     0.036 C 
HETATM    6  N1  UNL     1      25.897   3.609  50.943  1.00  0.00    -0.355 N 
HETATM    7  C13 UNL     1      24.273   1.876  51.740  1.00  0.00    -0.025 C 
HETATM    8  C6  UNL     1      24.895   4.554  50.577  1.00  0.00     0.046 A 
HETATM    9  H5  UNL     1      26.860   3.773  50.670  1.00  0.00     0.166 HD
HETATM   10  C7  UNL     1      25.276   5.697  49.921  1.00  0.00     0.049 A 
HETATM   11  C10 UNL     1      23.513   4.624  50.878  1.00  0.00     0.019 A 
HETATM   12  C8  UNL     1      24.061   6.414  49.858  1.00  0.00     0.119 A 
HETATM   13  N2  UNL     1      22.855   6.143  50.290  1.00  0.00    -0.260 NA
HETATM   14  C9  UNL     1      22.268   5.167  50.927  1.00  0.00     0.071 A 
HETATM   15  C23 UNL     1      21.537   4.280  51.540  1.00  0.00     0.071 C 
HETATM   16  C19 UNL     1      21.459   3.014  52.255  1.00  0.00     0.100 C 
HETATM   17  C15 UNL     1      22.138   1.940  52.702  1.00  0.00     0.084 C 
HETATM   18  C14 UNL     1      23.492   1.207  52.788  1.00  0.00     0.108 C 
HETATM   19  C11 UNL     1      23.025   3.298  50.601  1.00  0.00     0.017 C 
HETATM   20  C12 UNL     1      23.408   1.863  50.691  1.00  0.00     0.011 C 
BRANCH  16  21
HETATM   21  O2  UNL     1      20.070   3.054  52.560  1.00  0.00    -0.346 OA
BRANCH  21  22
HETATM   22  C20 UNL     1      19.111   3.022  51.524  1.00  0.00     0.201 C 
BRANCH  22  23
HETATM   23  C21 UNL     1      18.623   1.649  51.176  1.00  0.00     0.193 C 
BRANCH  23  24
HETATM   24  O3  UNL     1      18.488   1.638  49.774  1.00  0.00    -0.394 OA
HETATM   25  C22 UNL     1      19.462   2.343  49.119  1.00  0.00     0.201 C 
ENDBRANCH  23  24
ENDBRANCH  22  23
ENDBRANCH  21  22
ENDBRANCH  16  21
BRANCH  17  26
HETATM   26  O1  UNL     1      21.304   1.082  53.405  1.00  0.00    -0.352 OA
BRANCH  26  27
HETATM   27  C16 UNL     1      21.677  -0.280  53.504  1.00  0.00     0.175 C 
BRANCH  27  28
HETATM   28  C17 UNL     1      21.670  -0.782  54.933  1.00  0.00     0.022 C 
HETATM   29  C18 UNL     1      22.990  -1.376  55.349  1.00  0.00     0.007 C 
ENDBRANCH  27  28
ENDBRANCH  26  27
ENDBRANCH  17  26
ENDBRANCH   3   4
TORSDOF 8
ENDMDL
MODEL 8
REMARK VINA RESULT:      -7.2      1.568      2.047
REMARK  8 active torsions:
REMARK  status: ('A' for Active; 'I' for Inactive)
REMARK    1  A    between atoms: C3_3  and  C4_4 
REMARK    2  A    between atoms: C15_17  and  O1_18 
REMARK    3  A    between atoms: O1_18  and  C16_19 
REMARK    4  A    between atoms: C16_19  and  C17_20 
REMARK    5  A    between atoms: C19_22  and  O2_23 
REMARK    6  A    between atoms: O2_23  and  C20_24 
REMARK    7  A    between atoms: C20_24  and  C21_25 
REMARK    8  A    between atoms: C21_25  and  O3_26 
ROOT
HETATM    1  C1  UNL     1      26.345   6.606  49.046  1.00  0.00     0.012 C 
HETATM    2  C2  UNL     1      26.543   5.400  49.001  1.00  0.00    -0.114 C 
HETATM    3  C3  UNL     1      26.779   3.929  48.957  1.00  0.00     0.122 C 
ENDROOT
BRANCH   3   4
HETATM    4  C4  UNL     1      26.809   3.323  50.286  1.00  0.00     0.015 C 
HETATM    5  C5  UNL     1      26.263   2.880  51.335  1.00  0.00     0.036 C 
HETATM    6  N1  UNL     1      26.896   2.322  52.481  1.00  0.00    -0.355 N 
HETATM    7  C13 UNL     1      24.816   2.950  51.235  1.00  0.00    -0.025 C 
HETATM    8  C6  UNL     1      26.254   1.355  53.308  1.00  0.00     0.046 A 
HETATM    9  H5  UNL     1      27.849   2.601  52.689  1.00  0.00     0.166 HD
HETATM   10  C7  UNL     1      26.971   0.776  54.324  1.00  0.00     0.049 A 
HETATM   11  C10 UNL     1      24.985   0.732  53.216  1.00  0.00     0.019 A 
HETATM   12  C8  UNL     1      26.063  -0.191  54.806  1.00  0.00     0.119 A 
HETATM   13  N2  UNL     1      24.851  -0.522  54.439  1.00  0.00    -0.260 NA
HETATM   14  C9  UNL     1      23.994  -0.143  53.530  1.00  0.00     0.071 A 
HETATM   15  C23 UNL     1      23.031   0.123  52.696  1.00  0.00     0.071 C 
HETATM   16  C19 UNL     1      22.560   0.877  51.541  1.00  0.00     0.100 C 
HETATM   17  C15 UNL     1      22.857   1.818  50.625  1.00  0.00     0.084 C 
HETATM   18  C14 UNL     1      23.891   2.833  50.100  1.00  0.00     0.108 C 
HETATM   19  C11 UNL     1      24.075   1.823  52.984  1.00  0.00     0.017 C 
HETATM   20  C12 UNL     1      23.960   3.127  52.277  1.00  0.00     0.011 C 
BRANCH  16  21
HETATM   21  O2  UNL     1      21.274   0.277  51.435  1.00  0.00    -0.346 OA
BRANCH  21  22
HETATM   22  C20 UNL     1      20.226   0.679  52.292  1.00  0.00     0.201 C 
BRANCH  22  23
HETATM   23  C21 UNL     1      18.983  -0.148  52.179  1.00  0.00     0.193 C 
BRANCH  23  24
HETATM   24  O3  UNL     1      17.965   0.748  51.795  1.00  0.00    -0.394 OA
HETATM   25  C22 UNL     1      16.705   0.219  51.874  1.00  0.00     0.201 C 
ENDBRANCH  23  24
ENDBRANCH  22  23
ENDBRANCH  21  22
ENDBRANCH  16  21
BRANCH  17  26
HETATM   26  O1  UNL     1      21.809   1.991  49.732  1.00  0.00    -0.352 OA
BRANCH  26  27
HETATM   27  C16 UNL     1      21.444   3.312  49.377  1.00  0.00     0.175 C 
BRANCH  27  28
HETATM   28  C17 UNL     1      20.546   3.964  50.408  1.00  0.00     0.022 C 
HETATM   29  C18 UNL     1      20.845   5.427  50.600  1.00  0.00     0.007 C 
ENDBRANCH  27  28
ENDBRANCH  26  27
ENDBRANCH  17  26
ENDBRANCH   3   4
TORSDOF 8
ENDMDL
MODEL 9
REMARK VINA RESULT:      -7.0      3.058      6.191
REMARK  8 active torsions:
REMARK  status: ('A' for Active; 'I' for Inactive)
REMARK    1  A    between atoms: C3_3  and  C4_4 
REMARK    2  A    between atoms: C15_17  and  O1_18 
REMARK    3  A    between atoms: O1_18  and  C16_19 
REMARK    4  A    between atoms: C16_19  and  C17_20 
REMARK    5  A    between atoms: C19_22  and  O2_23 
REMARK    6  A    between atoms: O2_23  and  C20_24 
REMARK    7  A    between atoms: C20_24  and  C21_25 
REMARK    8  A    between atoms: C21_25  and  O3_26 
ROOT
HETATM    1  C1  UNL     1      16.003   4.285  51.844  1.00  0.00     0.012 C 
HETATM    2  C2  UNL     1      17.164   4.030  51.553  1.00  0.00    -0.114 C 
HETATM    3  C3  UNL     1      18.575   3.707  51.201  1.00  0.00     0.122 C 
ENDROOT
BRANCH   3   4
HETATM    4  C4  UNL     1      19.010   2.419  51.737  1.00  0.00     0.015 C 
HETATM    5  C5  UNL     1      19.866   1.512  51.934  1.00  0.00     0.036 C 
HETATM    6  N1  UNL     1      19.693   0.284  52.633  1.00  0.00    -0.355 N 
HETATM    7  C13 UNL     1      21.158   1.890  51.387  1.00  0.00    -0.025 C 
HETATM    8  C6  UNL     1      20.771  -0.369  53.300  1.00  0.00     0.046 A 
HETATM    9  H5  UNL     1      18.762  -0.115  52.682  1.00  0.00     0.166 HD
HETATM   10  C7  UNL     1      20.501  -1.485  54.050  1.00  0.00     0.049 A 
HETATM   11  C10 UNL     1      22.130  -0.011  53.464  1.00  0.00     0.019 A 
HETATM   12  C8  UNL     1      21.756  -1.748  54.640  1.00  0.00     0.119 A 
HETATM   13  N2  UNL     1      22.912  -1.141  54.558  1.00  0.00    -0.260 NA
HETATM   14  C9  UNL     1      23.399  -0.095  53.946  1.00  0.00     0.071 A 
HETATM   15  C23 UNL     1      24.035   0.901  53.401  1.00  0.00     0.071 C 
HETATM   16  C19 UNL     1      23.991   2.099  52.573  1.00  0.00     0.100 C 
HETATM   17  C15 UNL     1      23.223   2.908  51.817  1.00  0.00     0.084 C 
HETATM   18  C14 UNL     1      21.827   3.187  51.226  1.00  0.00     0.108 C 
HETATM   19  C11 UNL     1      22.559   0.358  52.140  1.00  0.00     0.017 C 
HETATM   20  C12 UNL     1      22.090   1.029  50.898  1.00  0.00     0.011 C 
BRANCH  16  21
HETATM   21  O2  UNL     1      25.357   2.474  52.711  1.00  0.00    -0.346 OA
BRANCH  21  22
HETATM   22  C20 UNL     1      26.372   1.712  52.092  1.00  0.00     0.201 C 
BRANCH  22  23
HETATM   23  C21 UNL     1      27.679   1.715  52.822  1.00  0.00     0.193 C 
BRANCH  23  24
HETATM   24  O3  UNL     1      27.375   1.347  54.147  1.00  0.00    -0.394 OA
HETATM   25  C22 UNL     1      28.260   0.455  54.691  1.00  0.00     0.201 C 
ENDBRANCH  23  24
ENDBRANCH  22  23
ENDBRANCH  21  22
ENDBRANCH  16  21
BRANCH  17  26
HETATM   26  O1  UNL     1      23.958   3.982  51.335  1.00  0.00    -0.352 OA
BRANCH  26  27
HETATM   27  C16 UNL     1      23.419   4.731  50.261  1.00  0.00     0.175 C 
BRANCH  27  28
HETATM   28  C17 UNL     1      24.455   5.062  49.206  1.00  0.00     0.022 C 
HETATM   29  C18 UNL     1      25.818   4.513  49.534  1.00  0.00     0.007 C 
ENDBRANCH  27  28
ENDBRANCH  26  27
ENDBRANCH  17  26
ENDBRANCH   3   4
TORSDOF 8
ENDMDL
