MODEL 1
REMARK VINA RESULT:      -8.4      0.000      0.000
REMARK  3 active torsions:
REMARK  status: ('A' for Active; 'I' for Inactive)
REMARK    1  A    between atoms: C5_5  and  C6_6 
REMARK    2  A    between atoms: C7_7  and  C9_10 
REMARK       I    between atoms: C9_10  and  N2_12 
REMARK    3  A    between atoms: N2_12  and  C10_13 
ROOT
HETATM    1  C6  UNL     1      23.034   0.641  52.644  1.00  0.00     0.053 C 
HETATM    2  C7  UNL     1      23.657  -0.036  53.492  1.00  0.00     0.096 C 
HETATM    3  C8  UNL     1      22.345  -0.723  53.716  1.00  0.00     0.025 C 
HETATM    4  N1  UNL     1      21.281  -1.299  53.916  1.00  0.00    -0.096 N 
ENDROOT
BRANCH   2   5
HETATM    5  C9  UNL     1      24.778  -0.525  54.237  1.00  0.00     0.261 C 
HETATM    6  O1  UNL     1      25.144  -1.146  55.280  1.00  0.00    -0.267 OA
HETATM    7  N2  UNL     1      26.071  -0.270  53.666  1.00  0.00    -0.352 N 
HETATM    8  H7  UNL     1      26.188   0.231  52.727  1.00  0.00     0.163 HD
BRANCH   7   9
HETATM    9  C10 UNL     1      27.353  -0.629  54.213  1.00  0.00     0.084 C 
HETATM   10  C11 UNL     1      28.075   0.633  54.631  1.00  0.00     0.025 C 
HETATM   11  C12 UNL     1      28.953   1.026  53.441  1.00  0.00     0.002 C 
HETATM   12  C13 UNL     1      30.135   0.072  53.523  1.00  0.00     0.000 C 
HETATM   13  C14 UNL     1      29.611  -1.338  53.346  1.00  0.00     0.002 C 
HETATM   14  C15 UNL     1      28.126  -1.380  53.151  1.00  0.00     0.025 C 
ENDBRANCH   7   9
ENDBRANCH   2   5
BRANCH   1  15
HETATM   15  C5  UNL     1      23.640   1.740  51.806  1.00  0.00     0.011 C 
HETATM   16  C4  UNL     1      24.992   1.725  51.525  1.00  0.00    -0.015 C 
HETATM   17  C3  UNL     1      26.092   2.427  50.840  1.00  0.00     0.001 C 
HETATM   18  C2  UNL     1      25.692   3.331  49.922  1.00  0.00    -0.061 C 
HETATM   19  C1  UNL     1      26.916   3.963  49.305  1.00  0.00     0.045 C 
HETATM   20  C17 UNL     1      24.397   3.818  49.415  1.00  0.00     0.201 C 
HETATM   21  O2  UNL     1      23.351   2.974  49.818  1.00  0.00    -0.386 OA
HETATM   22  C16 UNL     1      23.108   3.013  51.159  1.00  0.00     0.181 C 
ENDBRANCH   1  15
TORSDOF 3
ENDMDL
MODEL 2
REMARK VINA RESULT:      -8.1      2.687      4.769
REMARK  3 active torsions:
REMARK  status: ('A' for Active; 'I' for Inactive)
REMARK    1  A    between atoms: C5_5  and  C6_6 
REMARK    2  A    between atoms: C7_7  and  C9_10 
REMARK       I    between atoms: C9_10  and  N2_12 
REMARK    3  A    between atoms: N2_12  and  C10_13 
ROOT
HETATM    1  C6  UNL     1      22.672   1.222  52.052  1.00  0.00     0.053 C 
HETATM    2  C7  UNL     1      23.734   0.774  52.540  1.00  0.00     0.096 C 
HETATM    3  C8  UNL     1      24.410   1.773  51.651  1.00  0.00     0.025 C 
HETATM    4  N1  UNL     1      24.984   2.583  50.931  1.00  0.00    -0.096 N 
ENDROOT
BRANCH   2   5
HETATM    5  C9  UNL     1      24.577   0.002  53.402  1.00  0.00     0.261 C 
HETATM    6  O1  UNL     1      24.609  -0.795  54.388  1.00  0.00    -0.267 OA
HETATM    7  N2  UNL     1      25.987   0.077  53.134  1.00  0.00    -0.352 N 
HETATM    8  H7  UNL     1      26.380   0.654  52.322  1.00  0.00     0.163 HD
BRANCH   7   9
HETATM    9  C10 UNL     1      27.048  -0.575  53.854  1.00  0.00     0.084 C 
HETATM   10  C11 UNL     1      27.933   0.481  54.480  1.00  0.00     0.025 C 
HETATM   11  C12 UNL     1      29.070   0.719  53.483  1.00  0.00     0.002 C 
HETATM   12  C13 UNL     1      29.992  -0.474  53.685  1.00  0.00     0.000 C 
HETATM   13  C14 UNL     1      29.225  -1.726  53.318  1.00  0.00     0.002 C 
HETATM   14  C15 UNL     1      27.822  -1.435  52.879  1.00  0.00     0.025 C 
ENDBRANCH   7   9
ENDBRANCH   2   5
BRANCH   1  15
HETATM   15  C5  UNL     1      21.290   0.734  52.409  1.00  0.00     0.011 C 
HETATM   16  C4  UNL     1      20.312   0.661  51.437  1.00  0.00    -0.015 C 
HETATM   17  C3  UNL     1      18.908   0.310  51.157  1.00  0.00     0.001 C 
HETATM   18  C2  UNL     1      18.322  -0.446  52.107  1.00  0.00    -0.061 C 
HETATM   19  C1  UNL     1      16.899  -0.727  51.689  1.00  0.00     0.045 C 
HETATM   20  C17 UNL     1      18.734  -1.027  53.398  1.00  0.00     0.201 C 
HETATM   21  O2  UNL     1      20.128  -0.971  53.551  1.00  0.00    -0.386 OA
HETATM   22  C16 UNL     1      20.607   0.296  53.700  1.00  0.00     0.181 C 
ENDBRANCH   1  15
TORSDOF 3
ENDMDL
MODEL 3
REMARK VINA RESULT:      -8.1      1.983      6.134
REMARK  3 active torsions:
REMARK  status: ('A' for Active; 'I' for Inactive)
REMARK    1  A    between atoms: C5_5  and  C6_6 
REMARK    2  A    between atoms: C7_7  and  C9_10 
REMARK       I    between atoms: C9_10  and  N2_12 
REMARK    3  A    between atoms: N2_12  and  C10_13 
ROOT
HETATM    1  C6  UNL     1      24.054  -0.608  53.934  1.00  0.00     0.053 C 
HETATM    2  C7  UNL     1      23.373   0.245  53.320  1.00  0.00     0.096 C 
HETATM    3  C8  UNL     1      22.227  -0.690  53.559  1.00  0.00     0.025 C 
HETATM    4  N1  UNL     1      21.274  -1.441  53.743  1.00  0.00    -0.096 N 
ENDROOT
BRANCH   2   5
HETATM    5  C9  UNL     1      23.073   1.479  52.661  1.00  0.00     0.261 C 
HETATM    6  O1  UNL     1      23.027   2.741  52.782  1.00  0.00    -0.267 OA
HETATM    7  N2  UNL     1      22.640   1.373  51.296  1.00  0.00    -0.352 N 
HETATM    8  H7  UNL     1      22.572   0.430  50.793  1.00  0.00     0.163 HD
BRANCH   7   9
HETATM    9  C10 UNL     1      22.257   2.445  50.415  1.00  0.00     0.084 C 
HETATM   10  C11 UNL     1      21.098   1.982  49.559  1.00  0.00     0.025 C 
HETATM   11  C12 UNL     1      21.720   1.453  48.265  1.00  0.00     0.002 C 
HETATM   12  C13 UNL     1      22.069   2.710  47.483  1.00  0.00     0.000 C 
HETATM   13  C14 UNL     1      23.096   3.486  48.279  1.00  0.00     0.002 C 
HETATM   14  C15 UNL     1      23.455   2.812  49.568  1.00  0.00     0.025 C 
ENDBRANCH   7   9
ENDBRANCH   2   5
BRANCH   1  15
HETATM   15  C5  UNL     1      25.534  -0.494  54.205  1.00  0.00     0.011 C 
HETATM   16  C4  UNL     1      26.441  -1.041  53.319  1.00  0.00    -0.015 C 
HETATM   17  C3  UNL     1      27.870  -1.256  53.030  1.00  0.00     0.001 C 
HETATM   18  C2  UNL     1      28.706  -0.465  53.732  1.00  0.00    -0.061 C 
HETATM   19  C1  UNL     1      30.125  -0.792  53.335  1.00  0.00     0.045 C 
HETATM   20  C17 UNL     1      28.556   0.590  54.751  1.00  0.00     0.201 C 
HETATM   21  O2  UNL     1      27.225   1.026  54.828  1.00  0.00    -0.386 OA
HETATM   22  C16 UNL     1      26.375   0.088  55.335  1.00  0.00     0.181 C 
ENDBRANCH   1  15
TORSDOF 3
ENDMDL
MODEL 4
REMARK VINA RESULT:      -8.1      1.504      5.346
REMARK  3 active torsions:
REMARK  status: ('A' for Active; 'I' for Inactive)
REMARK    1  A    between atoms: C5_5  and  C6_6 
REMARK    2  A    between atoms: C7_7  and  C9_10 
REMARK       I    between atoms: C9_10  and  N2_12 
REMARK    3  A    between atoms: N2_12  and  C10_13 
ROOT
HETATM    1  C6  UNL     1      23.675  -0.432  53.842  1.00  0.00     0.053 C 
HETATM    2  C7  UNL     1      23.127   0.136  52.870  1.00  0.00     0.096 C 
HETATM    3  C8  UNL     1      21.851  -0.399  53.444  1.00  0.00     0.025 C 
HETATM    4  N1  UNL     1      20.794  -0.828  53.895  1.00  0.00    -0.096 N 
ENDROOT
BRANCH   2   5
HETATM    5  C9  UNL     1      23.016   0.960  51.705  1.00  0.00     0.261 C 
HETATM    6  O1  UNL     1      22.376   1.161  50.628  1.00  0.00    -0.267 OA
HETATM    7  N2  UNL     1      23.960   2.038  51.604  1.00  0.00    -0.352 N 
HETATM    8  H7  UNL     1      24.685   2.230  52.369  1.00  0.00     0.163 HD
BRANCH   7   9
HETATM    9  C10 UNL     1      24.083   2.995  50.537  1.00  0.00     0.084 C 
HETATM   10  C11 UNL     1      25.301   2.645  49.708  1.00  0.00     0.025 C 
HETATM   11  C12 UNL     1      26.448   3.483  50.278  1.00  0.00     0.002 C 
HETATM   12  C13 UNL     1      26.203   4.874  49.715  1.00  0.00     0.000 C 
HETATM   13  C14 UNL     1      24.877   5.370  50.250  1.00  0.00     0.002 C 
HETATM   14  C15 UNL     1      24.210   4.372  51.149  1.00  0.00     0.025 C 
ENDBRANCH   7   9
ENDBRANCH   2   5
BRANCH   1  15
HETATM   15  C5  UNL     1      25.159  -0.432  54.113  1.00  0.00     0.011 C 
HETATM   16  C4  UNL     1      26.030  -0.956  53.179  1.00  0.00    -0.015 C 
HETATM   17  C3  UNL     1      27.443  -1.232  52.864  1.00  0.00     0.001 C 
HETATM   18  C2  UNL     1      28.327  -0.557  53.626  1.00  0.00    -0.061 C 
HETATM   19  C1  UNL     1      29.723  -0.935  53.194  1.00  0.00     0.045 C 
HETATM   20  C17 UNL     1      28.243   0.415  54.732  1.00  0.00     0.201 C 
HETATM   21  O2  UNL     1      26.940   0.923  54.854  1.00  0.00    -0.386 OA
HETATM   22  C16 UNL     1      26.035  -0.002  55.283  1.00  0.00     0.181 C 
ENDBRANCH   1  15
TORSDOF 3
ENDMDL
MODEL 5
REMARK VINA RESULT:      -8.1      2.513      4.857
REMARK  3 active torsions:
REMARK  status: ('A' for Active; 'I' for Inactive)
REMARK    1  A    between atoms: C5_5  and  C6_6 
REMARK    2  A    between atoms: C7_7  and  C9_10 
REMARK       I    between atoms: C9_10  and  N2_12 
REMARK    3  A    between atoms: N2_12  and  C10_13 
ROOT
HETATM    1  C6  UNL     1      23.220   3.527  51.571  1.00  0.00     0.053 C 
HETATM    2  C7  UNL     1      24.443   3.513  51.301  1.00  0.00     0.096 C 
HETATM    3  C8  UNL     1      24.251   4.960  50.964  1.00  0.00     0.025 C 
HETATM    4  N1  UNL     1      24.117   6.147  50.681  1.00  0.00    -0.096 N 
ENDROOT
BRANCH   2   5
HETATM    5  C9  UNL     1      25.774   2.998  51.203  1.00  0.00     0.261 C 
HETATM    6  O1  UNL     1      26.790   2.870  50.454  1.00  0.00    -0.267 OA
HETATM    7  N2  UNL     1      26.280   2.336  52.374  1.00  0.00    -0.352 N 
HETATM    8  H7  UNL     1      25.705   2.257  53.273  1.00  0.00     0.163 HD
BRANCH   7   9
HETATM    9  C10 UNL     1      27.566   1.713  52.538  1.00  0.00     0.084 C 
HETATM   10  C11 UNL     1      27.363   0.234  52.787  1.00  0.00     0.025 C 
HETATM   11  C12 UNL     1      27.347   0.065  54.308  1.00  0.00     0.002 C 
HETATM   12  C13 UNL     1      28.814   0.145  54.703  1.00  0.00     0.000 C 
HETATM   13  C14 UNL     1      29.324   1.522  54.334  1.00  0.00     0.002 C 
HETATM   14  C15 UNL     1      28.267   2.377  53.702  1.00  0.00     0.025 C 
ENDBRANCH   7   9
ENDBRANCH   2   5
BRANCH   1  15
HETATM   15  C5  UNL     1      22.433   2.334  52.054  1.00  0.00     0.011 C 
HETATM   16  C4  UNL     1      23.056   1.354  52.801  1.00  0.00    -0.015 C 
HETATM   17  C3  UNL     1      22.876   0.071  53.502  1.00  0.00     0.001 C 
HETATM   18  C2  UNL     1      21.592  -0.253  53.754  1.00  0.00    -0.061 C 
HETATM   19  C1  UNL     1      21.561  -1.580  54.472  1.00  0.00     0.045 C 
HETATM   20  C17 UNL     1      20.277   0.363  53.495  1.00  0.00     0.201 C 
HETATM   21  O2  UNL     1      20.420   1.704  53.107  1.00  0.00    -0.386 OA
HETATM   22  C16 UNL     1      20.996   1.856  51.881  1.00  0.00     0.181 C 
ENDBRANCH   1  15
TORSDOF 3
ENDMDL
MODEL 6
REMARK VINA RESULT:      -7.9      2.002      6.274
REMARK  3 active torsions:
REMARK  status: ('A' for Active; 'I' for Inactive)
REMARK    1  A    between atoms: C5_5  and  C6_6 
REMARK    2  A    between atoms: C7_7  and  C9_10 
REMARK       I    between atoms: C9_10  and  N2_12 
REMARK    3  A    between atoms: N2_12  and  C10_13 
ROOT
HETATM    1  C6  UNL     1      24.022   0.157  53.141  1.00  0.00     0.053 C 
HETATM    2  C7  UNL     1      23.612   1.267  52.733  1.00  0.00     0.096 C 
HETATM    3  C8  UNL     1      22.328   0.546  52.460  1.00  0.00     0.025 C 
HETATM    4  N1  UNL     1      21.267  -0.024  52.228  1.00  0.00    -0.096 N 
ENDROOT
BRANCH   2   5
HETATM    5  C9  UNL     1      23.632   2.674  52.471  1.00  0.00     0.261 C 
HETATM    6  O1  UNL     1      23.746   3.828  52.984  1.00  0.00    -0.267 OA
HETATM    7  N2  UNL     1      23.466   3.059  51.097  1.00  0.00    -0.352 N 
HETATM    8  H7  UNL     1      23.363   2.337  50.313  1.00  0.00     0.163 HD
BRANCH   7   9
HETATM    9  C10 UNL     1      23.425   4.395  50.563  1.00  0.00     0.084 C 
HETATM   10  C11 UNL     1      22.121   4.582  49.820  1.00  0.00     0.025 C 
HETATM   11  C12 UNL     1      22.424   4.257  48.355  1.00  0.00     0.002 C 
HETATM   12  C13 UNL     1      23.138   5.498  47.842  1.00  0.00     0.000 C 
HETATM   13  C14 UNL     1      24.426   5.653  48.622  1.00  0.00     0.002 C 
HETATM   14  C15 UNL     1      24.614   4.573  49.644  1.00  0.00     0.025 C 
ENDBRANCH   7   9
ENDBRANCH   2   5
BRANCH   1  15
HETATM   15  C5  UNL     1      25.407  -0.104  53.678  1.00  0.00     0.011 C 
HETATM   16  C4  UNL     1      26.388  -0.602  52.842  1.00  0.00    -0.015 C 
HETATM   17  C3  UNL     1      27.794  -1.033  52.750  1.00  0.00     0.001 C 
HETATM   18  C2  UNL     1      28.572  -0.620  53.771  1.00  0.00    -0.061 C 
HETATM   19  C1  UNL     1      29.974  -1.130  53.544  1.00  0.00     0.045 C 
HETATM   20  C17 UNL     1      28.372   0.172  54.999  1.00  0.00     0.201 C 
HETATM   21  O2  UNL     1      27.140   0.843  54.966  1.00  0.00    -0.386 OA
HETATM   22  C16 UNL     1      26.066   0.008  55.048  1.00  0.00     0.181 C 
ENDBRANCH   1  15
TORSDOF 3
ENDMDL
MODEL 7
REMARK VINA RESULT:      -7.7      2.312      6.642
REMARK  3 active torsions:
REMARK  status: ('A' for Active; 'I' for Inactive)
REMARK    1  A    between atoms: C5_5  and  C6_6 
REMARK    2  A    between atoms: C7_7  and  C9_10 
REMARK       I    between atoms: C9_10  and  N2_12 
REMARK    3  A    between atoms: N2_12  and  C10_13 
ROOT
HETATM    1  C6  UNL     1      24.057   0.236  53.251  1.00  0.00     0.053 C 
HETATM    2  C7  UNL     1      23.787   0.998  52.294  1.00  0.00     0.096 C 
HETATM    3  C8  UNL     1      22.363   0.620  52.567  1.00  0.00     0.025 C 
HETATM    4  N1  UNL     1      21.190   0.325  52.772  1.00  0.00    -0.096 N 
ENDROOT
BRANCH   2   5
HETATM    5  C9  UNL     1      24.013   1.958  51.258  1.00  0.00     0.261 C 
HETATM    6  O1  UNL     1      24.829   2.805  50.782  1.00  0.00    -0.267 OA
HETATM    7  N2  UNL     1      22.953   2.112  50.301  1.00  0.00    -0.352 N 
HETATM    8  H7  UNL     1      22.059   1.524  50.345  1.00  0.00     0.163 HD
BRANCH   7   9
HETATM    9  C10 UNL     1      22.911   3.015  49.182  1.00  0.00     0.084 C 
HETATM   10  C11 UNL     1      21.899   4.102  49.471  1.00  0.00     0.025 C 
HETATM   11  C12 UNL     1      20.587   3.630  48.840  1.00  0.00     0.002 C 
HETATM   12  C13 UNL     1      20.772   3.905  47.355  1.00  0.00     0.000 C 
HETATM   13  C14 UNL     1      21.925   3.057  46.862  1.00  0.00     0.002 C 
HETATM   14  C15 UNL     1      22.533   2.223  47.950  1.00  0.00     0.025 C 
ENDBRANCH   7   9
ENDBRANCH   2   5
BRANCH   1  15
HETATM   15  C5  UNL     1      25.449  -0.044  53.760  1.00  0.00     0.011 C 
HETATM   16  C4  UNL     1      26.393  -0.598  52.917  1.00  0.00    -0.015 C 
HETATM   17  C3  UNL     1      27.784  -1.071  52.804  1.00  0.00     0.001 C 
HETATM   18  C2  UNL     1      28.601  -0.644  53.788  1.00  0.00    -0.061 C 
HETATM   19  C1  UNL     1      29.982  -1.200  53.543  1.00  0.00     0.045 C 
HETATM   20  C17 UNL     1      28.456   0.197  54.990  1.00  0.00     0.201 C 
HETATM   21  O2  UNL     1      27.242   0.901  54.966  1.00  0.00    -0.386 OA
HETATM   22  C16 UNL     1      26.148   0.099  55.107  1.00  0.00     0.181 C 
ENDBRANCH   1  15
TORSDOF 3
ENDMDL
MODEL 8
REMARK VINA RESULT:      -7.6      6.037      8.768
REMARK  3 active torsions:
REMARK  status: ('A' for Active; 'I' for Inactive)
REMARK    1  A    between atoms: C5_5  and  C6_6 
REMARK    2  A    between atoms: C7_7  and  C9_10 
REMARK       I    between atoms: C9_10  and  N2_12 
REMARK    3  A    between atoms: N2_12  and  C10_13 
ROOT
HETATM    1  C6  UNL     1      28.322   6.791  47.776  1.00  0.00     0.053 C 
HETATM    2  C7  UNL     1      29.528   6.482  47.907  1.00  0.00     0.096 C 
HETATM    3  C8  UNL     1      29.786   7.616  46.962  1.00  0.00     0.025 C 
HETATM    4  N1  UNL     1      30.020   8.539  46.190  1.00  0.00    -0.096 N 
ENDROOT
BRANCH   2   5
HETATM    5  C9  UNL     1      30.675   5.800  48.425  1.00  0.00     0.261 C 
HETATM    6  O1  UNL     1      31.260   5.396  49.476  1.00  0.00    -0.267 OA
HETATM    7  N2  UNL     1      31.620   5.329  47.452  1.00  0.00    -0.352 N 
HETATM    8  H7  UNL     1      31.463   5.457  46.400  1.00  0.00     0.163 HD
BRANCH   7   9
HETATM    9  C10 UNL     1      32.858   4.639  47.699  1.00  0.00     0.084 C 
HETATM   10  C11 UNL     1      33.992   5.442  47.099  1.00  0.00     0.025 C 
HETATM   11  C12 UNL     1      34.219   4.865  45.700  1.00  0.00     0.002 C 
HETATM   12  C13 UNL     1      34.986   3.576  45.954  1.00  0.00     0.000 C 
HETATM   13  C14 UNL     1      34.099   2.654  46.764  1.00  0.00     0.002 C 
HETATM   14  C15 UNL     1      32.765   3.264  47.074  1.00  0.00     0.025 C 
ENDBRANCH   7   9
ENDBRANCH   2   5
BRANCH   1  15
HETATM   15  C5  UNL     1      27.175   6.084  48.455  1.00  0.00     0.011 C 
HETATM   16  C4  UNL     1      27.309   4.765  48.839  1.00  0.00    -0.015 C 
HETATM   17  C3  UNL     1      26.640   3.617  49.476  1.00  0.00     0.001 C 
HETATM   18  C2  UNL     1      25.540   3.936  50.188  1.00  0.00    -0.061 C 
HETATM   19  C1  UNL     1      24.966   2.672  50.780  1.00  0.00     0.045 C 
HETATM   20  C17 UNL     1      24.808   5.177  50.500  1.00  0.00     0.201 C 
HETATM   21  O2  UNL     1      25.572   6.307  50.169  1.00  0.00    -0.386 OA
HETATM   22  C16 UNL     1      25.748   6.468  48.827  1.00  0.00     0.181 C 
ENDBRANCH   1  15
TORSDOF 3
ENDMDL
MODEL 9
REMARK VINA RESULT:      -7.6      2.032      4.912
REMARK  3 active torsions:
REMARK  status: ('A' for Active; 'I' for Inactive)
REMARK    1  A    between atoms: C5_5  and  C6_6 
REMARK    2  A    between atoms: C7_7  and  C9_10 
REMARK       I    between atoms: C9_10  and  N2_12 
REMARK    3  A    between atoms: N2_12  and  C10_13 
ROOT
HETATM    1  C6  UNL     1      27.106   2.354  51.806  1.00  0.00     0.053 C 
HETATM    2  C7  UNL     1      26.794   1.244  52.294  1.00  0.00     0.096 C 
HETATM    3  C8  UNL     1      28.031   1.408  53.123  1.00  0.00     0.025 C 
HETATM    4  N1  UNL     1      29.040   1.521  53.812  1.00  0.00    -0.096 N 
ENDROOT
BRANCH   2   5
HETATM    5  C9  UNL     1      26.000   0.079  52.541  1.00  0.00     0.261 C 
HETATM    6  O1  UNL     1      25.999  -1.189  52.593  1.00  0.00    -0.267 OA
HETATM    7  N2  UNL     1      24.625   0.315  52.882  1.00  0.00    -0.352 N 
HETATM    8  H7  UNL     1      24.225   1.304  52.973  1.00  0.00     0.163 HD
BRANCH   7   9
HETATM    9  C10 UNL     1      23.612  -0.669  53.155  1.00  0.00     0.084 C 
HETATM   10  C11 UNL     1      22.319  -0.230  52.503  1.00  0.00     0.025 C 
HETATM   11  C12 UNL     1      21.543   0.529  53.582  1.00  0.00     0.002 C 
HETATM   12  C13 UNL     1      20.970  -0.569  54.465  1.00  0.00     0.000 C 
HETATM   13  C14 UNL     1      22.128  -1.324  55.084  1.00  0.00     0.002 C 
HETATM   14  C15 UNL     1      23.460  -0.787  54.655  1.00  0.00     0.025 C 
ENDBRANCH   7   9
ENDBRANCH   2   5
BRANCH   1  15
HETATM   15  C5  UNL     1      26.323   3.074  50.736  1.00  0.00     0.011 C 
HETATM   16  C4  UNL     1      24.972   2.827  50.587  1.00  0.00    -0.015 C 
HETATM   17  C3  UNL     1      23.760   3.159  49.818  1.00  0.00     0.001 C 
HETATM   18  C2  UNL     1      23.852   4.293  49.094  1.00  0.00    -0.061 C 
HETATM   19  C1  UNL     1      22.547   4.506  48.367  1.00  0.00     0.045 C 
HETATM   20  C17 UNL     1      24.887   5.317  48.861  1.00  0.00     0.201 C 
HETATM   21  O2  UNL     1      25.927   5.199  49.796  1.00  0.00    -0.386 OA
HETATM   22  C16 UNL     1      26.673   4.070  49.637  1.00  0.00     0.181 C 
ENDBRANCH   1  15
TORSDOF 3
ENDMDL
