MODEL 1
REMARK VINA RESULT:      -8.3      0.000      0.000
REMARK  1 active torsions:
REMARK  status: ('A' for Active; 'I' for Inactive)
REMARK    1  A    between atoms: N2_14  and  C13_15 
ROOT
HETATM    1  C1  UNL     1      24.159   3.836  53.074  1.00  0.00     0.047 C 
HETATM    2  C2  UNL     1      23.796   2.603  52.751  1.00  0.00    -0.013 C 
HETATM    3  C3  UNL     1      23.701   1.203  53.215  1.00  0.00     0.125 C 
HETATM    4  N1  UNL     1      23.468  -0.070  53.212  1.00  0.00    -0.273 NA
HETATM    5  C4  UNL     1      23.690  -0.908  54.331  1.00  0.00     0.112 C 
HETATM    6  C5  UNL     1      22.438  -1.317  54.576  1.00  0.00    -0.007 C 
HETATM    7  C6  UNL     1      21.566  -0.667  53.533  1.00  0.00     0.034 C 
HETATM    8  C7  UNL     1      20.739   0.455  53.994  1.00  0.00     0.060 C 
HETATM    9  C8  UNL     1      20.108   1.326  52.928  1.00  0.00     0.036 C 
HETATM   10  C9  UNL     1      20.461   0.713  51.630  1.00  0.00     0.029 C 
HETATM   11  C10 UNL     1      21.263   1.024  50.463  1.00  0.00     0.059 C 
HETATM   12  C11 UNL     1      22.627   1.432  50.594  1.00  0.00     0.010 C 
HETATM   13  C12 UNL     1      23.065   2.478  51.486  1.00  0.00     0.045 C 
HETATM   14  N2  UNL     1      22.491   3.603  50.992  1.00  0.00    -0.304 N 
HETATM   15  C19 UNL     1      21.117   3.518  50.877  1.00  0.00     0.239 C 
HETATM   16  N3  UNL     1      20.085   3.295  51.661  1.00  0.00    -0.145 NA
HETATM   17  N4  UNL     1      19.529   2.130  52.008  1.00  0.00    -0.158 NA
ENDROOT
BRANCH  14  18
HETATM   18  C13 UNL     1      23.450   4.598  50.734  1.00  0.00     0.040 A 
HETATM   19  C14 UNL     1      24.591   4.316  50.011  1.00  0.00     0.031 A 
HETATM   20  C15 UNL     1      25.487   5.336  49.797  1.00  0.00     0.026 A 
HETATM   21  C16 UNL     1      25.287   6.620  50.277  1.00  0.00     0.034 A 
HETATM   22 CL1  UNL     1      26.507   7.859  49.944  1.00  0.00    -0.084 Cl
HETATM   23  C17 UNL     1      24.123   6.870  51.004  1.00  0.00     0.026 A 
HETATM   24  C18 UNL     1      23.212   5.860  51.228  1.00  0.00     0.031 A 
ENDBRANCH  14  18
TORSDOF 1
ENDMDL
MODEL 2
REMARK VINA RESULT:      -8.2      2.939      4.643
REMARK  1 active torsions:
REMARK  status: ('A' for Active; 'I' for Inactive)
REMARK    1  A    between atoms: N2_14  and  C13_15 
ROOT
HETATM    1  C1  UNL     1      23.676   0.299  53.676  1.00  0.00     0.047 C 
HETATM    2  C2  UNL     1      22.908   0.585  52.634  1.00  0.00    -0.013 C 
HETATM    3  C3  UNL     1      21.567   0.428  52.034  1.00  0.00     0.125 C 
HETATM    4  N1  UNL     1      20.590   0.517  51.189  1.00  0.00    -0.273 NA
HETATM    5  C4  UNL     1      19.303  -0.021  51.423  1.00  0.00     0.112 C 
HETATM    6  C5  UNL     1      18.571   1.102  51.425  1.00  0.00    -0.007 C 
HETATM    7  C6  UNL     1      19.530   2.236  51.172  1.00  0.00     0.034 C 
HETATM    8  C7  UNL     1      19.866   3.067  52.335  1.00  0.00     0.060 C 
HETATM    9  C8  UNL     1      21.054   3.995  52.194  1.00  0.00     0.036 C 
HETATM   10  C9  UNL     1      21.528   3.854  50.802  1.00  0.00     0.029 C 
HETATM   11  C10 UNL     1      22.688   3.349  50.094  1.00  0.00     0.059 C 
HETATM   12  C11 UNL     1      23.200   2.040  50.357  1.00  0.00     0.010 C 
HETATM   13  C12 UNL     1      23.478   1.543  51.682  1.00  0.00     0.045 C 
HETATM   14  N2  UNL     1      24.492   2.326  52.128  1.00  0.00    -0.304 N 
HETATM   15  C19 UNL     1      24.203   3.676  52.097  1.00  0.00     0.239 C 
HETATM   16  N3  UNL     1      23.305   4.494  52.602  1.00  0.00    -0.145 NA
HETATM   17  N4  UNL     1      22.109   4.836  52.112  1.00  0.00    -0.158 NA
ENDROOT
BRANCH  14  18
HETATM   18  C13 UNL     1      25.595   1.555  52.537  1.00  0.00     0.040 A 
HETATM   19  C14 UNL     1      26.043   0.496  51.774  1.00  0.00     0.031 A 
HETATM   20  C15 UNL     1      27.126  -0.216  52.234  1.00  0.00     0.026 A 
HETATM   21  C16 UNL     1      27.772   0.089  53.420  1.00  0.00     0.034 A 
HETATM   22 CL1  UNL     1      29.157  -0.896  53.919  1.00  0.00    -0.084 Cl
HETATM   23  C17 UNL     1      27.292   1.166  54.166  1.00  0.00     0.026 A 
HETATM   24  C18 UNL     1      26.208   1.892  53.722  1.00  0.00     0.031 A 
ENDBRANCH  14  18
TORSDOF 1
ENDMDL
MODEL 3
REMARK VINA RESULT:      -8.0      3.125      5.867
REMARK  1 active torsions:
REMARK  status: ('A' for Active; 'I' for Inactive)
REMARK    1  A    between atoms: N2_14  and  C13_15 
ROOT
HETATM    1  C1  UNL     1      26.586   2.462  50.396  1.00  0.00     0.047 C 
HETATM    2  C2  UNL     1      25.712   3.441  50.586  1.00  0.00    -0.013 C 
HETATM    3  C3  UNL     1      25.195   4.725  50.069  1.00  0.00     0.125 C 
HETATM    4  N1  UNL     1      24.495   5.810  49.977  1.00  0.00    -0.273 NA
HETATM    5  C4  UNL     1      24.627   6.737  48.916  1.00  0.00     0.112 C 
HETATM    6  C5  UNL     1      23.405   6.653  48.371  1.00  0.00    -0.007 C 
HETATM    7  C6  UNL     1      22.638   5.655  49.200  1.00  0.00     0.034 C 
HETATM    8  C7  UNL     1      22.436   4.334  48.593  1.00  0.00     0.060 C 
HETATM    9  C8  UNL     1      21.964   3.223  49.508  1.00  0.00     0.036 C 
HETATM   10  C9  UNL     1      21.746   3.842  50.832  1.00  0.00     0.029 C 
HETATM   11  C10 UNL     1      22.317   3.789  52.164  1.00  0.00     0.059 C 
HETATM   12  C11 UNL     1      23.723   3.940  52.370  1.00  0.00     0.010 C 
HETATM   13  C12 UNL     1      24.722   3.199  51.639  1.00  0.00     0.045 C 
HETATM   14  N2  UNL     1      24.529   1.912  52.020  1.00  0.00    -0.304 N 
HETATM   15  C19 UNL     1      23.242   1.458  51.806  1.00  0.00     0.239 C 
HETATM   16  N3  UNL     1      22.412   1.319  50.795  1.00  0.00    -0.145 NA
HETATM   17  N4  UNL     1      21.546   2.204  50.290  1.00  0.00    -0.158 NA
ENDROOT
BRANCH  14  18
HETATM   18  C13 UNL     1      25.711   1.343  52.527  1.00  0.00     0.040 A 
HETATM   19  C14 UNL     1      26.503   2.030  53.425  1.00  0.00     0.031 A 
HETATM   20  C15 UNL     1      27.645   1.416  53.879  1.00  0.00     0.026 A 
HETATM   21  C16 UNL     1      28.024   0.148  53.471  1.00  0.00     0.034 A 
HETATM   22 CL1  UNL     1      29.517  -0.550  54.119  1.00  0.00    -0.084 Cl
HETATM   23  C17 UNL     1      27.201  -0.519  52.563  1.00  0.00     0.026 A 
HETATM   24  C18 UNL     1      26.051   0.081  52.096  1.00  0.00     0.031 A 
ENDBRANCH  14  18
TORSDOF 1
ENDMDL
MODEL 4
REMARK VINA RESULT:      -8.0      3.185      5.230
REMARK  1 active torsions:
REMARK  status: ('A' for Active; 'I' for Inactive)
REMARK    1  A    between atoms: N2_14  and  C13_15 
ROOT
HETATM    1  C1  UNL     1      24.650   2.270  53.583  1.00  0.00     0.047 C 
HETATM    2  C2  UNL     1      23.740   2.288  52.620  1.00  0.00    -0.013 C 
HETATM    3  C3  UNL     1      22.302   2.430  52.310  1.00  0.00     0.125 C 
HETATM    4  N1  UNL     1      21.199   2.483  51.634  1.00  0.00    -0.273 NA
HETATM    5  C4  UNL     1      19.934   2.730  52.221  1.00  0.00     0.112 C 
HETATM    6  C5  UNL     1      19.617   3.889  51.627  1.00  0.00    -0.007 C 
HETATM    7  C6  UNL     1      20.761   4.222  50.705  1.00  0.00     0.034 C 
HETATM    8  C7  UNL     1      21.659   5.293  51.156  1.00  0.00     0.060 C 
HETATM    9  C8  UNL     1      22.980   5.432  50.429  1.00  0.00     0.036 C 
HETATM   10  C9  UNL     1      22.962   4.432  49.341  1.00  0.00     0.029 C 
HETATM   11  C10 UNL     1      23.652   3.210  48.975  1.00  0.00     0.059 C 
HETATM   12  C11 UNL     1      23.790   2.134  49.907  1.00  0.00     0.010 C 
HETATM   13  C12 UNL     1      24.274   2.302  51.255  1.00  0.00     0.045 C 
HETATM   14  N2  UNL     1      25.563   2.695  51.102  1.00  0.00    -0.304 N 
HETATM   15  C19 UNL     1      25.708   3.825  50.321  1.00  0.00     0.239 C 
HETATM   16  N3  UNL     1      25.292   5.073  50.324  1.00  0.00    -0.145 NA
HETATM   17  N4  UNL     1      24.171   5.588  49.809  1.00  0.00    -0.158 NA
ENDROOT
BRANCH  14  18
HETATM   18  C13 UNL     1      26.444   1.853  51.803  1.00  0.00     0.040 A 
HETATM   19  C14 UNL     1      26.303   0.481  51.758  1.00  0.00     0.031 A 
HETATM   20  C15 UNL     1      27.198  -0.282  52.469  1.00  0.00     0.026 A 
HETATM   21  C16 UNL     1      28.222   0.271  53.219  1.00  0.00     0.034 A 
HETATM   22 CL1  UNL     1      29.319  -0.806  54.098  1.00  0.00    -0.084 Cl
HETATM   23  C17 UNL     1      28.335   1.662  53.243  1.00  0.00     0.026 A 
HETATM   24  C18 UNL     1      27.447   2.444  52.536  1.00  0.00     0.031 A 
ENDBRANCH  14  18
TORSDOF 1
ENDMDL
MODEL 5
REMARK VINA RESULT:      -7.8      3.211      6.227
REMARK  1 active torsions:
REMARK  status: ('A' for Active; 'I' for Inactive)
REMARK    1  A    between atoms: N2_14  and  C13_15 
ROOT
HETATM    1  C1  UNL     1      21.939   0.928  50.455  1.00  0.00     0.047 C 
HETATM    2  C2  UNL     1      22.868   1.787  50.851  1.00  0.00    -0.013 C 
HETATM    3  C3  UNL     1      24.233   2.298  50.607  1.00  0.00     0.125 C 
HETATM    4  N1  UNL     1      25.320   2.987  50.744  1.00  0.00    -0.273 NA
HETATM    5  C4  UNL     1      26.437   2.863  49.884  1.00  0.00     0.112 C 
HETATM    6  C5  UNL     1      26.471   4.095  49.357  1.00  0.00    -0.007 C 
HETATM    7  C6  UNL     1      25.336   4.859  49.988  1.00  0.00     0.034 C 
HETATM    8  C7  UNL     1      24.162   5.087  49.137  1.00  0.00     0.060 C 
HETATM    9  C8  UNL     1      22.897   5.556  49.824  1.00  0.00     0.036 C 
HETATM   10  C9  UNL     1      23.243   5.743  51.248  1.00  0.00     0.029 C 
HETATM   11  C10 UNL     1      22.924   5.150  52.532  1.00  0.00     0.059 C 
HETATM   12  C11 UNL     1      23.021   3.738  52.736  1.00  0.00     0.010 C 
HETATM   13  C12 UNL     1      22.430   2.762  51.855  1.00  0.00     0.045 C 
HETATM   14  N2  UNL     1      21.095   2.962  51.978  1.00  0.00    -0.304 N 
HETATM   15  C19 UNL     1      20.703   4.258  51.704  1.00  0.00     0.239 C 
HETATM   16  N3  UNL     1      20.772   5.107  50.702  1.00  0.00    -0.145 NA
HETATM   17  N4  UNL     1      21.746   5.972  50.398  1.00  0.00    -0.158 NA
ENDROOT
BRANCH  14  18
HETATM   18  C13 UNL     1      20.428   1.778  52.340  1.00  0.00     0.040 A 
HETATM   19  C14 UNL     1      20.888   0.992  53.376  1.00  0.00     0.031 A 
HETATM   20  C15 UNL     1      20.188  -0.153  53.676  1.00  0.00     0.026 A 
HETATM   21  C16 UNL     1      19.055  -0.539  52.981  1.00  0.00     0.034 A 
HETATM   22 CL1  UNL     1      18.231  -2.035  53.451  1.00  0.00    -0.084 Cl
HETATM   23  C17 UNL     1      18.617   0.279  51.939  1.00  0.00     0.026 A 
HETATM   24  C18 UNL     1      19.305   1.431  51.624  1.00  0.00     0.031 A 
ENDBRANCH  14  18
TORSDOF 1
ENDMDL
MODEL 6
REMARK VINA RESULT:      -7.6      2.692      4.338
REMARK  1 active torsions:
REMARK  status: ('A' for Active; 'I' for Inactive)
REMARK    1  A    between atoms: N2_14  and  C13_15 
ROOT
HETATM    1  C1  UNL     1      21.517   0.844  49.597  1.00  0.00     0.047 C 
HETATM    2  C2  UNL     1      21.735   1.016  50.893  1.00  0.00    -0.013 C 
HETATM    3  C3  UNL     1      21.671   0.390  52.230  1.00  0.00     0.125 C 
HETATM    4  N1  UNL     1      21.757   0.241  53.513  1.00  0.00    -0.273 NA
HETATM    5  C4  UNL     1      21.444  -0.967  54.182  1.00  0.00     0.112 C 
HETATM    6  C5  UNL     1      22.643  -1.270  54.700  1.00  0.00    -0.007 C 
HETATM    7  C6  UNL     1      23.580  -0.167  54.281  1.00  0.00     0.034 C 
HETATM    8  C7  UNL     1      24.531  -0.501  53.214  1.00  0.00     0.060 C 
HETATM    9  C8  UNL     1      25.253   0.653  52.552  1.00  0.00     0.036 C 
HETATM   10  C9  UNL     1      24.829   1.874  53.269  1.00  0.00     0.029 C 
HETATM   11  C10 UNL     1      24.062   3.077  53.009  1.00  0.00     0.059 C 
HETATM   12  C11 UNL     1      22.755   3.008  52.435  1.00  0.00     0.010 C 
HETATM   13  C12 UNL     1      22.442   2.250  51.249  1.00  0.00     0.045 C 
HETATM   14  N2  UNL     1      23.139   2.867  50.263  1.00  0.00    -0.304 N 
HETATM   15  C19 UNL     1      24.494   2.958  50.516  1.00  0.00     0.239 C 
HETATM   16  N3  UNL     1      25.497   2.143  50.761  1.00  0.00    -0.145 NA
HETATM   17  N4  UNL     1      25.917   1.655  51.933  1.00  0.00    -0.158 NA
ENDROOT
BRANCH  14  18
HETATM   18  C13 UNL     1      22.299   3.250  49.201  1.00  0.00     0.040 A 
HETATM   19  C14 UNL     1      21.129   3.943  49.435  1.00  0.00     0.031 A 
HETATM   20  C15 UNL     1      20.355   4.284  48.352  1.00  0.00     0.026 A 
HETATM   21  C16 UNL     1      20.704   3.960  47.052  1.00  0.00     0.034 A 
HETATM   22 CL1  UNL     1      19.632   4.448  45.730  1.00  0.00    -0.084 Cl
HETATM   23  C17 UNL     1      21.893   3.258  46.852  1.00  0.00     0.026 A 
HETATM   24  C18 UNL     1      22.683   2.908  47.925  1.00  0.00     0.031 A 
ENDBRANCH  14  18
TORSDOF 1
ENDMDL
MODEL 7
REMARK VINA RESULT:      -7.6      3.050      7.002
REMARK  1 active torsions:
REMARK  status: ('A' for Active; 'I' for Inactive)
REMARK    1  A    between atoms: N2_14  and  C13_15 
ROOT
HETATM    1  C1  UNL     1      24.934   3.262  49.508  1.00  0.00     0.047 C 
HETATM    2  C2  UNL     1      25.307   4.527  49.642  1.00  0.00    -0.013 C 
HETATM    3  C3  UNL     1      26.192   5.594  49.130  1.00  0.00     0.125 C 
HETATM    4  N1  UNL     1      26.773   6.745  49.009  1.00  0.00    -0.273 NA
HETATM    5  C4  UNL     1      27.738   7.032  48.015  1.00  0.00     0.112 C 
HETATM    6  C5  UNL     1      27.098   7.990  47.330  1.00  0.00    -0.007 C 
HETATM    7  C6  UNL     1      25.772   8.190  48.017  1.00  0.00     0.034 C 
HETATM    8  C7  UNL     1      24.600   7.634  47.329  1.00  0.00     0.060 C 
HETATM    9  C8  UNL     1      23.320   7.531  48.129  1.00  0.00     0.036 C 
HETATM   10  C9  UNL     1      23.605   8.135  49.448  1.00  0.00     0.029 C 
HETATM   11  C10 UNL     1      23.717   7.721  50.832  1.00  0.00     0.059 C 
HETATM   12  C11 UNL     1      24.542   6.615  51.206  1.00  0.00     0.010 C 
HETATM   13  C12 UNL     1      24.490   5.326  50.561  1.00  0.00     0.045 C 
HETATM   14  N2  UNL     1      23.253   4.853  50.856  1.00  0.00    -0.304 N 
HETATM   15  C19 UNL     1      22.232   5.700  50.474  1.00  0.00     0.239 C 
HETATM   16  N3  UNL     1      21.791   6.261  49.369  1.00  0.00    -0.145 NA
HETATM   17  N4  UNL     1      22.156   7.419  48.809  1.00  0.00    -0.158 NA
ENDROOT
BRANCH  14  18
HETATM   18  C13 UNL     1      23.319   3.589  51.469  1.00  0.00     0.040 A 
HETATM   19  C14 UNL     1      24.168   3.357  52.532  1.00  0.00     0.031 A 
HETATM   20  C15 UNL     1      24.182   2.098  53.082  1.00  0.00     0.026 A 
HETATM   21  C16 UNL     1      23.385   1.067  52.612  1.00  0.00     0.034 A 
HETATM   22 CL1  UNL     1      23.484  -0.518  53.395  1.00  0.00    -0.084 Cl
HETATM   23  C17 UNL     1      22.539   1.336  51.536  1.00  0.00     0.026 A 
HETATM   24  C18 UNL     1      22.510   2.593  50.971  1.00  0.00     0.031 A 
ENDBRANCH  14  18
TORSDOF 1
ENDMDL
MODEL 8
REMARK VINA RESULT:      -7.6      2.118      3.762
REMARK  1 active torsions:
REMARK  status: ('A' for Active; 'I' for Inactive)
REMARK    1  A    between atoms: N2_14  and  C13_15 
ROOT
HETATM    1  C1  UNL     1      22.341   2.268  50.236  1.00  0.00     0.047 C 
HETATM    2  C2  UNL     1      22.624   2.007  51.504  1.00  0.00    -0.013 C 
HETATM    3  C3  UNL     1      22.350   1.118  52.652  1.00  0.00     0.125 C 
HETATM    4  N1  UNL     1      22.391   0.619  53.846  1.00  0.00    -0.273 NA
HETATM    5  C4  UNL     1      21.663  -0.530  54.238  1.00  0.00     0.112 C 
HETATM    6  C5  UNL     1      22.671  -1.362  54.536  1.00  0.00    -0.007 C 
HETATM    7  C6  UNL     1      23.944  -0.593  54.293  1.00  0.00     0.034 C 
HETATM    8  C7  UNL     1      24.691  -0.951  53.081  1.00  0.00     0.060 C 
HETATM    9  C8  UNL     1      25.780   0.004  52.640  1.00  0.00     0.036 C 
HETATM   10  C9  UNL     1      25.845   1.063  53.669  1.00  0.00     0.029 C 
HETATM   11  C10 UNL     1      25.575   2.483  53.786  1.00  0.00     0.059 C 
HETATM   12  C11 UNL     1      24.327   3.033  53.357  1.00  0.00     0.010 C 
HETATM   13  C12 UNL     1      23.742   2.772  52.065  1.00  0.00     0.045 C 
HETATM   14  N2  UNL     1      24.605   3.338  51.185  1.00  0.00    -0.304 N 
HETATM   15  C19 UNL     1      25.900   2.874  51.305  1.00  0.00     0.239 C 
HETATM   16  N3  UNL     1      26.534   1.723  51.240  1.00  0.00    -0.145 NA
HETATM   17  N4  UNL     1      26.760   0.830  52.210  1.00  0.00    -0.158 NA
ENDROOT
BRANCH  14  18
HETATM   18  C13 UNL     1      23.952   4.256  50.343  1.00  0.00     0.040 A 
HETATM   19  C14 UNL     1      24.082   4.177  48.971  1.00  0.00     0.031 A 
HETATM   20  C15 UNL     1      23.417   5.107  48.207  1.00  0.00     0.026 A 
HETATM   21  C16 UNL     1      22.635   6.107  48.760  1.00  0.00     0.034 A 
HETATM   22 CL1  UNL     1      21.823   7.254  47.682  1.00  0.00    -0.084 Cl
HETATM   23  C17 UNL     1      22.526   6.157  50.150  1.00  0.00     0.026 A 
HETATM   24  C18 UNL     1      23.184   5.233  50.933  1.00  0.00     0.031 A 
ENDBRANCH  14  18
TORSDOF 1
ENDMDL
MODEL 9
REMARK VINA RESULT:      -7.4      3.272      5.415
REMARK  1 active torsions:
REMARK  status: ('A' for Active; 'I' for Inactive)
REMARK    1  A    between atoms: N2_14  and  C13_15 
ROOT
HETATM    1  C1  UNL     1      24.185   3.258  53.056  1.00  0.00     0.047 C 
HETATM    2  C2  UNL     1      25.266   2.520  52.844  1.00  0.00    -0.013 C 
HETATM    3  C3  UNL     1      26.731   2.433  53.018  1.00  0.00     0.125 C 
HETATM    4  N1  UNL     1      27.942   1.981  52.955  1.00  0.00    -0.273 NA
HETATM    5  C4  UNL     1      29.058   2.655  53.507  1.00  0.00     0.112 C 
HETATM    6  C5  UNL     1      29.444   1.761  54.429  1.00  0.00    -0.007 C 
HETATM    7  C6  UNL     1      28.491   0.599  54.321  1.00  0.00     0.034 C 
HETATM    8  C7  UNL     1      27.485   0.490  55.385  1.00  0.00     0.060 C 
HETATM    9  C8  UNL     1      26.328  -0.455  55.141  1.00  0.00     0.036 C 
HETATM   10  C9  UNL     1      26.595  -1.111  53.843  1.00  0.00     0.029 C 
HETATM   11  C10 UNL     1      26.034  -1.145  52.507  1.00  0.00     0.059 C 
HETATM   12  C11 UNL     1      25.754   0.062  51.793  1.00  0.00     0.010 C 
HETATM   13  C12 UNL     1      25.010   1.164  52.350  1.00  0.00     0.045 C 
HETATM   14  N2  UNL     1      23.763   0.665  52.538  1.00  0.00    -0.304 N 
HETATM   15  C19 UNL     1      23.734  -0.470  53.324  1.00  0.00     0.239 C 
HETATM   16  N3  UNL     1      24.096  -0.826  54.538  1.00  0.00    -0.145 NA
HETATM   17  N4  UNL     1      25.277  -1.287  54.962  1.00  0.00    -0.158 NA
ENDROOT
BRANCH  14  18
HETATM   18  C13 UNL     1      22.791   1.452  51.893  1.00  0.00     0.040 A 
HETATM   19  C14 UNL     1      22.955   1.849  50.582  1.00  0.00     0.031 A 
HETATM   20  C15 UNL     1      21.967   2.618  50.014  1.00  0.00     0.026 A 
HETATM   21  C16 UNL     1      20.830   3.003  50.704  1.00  0.00     0.034 A 
HETATM   22 CL1  UNL     1      19.620   3.996  49.875  1.00  0.00    -0.084 Cl
HETATM   23  C17 UNL     1      20.697   2.584  52.028  1.00  0.00     0.026 A 
HETATM   24  C18 UNL     1      21.676   1.812  52.615  1.00  0.00     0.031 A 
ENDBRANCH  14  18
TORSDOF 1
ENDMDL
