MODEL 1
REMARK VINA RESULT:      -8.6      0.000      0.000
REMARK  6 active torsions:
REMARK  status: ('A' for Active; 'I' for Inactive)
REMARK    1  A    between atoms: C6_7  and  N1_8 
REMARK    2  A    between atoms: N1_8  and  C7_9 
REMARK    3  A    between atoms: N4_21  and  C16_22 
REMARK    4  A    between atoms: C16_22  and  C17_23 
REMARK    5  A    between atoms: C17_23  and  C18_24 
REMARK    6  A    between atoms: C18_24  and  N5_25 
ROOT
HETATM    1  O1  UNL     1      23.006  -0.854  54.086  1.00  0.00    -0.273 OA
HETATM    2  C1  UNL     1      22.453   0.080  53.595  1.00  0.00     0.222 C 
HETATM    3  C2  UNL     1      20.781   0.630  53.806  1.00  0.00     0.122 C 
HETATM    4  C3  UNL     1      21.018   1.169  52.596  1.00  0.00     0.046 A 
HETATM    5  C4  UNL     1      21.453   2.420  52.328  1.00  0.00     0.080 A 
HETATM    6  C5  UNL     1      22.574   3.403  51.850  1.00  0.00     0.094 C 
HETATM    7  C6  UNL     1      22.522   2.562  50.598  1.00  0.00     0.159 C 
HETATM    8  N2  UNL     1      21.314   3.370  50.078  1.00  0.00    -0.250 NA
HETATM    9  C13 UNL     1      20.306   3.732  50.916  1.00  0.00     0.200 C 
HETATM   10  N3  UNL     1      20.208   3.237  52.365  1.00  0.00    -0.371 N 
HETATM   11  C14 UNL     1      21.924   1.257  51.233  1.00  0.00     0.106 A 
HETATM   12  C15 UNL     1      21.281   0.115  51.663  1.00  0.00    -0.002 A 
HETATM   13  N4  UNL     1      22.898   1.199  52.604  1.00  0.00    -0.334 N 
HETATM   14  H11 UNL     1      19.768   3.136  53.315  1.00  0.00     0.161 HD
ENDROOT
BRANCH   7  15
HETATM   15  N1  UNL     1      23.542   2.448  49.772  1.00  0.00    -0.360 N 
HETATM   16  H5  UNL     1      23.614   1.514  49.310  1.00  0.00     0.162 HD
BRANCH  15  17
HETATM   17  C7  UNL     1      24.477   3.477  49.509  1.00  0.00     0.033 A 
HETATM   18  C8  UNL     1      25.815   3.260  49.763  1.00  0.00     0.029 A 
HETATM   19  C9  UNL     1      26.755   4.253  49.513  1.00  0.00     0.005 A 
HETATM   20  C10 UNL     1      26.342   5.471  49.004  1.00  0.00     0.042 A 
HETATM   21  C11 UNL     1      25.000   5.700  48.745  1.00  0.00     0.118 A 
HETATM   22  F1  UNL     1      24.567   6.895  48.242  1.00  0.00    -0.206 F 
HETATM   23  C12 UNL     1      24.070   4.694  49.001  1.00  0.00     0.071 A 
ENDBRANCH  15  17
ENDBRANCH   7  15
BRANCH  13  24
HETATM   24  C16 UNL     1      24.244   1.669  53.090  1.00  0.00     0.129 C 
BRANCH  24  25
HETATM   25  C17 UNL     1      25.133   0.591  52.339  1.00  0.00     0.050 C 
BRANCH  25  26
HETATM   26  C18 UNL     1      26.157   0.071  53.330  1.00  0.00     0.274 C 
BRANCH  26  27
HETATM   27  N5  UNL     1      27.454   0.212  52.747  1.00  0.00     0.092 N 
HETATM   28  C19 UNL     1      27.834   1.595  52.537  1.00  0.00     0.298 C 
HETATM   29  C20 UNL     1      28.116   2.306  53.851  1.00  0.00     0.198 C 
HETATM   30  O2  UNL     1      29.013   1.598  54.634  1.00  0.00    -0.388 OA
HETATM   31  C21 UNL     1      28.572   0.297  54.855  1.00  0.00     0.198 C 
HETATM   32  C22 UNL     1      28.496  -0.397  53.519  1.00  0.00     0.298 C 
ENDBRANCH  26  27
ENDBRANCH  25  26
ENDBRANCH  24  25
ENDBRANCH  13  24
TORSDOF 6
ENDMDL
MODEL 2
REMARK VINA RESULT:      -8.2      2.949      5.051
REMARK  6 active torsions:
REMARK  status: ('A' for Active; 'I' for Inactive)
REMARK    1  A    between atoms: C6_7  and  N1_8 
REMARK    2  A    between atoms: N1_8  and  C7_9 
REMARK    3  A    between atoms: N4_21  and  C16_22 
REMARK    4  A    between atoms: C16_22  and  C17_23 
REMARK    5  A    between atoms: C17_23  and  C18_24 
REMARK    6  A    between atoms: C18_24  and  N5_25 
ROOT
HETATM    1  O1  UNL     1      23.767   4.882  53.402  1.00  0.00    -0.273 OA
HETATM    2  C1  UNL     1      23.304   4.712  52.318  1.00  0.00     0.222 C 
HETATM    3  C2  UNL     1      22.548   5.887  51.226  1.00  0.00     0.122 C 
HETATM    4  C3  UNL     1      21.953   4.772  50.764  1.00  0.00     0.046 A 
HETATM    5  C4  UNL     1      22.357   3.995  49.736  1.00  0.00     0.080 A 
HETATM    6  C5  UNL     1      22.971   2.661  49.191  1.00  0.00     0.094 C 
HETATM    7  C6  UNL     1      21.802   2.041  49.918  1.00  0.00     0.159 C 
HETATM    8  N2  UNL     1      20.871   2.336  48.723  1.00  0.00    -0.250 NA
HETATM    9  C13 UNL     1      20.944   3.520  48.060  1.00  0.00     0.200 C 
HETATM   10  N3  UNL     1      21.813   4.692  48.537  1.00  0.00    -0.371 N 
HETATM   11  C14 UNL     1      21.549   3.195  50.953  1.00  0.00     0.106 A 
HETATM   12  C15 UNL     1      21.161   4.202  51.812  1.00  0.00    -0.002 A 
HETATM   13  N4  UNL     1      23.151   3.466  51.392  1.00  0.00    -0.334 N 
HETATM   14  H11 UNL     1      22.204   5.667  48.509  1.00  0.00     0.161 HD
ENDROOT
BRANCH   7  15
HETATM   15  N1  UNL     1      21.811   0.798  50.354  1.00  0.00    -0.360 N 
HETATM   16  H5  UNL     1      22.500   0.180  49.870  1.00  0.00     0.162 HD
BRANCH  15  17
HETATM   17  C7  UNL     1      20.978   0.307  51.388  1.00  0.00     0.033 A 
HETATM   18  C8  UNL     1      19.612   0.283  51.204  1.00  0.00     0.029 A 
HETATM   19  C9  UNL     1      18.769  -0.194  52.201  1.00  0.00     0.005 A 
HETATM   20  C10 UNL     1      19.310  -0.649  53.391  1.00  0.00     0.042 A 
HETATM   21  C11 UNL     1      20.682  -0.629  53.587  1.00  0.00     0.118 A 
HETATM   22  F1  UNL     1      21.240  -1.073  54.752  1.00  0.00    -0.206 F 
HETATM   23  C12 UNL     1      21.513  -0.148  52.576  1.00  0.00     0.071 A 
ENDBRANCH  15  17
ENDBRANCH   7  15
BRANCH  13  24
HETATM   24  C16 UNL     1      24.477   2.754  51.439  1.00  0.00     0.129 C 
BRANCH  24  25
HETATM   25  C17 UNL     1      24.262   1.985  52.810  1.00  0.00     0.050 C 
BRANCH  25  26
HETATM   26  C18 UNL     1      25.628   1.577  53.326  1.00  0.00     0.274 C 
BRANCH  26  27
HETATM   27  N5  UNL     1      25.490   0.338  54.024  1.00  0.00     0.092 N 
HETATM   28  C19 UNL     1      25.643  -0.818  53.164  1.00  0.00     0.298 C 
HETATM   29  C20 UNL     1      27.083  -0.994  52.709  1.00  0.00     0.198 C 
HETATM   30  O2  UNL     1      27.963  -0.979  53.778  1.00  0.00    -0.388 OA
HETATM   31  C21 UNL     1      27.816   0.178  54.537  1.00  0.00     0.198 C 
HETATM   32  C22 UNL     1      26.419   0.184  55.104  1.00  0.00     0.298 C 
ENDBRANCH  26  27
ENDBRANCH  25  26
ENDBRANCH  24  25
ENDBRANCH  13  24
TORSDOF 6
ENDMDL
MODEL 3
REMARK VINA RESULT:      -8.1      2.907      5.315
REMARK  6 active torsions:
REMARK  status: ('A' for Active; 'I' for Inactive)
REMARK    1  A    between atoms: C6_7  and  N1_8 
REMARK    2  A    between atoms: N1_8  and  C7_9 
REMARK    3  A    between atoms: N4_21  and  C16_22 
REMARK    4  A    between atoms: C16_22  and  C17_23 
REMARK    5  A    between atoms: C17_23  and  C18_24 
REMARK    6  A    between atoms: C18_24  and  N5_25 
ROOT
HETATM    1  O1  UNL     1      25.313   4.435  50.614  1.00  0.00    -0.273 OA
HETATM    2  C1  UNL     1      24.303   3.941  50.222  1.00  0.00     0.222 C 
HETATM    3  C2  UNL     1      23.464   4.182  48.679  1.00  0.00     0.122 C 
HETATM    4  C3  UNL     1      22.411   3.790  49.420  1.00  0.00     0.046 A 
HETATM    5  C4  UNL     1      21.924   2.536  49.551  1.00  0.00     0.080 A 
HETATM    6  C5  UNL     1      21.700   1.240  50.401  1.00  0.00     0.094 C 
HETATM    7  C6  UNL     1      21.008   2.197  51.341  1.00  0.00     0.159 C 
HETATM    8  N2  UNL     1      19.712   2.116  50.506  1.00  0.00    -0.250 NA
HETATM    9  C13 UNL     1      19.757   2.123  49.148  1.00  0.00     0.200 C 
HETATM   10  N3  UNL     1      21.047   2.376  48.357  1.00  0.00    -0.371 N 
HETATM   11  C14 UNL     1      21.729   3.515  50.884  1.00  0.00     0.106 A 
HETATM   12  C15 UNL     1      22.204   4.742  50.469  1.00  0.00    -0.002 A 
HETATM   13  N4  UNL     1      23.299   2.912  50.825  1.00  0.00    -0.334 N 
HETATM   14  H11 UNL     1      21.629   2.516  47.493  1.00  0.00     0.161 HD
ENDROOT
BRANCH   7  15
HETATM   15  N1  UNL     1      20.883   1.965  52.632  1.00  0.00    -0.360 N 
HETATM   16  H5  UNL     1      20.807   2.827  53.215  1.00  0.00     0.162 HD
BRANCH  15  17
HETATM   17  C7  UNL     1      20.850   0.674  53.212  1.00  0.00     0.033 A 
HETATM   18  C8  UNL     1      21.961   0.201  53.877  1.00  0.00     0.029 A 
HETATM   19  C9  UNL     1      21.957  -1.062  54.457  1.00  0.00     0.005 A 
HETATM   20  C10 UNL     1      20.824  -1.851  54.365  1.00  0.00     0.042 A 
HETATM   21  C11 UNL     1      19.701  -1.385  53.700  1.00  0.00     0.118 A 
HETATM   22  F1  UNL     1      18.570  -2.145  53.595  1.00  0.00    -0.206 F 
HETATM   23  C12 UNL     1      19.722  -0.116  53.123  1.00  0.00     0.071 A 
ENDBRANCH  15  17
ENDBRANCH   7  15
BRANCH  13  24
HETATM   24  C16 UNL     1      24.142   1.815  51.421  1.00  0.00     0.129 C 
BRANCH  24  25
HETATM   25  C17 UNL     1      24.415   2.491  52.829  1.00  0.00     0.050 C 
BRANCH  25  26
HETATM   26  C18 UNL     1      25.796   2.062  53.284  1.00  0.00     0.274 C 
BRANCH  26  27
HETATM   27  N5  UNL     1      25.948   0.670  52.996  1.00  0.00     0.092 N 
HETATM   28  C19 UNL     1      27.298   0.315  52.609  1.00  0.00     0.298 C 
HETATM   29  C20 UNL     1      28.260   0.391  53.784  1.00  0.00     0.198 C 
HETATM   30  O2  UNL     1      27.792  -0.321  54.875  1.00  0.00    -0.388 OA
HETATM   31  C21 UNL     1      26.518   0.099  55.244  1.00  0.00     0.198 C 
HETATM   32  C22 UNL     1      25.588  -0.182  54.091  1.00  0.00     0.298 C 
ENDBRANCH  26  27
ENDBRANCH  25  26
ENDBRANCH  24  25
ENDBRANCH  13  24
TORSDOF 6
ENDMDL
MODEL 4
REMARK VINA RESULT:      -7.8      2.234      3.254
REMARK  6 active torsions:
REMARK  status: ('A' for Active; 'I' for Inactive)
REMARK    1  A    between atoms: C6_7  and  N1_8 
REMARK    2  A    between atoms: N1_8  and  C7_9 
REMARK    3  A    between atoms: N4_21  and  C16_22 
REMARK    4  A    between atoms: C16_22  and  C17_23 
REMARK    5  A    between atoms: C17_23  and  C18_24 
REMARK    6  A    between atoms: C18_24  and  N5_25 
ROOT
HETATM    1  O1  UNL     1      21.835   1.044  49.432  1.00  0.00    -0.273 OA
HETATM    2  C1  UNL     1      21.628   2.199  49.637  1.00  0.00     0.222 C 
HETATM    3  C2  UNL     1      20.300   3.219  49.054  1.00  0.00     0.122 C 
HETATM    4  C3  UNL     1      21.215   4.183  49.266  1.00  0.00     0.046 A 
HETATM    5  C4  UNL     1      21.372   4.931  50.380  1.00  0.00     0.080 A 
HETATM    6  C5  UNL     1      22.178   5.309  51.669  1.00  0.00     0.094 C 
HETATM    7  C6  UNL     1      23.289   5.562  50.679  1.00  0.00     0.159 C 
HETATM    8  N2  UNL     1      22.729   6.967  50.374  1.00  0.00    -0.250 NA
HETATM    9  C13 UNL     1      21.392   7.169  50.239  1.00  0.00     0.200 C 
HETATM   10  N3  UNL     1      20.372   6.022  50.211  1.00  0.00    -0.371 N 
HETATM   11  C14 UNL     1      22.770   4.633  49.523  1.00  0.00     0.106 A 
HETATM   12  C15 UNL     1      22.335   3.955  48.404  1.00  0.00    -0.002 A 
HETATM   13  N4  UNL     1      22.363   3.298  50.463  1.00  0.00    -0.334 N 
HETATM   14  H11 UNL     1      19.418   5.592  50.122  1.00  0.00     0.161 HD
ENDROOT
BRANCH   7  15
HETATM   15  N1  UNL     1      24.564   5.503  51.006  1.00  0.00    -0.360 N 
HETATM   16  H5  UNL     1      24.736   5.352  52.025  1.00  0.00     0.162 HD
BRANCH  15  17
HETATM   17  C7  UNL     1      25.632   5.625  50.085  1.00  0.00     0.033 A 
HETATM   18  C8  UNL     1      26.312   4.496  49.682  1.00  0.00     0.029 A 
HETATM   19  C9  UNL     1      27.365   4.586  48.779  1.00  0.00     0.005 A 
HETATM   20  C10 UNL     1      27.732   5.824  48.280  1.00  0.00     0.042 A 
HETATM   21  C11 UNL     1      27.055   6.965  48.679  1.00  0.00     0.118 A 
HETATM   22  F1  UNL     1      27.398   8.199  48.202  1.00  0.00    -0.206 F 
HETATM   23  C12 UNL     1      26.001   6.857  49.586  1.00  0.00     0.071 A 
ENDBRANCH  15  17
ENDBRANCH   7  15
BRANCH  13  24
HETATM   24  C16 UNL     1      22.716   2.657  51.780  1.00  0.00     0.129 C 
BRANCH  24  25
HETATM   25  C17 UNL     1      24.096   2.008  51.342  1.00  0.00     0.050 C 
BRANCH  25  26
HETATM   26  C18 UNL     1      24.560   1.111  52.473  1.00  0.00     0.274 C 
BRANCH  26  27
HETATM   27  N5  UNL     1      25.986   1.177  52.539  1.00  0.00     0.092 N 
HETATM   28  C19 UNL     1      26.482   1.422  53.878  1.00  0.00     0.298 C 
HETATM   29  C20 UNL     1      26.287   0.214  54.780  1.00  0.00     0.198 C 
HETATM   30  O2  UNL     1      26.791  -0.940  54.206  1.00  0.00    -0.388 OA
HETATM   31  C21 UNL     1      26.239  -1.162  52.948  1.00  0.00     0.198 C 
HETATM   32  C22 UNL     1      26.635  -0.008  52.061  1.00  0.00     0.298 C 
ENDBRANCH  26  27
ENDBRANCH  25  26
ENDBRANCH  24  25
ENDBRANCH  13  24
TORSDOF 6
ENDMDL
MODEL 5
REMARK VINA RESULT:      -7.8      3.646      6.436
REMARK  6 active torsions:
REMARK  status: ('A' for Active; 'I' for Inactive)
REMARK    1  A    between atoms: C6_7  and  N1_8 
REMARK    2  A    between atoms: N1_8  and  C7_9 
REMARK    3  A    between atoms: N4_21  and  C16_22 
REMARK    4  A    between atoms: C16_22  and  C17_23 
REMARK    5  A    between atoms: C17_23  and  C18_24 
REMARK    6  A    between atoms: C18_24  and  N5_25 
ROOT
HETATM    1  O1  UNL     1      22.972   6.664  50.704  1.00  0.00    -0.273 OA
HETATM    2  C1  UNL     1      22.903   5.539  51.087  1.00  0.00     0.222 C 
HETATM    3  C2  UNL     1      21.581   4.725  51.942  1.00  0.00     0.122 C 
HETATM    4  C3  UNL     1      22.596   3.946  52.357  1.00  0.00     0.046 A 
HETATM    5  C4  UNL     1      23.020   2.789  51.801  1.00  0.00     0.080 A 
HETATM    6  C5  UNL     1      24.080   1.974  50.985  1.00  0.00     0.094 C 
HETATM    7  C6  UNL     1      25.005   2.420  52.092  1.00  0.00     0.159 C 
HETATM    8  N2  UNL     1      24.517   1.267  52.995  1.00  0.00    -0.250 NA
HETATM    9  C13 UNL     1      23.200   0.937  53.053  1.00  0.00     0.200 C 
HETATM   10  N3  UNL     1      22.101   1.768  52.376  1.00  0.00    -0.371 N 
HETATM   11  C14 UNL     1      24.204   3.691  52.550  1.00  0.00     0.106 A 
HETATM   12  C15 UNL     1      23.513   4.744  53.113  1.00  0.00    -0.002 A 
HETATM   13  N4  UNL     1      23.869   4.315  51.023  1.00  0.00    -0.334 N 
HETATM   14  H11 UNL     1      21.114   2.023  52.121  1.00  0.00     0.161 HD
ENDROOT
BRANCH   7  15
HETATM   15  N1  UNL     1      26.308   2.523  51.935  1.00  0.00    -0.360 N 
HETATM   16  H5  UNL     1      26.597   3.215  51.208  1.00  0.00     0.162 HD
BRANCH  15  17
HETATM   17  C7  UNL     1      27.264   1.779  52.668  1.00  0.00     0.033 A 
HETATM   18  C8  UNL     1      27.295   0.407  52.545  1.00  0.00     0.029 A 
HETATM   19  C9  UNL     1      28.222  -0.349  53.252  1.00  0.00     0.005 A 
HETATM   20  C10 UNL     1      29.123   0.286  54.090  1.00  0.00     0.042 A 
HETATM   21  C11 UNL     1      29.101   1.665  54.221  1.00  0.00     0.118 A 
HETATM   22  F1  UNL     1      29.979   2.315  55.041  1.00  0.00    -0.206 F 
HETATM   23  C12 UNL     1      28.164   2.408  53.504  1.00  0.00     0.071 A 
ENDBRANCH  15  17
ENDBRANCH   7  15
BRANCH  13  24
HETATM   24  C16 UNL     1      24.406   4.287  49.616  1.00  0.00     0.129 C 
BRANCH  24  25
HETATM   25  C17 UNL     1      25.683   5.198  49.853  1.00  0.00     0.050 C 
BRANCH  25  26
HETATM   26  C18 UNL     1      25.795   6.145  48.674  1.00  0.00     0.274 C 
BRANCH  26  27
HETATM   27  N5  UNL     1      26.849   7.072  48.946  1.00  0.00     0.092 N 
HETATM   28  C19 UNL     1      27.323   7.757  47.761  1.00  0.00     0.298 C 
HETATM   29  C20 UNL     1      26.299   8.751  47.238  1.00  0.00     0.198 C 
HETATM   30  O2  UNL     1      25.862   9.608  48.234  1.00  0.00    -0.388 OA
HETATM   31  C21 UNL     1      25.362   8.902  49.324  1.00  0.00     0.198 C 
HETATM   32  C22 UNL     1      26.489   8.082  49.898  1.00  0.00     0.298 C 
ENDBRANCH  26  27
ENDBRANCH  25  26
ENDBRANCH  24  25
ENDBRANCH  13  24
TORSDOF 6
ENDMDL
MODEL 6
REMARK VINA RESULT:      -7.7      2.994      7.092
REMARK  6 active torsions:
REMARK  status: ('A' for Active; 'I' for Inactive)
REMARK    1  A    between atoms: C6_7  and  N1_8 
REMARK    2  A    between atoms: N1_8  and  C7_9 
REMARK    3  A    between atoms: N4_21  and  C16_22 
REMARK    4  A    between atoms: C16_22  and  C17_23 
REMARK    5  A    between atoms: C17_23  and  C18_24 
REMARK    6  A    between atoms: C18_24  and  N5_25 
ROOT
HETATM    1  O1  UNL     1      26.920   3.139  50.471  1.00  0.00    -0.273 OA
HETATM    2  C1  UNL     1      26.763   2.555  51.497  1.00  0.00     0.222 C 
HETATM    3  C2  UNL     1      27.894   2.336  52.845  1.00  0.00     0.122 C 
HETATM    4  C3  UNL     1      27.123   1.253  53.053  1.00  0.00     0.046 A 
HETATM    5  C4  UNL     1      26.049   1.157  53.867  1.00  0.00     0.080 A 
HETATM    6  C5  UNL     1      24.503   1.031  54.079  1.00  0.00     0.094 C 
HETATM    7  C6  UNL     1      24.677  -0.222  53.255  1.00  0.00     0.159 C 
HETATM    8  N2  UNL     1      25.115  -1.012  54.506  1.00  0.00    -0.250 NA
HETATM    9  C13 UNL     1      25.955  -0.459  55.420  1.00  0.00     0.200 C 
HETATM   10  N3  UNL     1      26.649   0.893  55.206  1.00  0.00    -0.371 N 
HETATM   11  C14 UNL     1      26.003   0.183  52.517  1.00  0.00     0.106 A 
HETATM   12  C15 UNL     1      27.230   0.384  51.920  1.00  0.00    -0.002 A 
HETATM   13  N4  UNL     1      25.573   1.760  52.117  1.00  0.00    -0.334 N 
HETATM   14  H11 UNL     1      27.294   1.688  55.447  1.00  0.00     0.161 HD
ENDROOT
BRANCH   7  15
HETATM   15  N1  UNL     1      23.701  -0.751  52.546  1.00  0.00    -0.360 N 
HETATM   16  H5  UNL     1      24.019  -1.234  51.676  1.00  0.00     0.162 HD
BRANCH  15  17
HETATM   17  C7  UNL     1      22.332  -0.692  52.901  1.00  0.00     0.033 A 
HETATM   18  C8  UNL     1      21.854  -1.515  53.898  1.00  0.00     0.029 A 
HETATM   19  C9  UNL     1      20.515  -1.478  54.268  1.00  0.00     0.005 A 
HETATM   20  C10 UNL     1      19.654  -0.605  53.626  1.00  0.00     0.042 A 
HETATM   21  C11 UNL     1      20.123   0.226  52.622  1.00  0.00     0.118 A 
HETATM   22  F1  UNL     1      19.294   1.097  51.973  1.00  0.00    -0.206 F 
HETATM   23  C12 UNL     1      21.470   0.177  52.263  1.00  0.00     0.071 A 
ENDBRANCH  15  17
ENDBRANCH   7  15
BRANCH  13  24
HETATM   24  C16 UNL     1      24.348   2.603  51.880  1.00  0.00     0.129 C 
BRANCH  24  25
HETATM   25  C17 UNL     1      23.996   2.070  50.428  1.00  0.00     0.050 C 
BRANCH  25  26
HETATM   26  C18 UNL     1      23.018   3.047  49.805  1.00  0.00     0.274 C 
BRANCH  26  27
HETATM   27  N5  UNL     1      22.709   2.590  48.487  1.00  0.00     0.092 N 
HETATM   28  C19 UNL     1      21.839   1.431  48.477  1.00  0.00     0.298 C 
HETATM   29  C20 UNL     1      20.426   1.784  48.913  1.00  0.00     0.198 C 
HETATM   30  O2  UNL     1      19.924   2.859  48.198  1.00  0.00    -0.388 OA
HETATM   31  C21 UNL     1      20.765   3.963  48.289  1.00  0.00     0.198 C 
HETATM   32  C22 UNL     1      22.087   3.588  47.667  1.00  0.00     0.298 C 
ENDBRANCH  26  27
ENDBRANCH  25  26
ENDBRANCH  24  25
ENDBRANCH  13  24
TORSDOF 6
ENDMDL
MODEL 7
REMARK VINA RESULT:      -7.4      2.008      2.511
REMARK  6 active torsions:
REMARK  status: ('A' for Active; 'I' for Inactive)
REMARK    1  A    between atoms: C6_7  and  N1_8 
REMARK    2  A    between atoms: N1_8  and  C7_9 
REMARK    3  A    between atoms: N4_21  and  C16_22 
REMARK    4  A    between atoms: C16_22  and  C17_23 
REMARK    5  A    between atoms: C17_23  and  C18_24 
REMARK    6  A    between atoms: C18_24  and  N5_25 
ROOT
HETATM    1  O1  UNL     1      23.150  -0.102  53.713  1.00  0.00    -0.273 OA
HETATM    2  C1  UNL     1      22.309   0.578  53.214  1.00  0.00     0.222 C 
HETATM    3  C2  UNL     1      20.551   0.528  53.437  1.00  0.00     0.122 C 
HETATM    4  C3  UNL     1      20.581   1.091  52.216  1.00  0.00     0.046 A 
HETATM    5  C4  UNL     1      20.561   2.410  51.922  1.00  0.00     0.080 A 
HETATM    6  C5  UNL     1      21.276   3.708  51.415  1.00  0.00     0.094 C 
HETATM    7  C6  UNL     1      21.507   2.876  50.176  1.00  0.00     0.159 C 
HETATM    8  N2  UNL     1      20.092   3.212  49.659  1.00  0.00    -0.250 NA
HETATM    9  C13 UNL     1      19.027   3.225  50.503  1.00  0.00     0.200 C 
HETATM   10  N3  UNL     1      19.112   2.754  51.962  1.00  0.00    -0.371 N 
HETATM   11  C14 UNL     1      21.394   1.457  50.840  1.00  0.00     0.106 A 
HETATM   12  C15 UNL     1      21.183   0.173  51.297  1.00  0.00    -0.002 A 
HETATM   13  N4  UNL     1      22.338   1.762  52.200  1.00  0.00    -0.334 N 
HETATM   14  H11 UNL     1      18.739   2.527  52.918  1.00  0.00     0.161 HD
ENDROOT
BRANCH   7  15
HETATM   15  N1  UNL     1      22.500   3.101  49.340  1.00  0.00    -0.360 N 
HETATM   16  H5  UNL     1      23.402   2.655  49.619  1.00  0.00     0.162 HD
BRANCH  15  17
HETATM   17  C7  UNL     1      22.390   3.870  48.157  1.00  0.00     0.033 A 
HETATM   18  C8  UNL     1      22.688   5.216  48.194  1.00  0.00     0.029 A 
HETATM   19  C9  UNL     1      22.590   5.996  47.047  1.00  0.00     0.005 A 
HETATM   20  C10 UNL     1      22.189   5.413  45.858  1.00  0.00     0.042 A 
HETATM   21  C11 UNL     1      21.887   4.062  45.810  1.00  0.00     0.118 A 
HETATM   22  F1  UNL     1      21.488   3.463  44.648  1.00  0.00    -0.206 F 
HETATM   23  C12 UNL     1      21.990   3.293  46.969  1.00  0.00     0.071 A 
ENDBRANCH  15  17
ENDBRANCH   7  15
BRANCH  13  24
HETATM   24  C16 UNL     1      23.446   2.672  52.661  1.00  0.00     0.129 C 
BRANCH  24  25
HETATM   25  C17 UNL     1      24.655   1.905  51.980  1.00  0.00     0.050 C 
BRANCH  25  26
HETATM   26  C18 UNL     1      25.808   1.900  52.965  1.00  0.00     0.274 C 
BRANCH  26  27
HETATM   27  N5  UNL     1      26.928   1.272  52.337  1.00  0.00     0.092 N 
HETATM   28  C19 UNL     1      28.150   1.390  53.107  1.00  0.00     0.298 C 
HETATM   29  C20 UNL     1      28.109   0.535  54.364  1.00  0.00     0.198 C 
HETATM   30  O2  UNL     1      27.757  -0.774  54.081  1.00  0.00    -0.388 OA
HETATM   31  C21 UNL     1      26.548  -0.835  53.395  1.00  0.00     0.198 C 
HETATM   32  C22 UNL     1      26.729  -0.123  52.078  1.00  0.00     0.298 C 
ENDBRANCH  26  27
ENDBRANCH  25  26
ENDBRANCH  24  25
ENDBRANCH  13  24
TORSDOF 6
ENDMDL
MODEL 8
REMARK VINA RESULT:      -7.2      2.914      5.455
REMARK  6 active torsions:
REMARK  status: ('A' for Active; 'I' for Inactive)
REMARK    1  A    between atoms: C6_7  and  N1_8 
REMARK    2  A    between atoms: N1_8  and  C7_9 
REMARK    3  A    between atoms: N4_21  and  C16_22 
REMARK    4  A    between atoms: C16_22  and  C17_23 
REMARK    5  A    between atoms: C17_23  and  C18_24 
REMARK    6  A    between atoms: C18_24  and  N5_25 
ROOT
HETATM    1  O1  UNL     1      20.475   1.695  48.369  1.00  0.00    -0.273 OA
HETATM    2  C1  UNL     1      20.979   2.616  48.931  1.00  0.00     0.222 C 
HETATM    3  C2  UNL     1      21.359   4.233  48.312  1.00  0.00     0.122 C 
HETATM    4  C3  UNL     1      22.265   4.181  49.305  1.00  0.00     0.046 A 
HETATM    5  C4  UNL     1      22.122   4.639  50.569  1.00  0.00     0.080 A 
HETATM    6  C5  UNL     1      21.942   4.380  52.103  1.00  0.00     0.094 C 
HETATM    7  C6  UNL     1      23.235   3.619  51.940  1.00  0.00     0.159 C 
HETATM    8  N2  UNL     1      24.047   4.927  52.052  1.00  0.00    -0.250 NA
HETATM    9  C13 UNL     1      23.629   6.060  51.428  1.00  0.00     0.200 C 
HETATM   10  N3  UNL     1      22.445   6.089  50.453  1.00  0.00    -0.371 N 
HETATM   11  C14 UNL     1      23.120   3.315  50.403  1.00  0.00     0.106 A 
HETATM   12  C15 UNL     1      23.181   3.113  49.041  1.00  0.00    -0.002 A 
HETATM   13  N4  UNL     1      21.507   2.838  50.382  1.00  0.00    -0.334 N 
HETATM   14  H11 UNL     1      21.780   6.526  49.766  1.00  0.00     0.161 HD
ENDROOT
BRANCH   7  15
HETATM   15  N1  UNL     1      23.594   2.641  52.748  1.00  0.00    -0.360 N 
HETATM   16  H5  UNL     1      22.845   2.337  53.408  1.00  0.00     0.162 HD
BRANCH  15  17
HETATM   17  C7  UNL     1      24.872   2.032  52.747  1.00  0.00     0.033 A 
HETATM   18  C8  UNL     1      25.039   0.806  52.138  1.00  0.00     0.029 A 
HETATM   19  C9  UNL     1      26.282   0.185  52.121  1.00  0.00     0.005 A 
HETATM   20  C10 UNL     1      27.363   0.806  52.722  1.00  0.00     0.042 A 
HETATM   21  C11 UNL     1      27.207   2.038  53.336  1.00  0.00     0.118 A 
HETATM   22  F1  UNL     1      28.258   2.672  53.937  1.00  0.00    -0.206 F 
HETATM   23  C12 UNL     1      25.953   2.648  53.345  1.00  0.00     0.071 A 
ENDBRANCH  15  17
ENDBRANCH   7  15
BRANCH  13  24
HETATM   24  C16 UNL     1      20.455   2.266  51.295  1.00  0.00     0.129 C 
BRANCH  24  25
HETATM   25  C17 UNL     1      20.652   0.737  50.922  1.00  0.00     0.050 C 
BRANCH  25  26
HETATM   26  C18 UNL     1      21.413   0.083  52.058  1.00  0.00     0.274 C 
BRANCH  26  27
HETATM   27  N5  UNL     1      20.720   0.359  53.277  1.00  0.00     0.092 N 
HETATM   28  C19 UNL     1      19.637  -0.569  53.537  1.00  0.00     0.298 C 
HETATM   29  C20 UNL     1      20.155  -1.951  53.900  1.00  0.00     0.198 C 
HETATM   30  O2  UNL     1      21.093  -1.896  54.917  1.00  0.00    -0.388 OA
HETATM   31  C21 UNL     1      22.140  -1.040  54.593  1.00  0.00     0.198 C 
HETATM   32  C22 UNL     1      21.569   0.347  54.432  1.00  0.00     0.298 C 
ENDBRANCH  26  27
ENDBRANCH  25  26
ENDBRANCH  24  25
ENDBRANCH  13  24
TORSDOF 6
ENDMDL
MODEL 9
REMARK VINA RESULT:      -7.2      3.965      7.967
REMARK  6 active torsions:
REMARK  status: ('A' for Active; 'I' for Inactive)
REMARK    1  A    between atoms: C6_7  and  N1_8 
REMARK    2  A    between atoms: N1_8  and  C7_9 
REMARK    3  A    between atoms: N4_21  and  C16_22 
REMARK    4  A    between atoms: C16_22  and  C17_23 
REMARK    5  A    between atoms: C17_23  and  C18_24 
REMARK    6  A    between atoms: C18_24  and  N5_25 
ROOT
HETATM    1  O1  UNL     1      20.270   5.359  48.967  1.00  0.00    -0.273 OA
HETATM    2  C1  UNL     1      21.309   5.037  49.451  1.00  0.00     0.222 C 
HETATM    3  C2  UNL     1      22.909   5.778  49.265  1.00  0.00     0.122 C 
HETATM    4  C3  UNL     1      23.302   4.533  49.589  1.00  0.00     0.046 A 
HETATM    5  C4  UNL     1      23.603   4.063  50.820  1.00  0.00     0.080 A 
HETATM    6  C5  UNL     1      23.262   3.176  52.064  1.00  0.00     0.094 C 
HETATM    7  C6  UNL     1      23.258   2.066  51.042  1.00  0.00     0.159 C 
HETATM    8  N2  UNL     1      24.794   1.949  51.129  1.00  0.00    -0.250 NA
HETATM    9  C13 UNL     1      25.575   3.060  51.191  1.00  0.00     0.200 C 
HETATM   10  N3  UNL     1      25.020   4.480  51.015  1.00  0.00    -0.371 N 
HETATM   11  C14 UNL     1      22.965   2.939  49.770  1.00  0.00     0.106 A 
HETATM   12  C15 UNL     1      22.845   3.626  48.580  1.00  0.00    -0.002 A 
HETATM   13  N4  UNL     1      21.742   3.893  50.420  1.00  0.00    -0.334 N 
HETATM   14  H11 UNL     1      25.076   5.527  50.936  1.00  0.00     0.161 HD
ENDROOT
BRANCH   7  15
HETATM   15  N1  UNL     1      22.580   0.948  51.205  1.00  0.00    -0.360 N 
HETATM   16  H5  UNL     1      22.246   0.517  50.314  1.00  0.00     0.162 HD
BRANCH  15  17
HETATM   17  C7  UNL     1      22.310   0.352  52.461  1.00  0.00     0.033 A 
HETATM   18  C8  UNL     1      21.018   0.338  52.941  1.00  0.00     0.029 A 
HETATM   19  C9  UNL     1      20.724  -0.240  54.170  1.00  0.00     0.005 A 
HETATM   20  C10 UNL     1      21.741  -0.807  54.918  1.00  0.00     0.042 A 
HETATM   21  C11 UNL     1      23.043  -0.799  54.445  1.00  0.00     0.118 A 
HETATM   22  F1  UNL     1      24.065  -1.351  55.164  1.00  0.00    -0.206 F 
HETATM   23  C12 UNL     1      23.321  -0.214  53.210  1.00  0.00     0.071 A 
ENDBRANCH  15  17
ENDBRANCH   7  15
BRANCH  13  24
HETATM   24  C16 UNL     1      20.702   3.861  51.509  1.00  0.00     0.129 C 
BRANCH  24  25
HETATM   25  C17 UNL     1      19.658   2.912  50.784  1.00  0.00     0.050 C 
BRANCH  25  26
HETATM   26  C18 UNL     1      18.375   2.940  51.591  1.00  0.00     0.274 C 
BRANCH  26  27
HETATM   27  N5  UNL     1      17.570   4.020  51.112  1.00  0.00     0.092 N 
HETATM   28  C19 UNL     1      17.121   3.831  49.747  1.00  0.00     0.298 C 
HETATM   29  C20 UNL     1      16.077   2.731  49.645  1.00  0.00     0.198 C 
HETATM   30  O2  UNL     1      15.043   2.922  50.547  1.00  0.00    -0.388 OA
HETATM   31  C21 UNL     1      15.522   3.037  51.848  1.00  0.00     0.198 C 
HETATM   32  C22 UNL     1      16.403   4.260  51.909  1.00  0.00     0.298 C 
ENDBRANCH  26  27
ENDBRANCH  25  26
ENDBRANCH  24  25
ENDBRANCH  13  24
TORSDOF 6
ENDMDL
