MODEL 1
REMARK VINA RESULT:      -8.5      0.000      0.000
REMARK  1 active torsions:
REMARK  status: ('A' for Active; 'I' for Inactive)
REMARK    1  A    between atoms: C7_9  and  C8_10 
ROOT
HETATM    1  O1  UNL     1      21.727   2.581  48.434  1.00  0.00    -0.258 OA
HETATM    2  C1  UNL     1      22.700   3.053  48.737  1.00  0.00     0.296 C 
HETATM    3  C2  UNL     1      22.686   2.161  49.896  1.00  0.00    -0.004 C 
HETATM    4  C3  UNL     1      22.690   1.485  50.800  1.00  0.00    -0.080 C 
HETATM    5  C4  UNL     1      22.712   0.636  51.971  1.00  0.00     0.215 C 
HETATM    6  N1  UNL     1      23.106   1.573  53.045  1.00  0.00    -0.174 NA
HETATM    7  C5  UNL     1      24.334   1.350  53.698  1.00  0.00     0.189 C 
HETATM    8  C6  UNL     1      24.902   2.131  52.584  1.00  0.00     0.096 C 
HETATM    9  C7  UNL     1      26.154   2.033  52.118  1.00  0.00     0.006 C 
HETATM   10  C14 UNL     1      26.563   2.780  50.902  1.00  0.00     0.012 C 
HETATM   11  C15 UNL     1      25.875   3.597  50.162  1.00  0.00    -0.006 C 
HETATM   12  C16 UNL     1      25.228   4.555  49.202  1.00  0.00     0.150 C 
HETATM   13  N2  UNL     1      23.896   3.763  48.957  1.00  0.00    -0.347 N 
HETATM   14  O2  UNL     1      23.671   2.726  52.501  1.00  0.00    -0.263 OA
HETATM   15  H12 UNL     1      24.213   3.227  49.732  1.00  0.00     0.163 HD
ENDROOT
BRANCH   9  16
HETATM   16  C8  UNL     1      27.177   1.166  52.615  1.00  0.00    -0.022 A 
HETATM   17  C9  UNL     1      28.249   1.715  53.250  1.00  0.00     0.015 A 
HETATM   18  C10 UNL     1      29.226   0.877  53.736  1.00  0.00     0.045 A 
HETATM   19  C11 UNL     1      29.200  -0.516  53.624  1.00  0.00     0.138 A 
HETATM   20  F1  UNL     1      30.163  -1.311  54.105  1.00  0.00    -0.204 F 
HETATM   21  C12 UNL     1      28.072  -1.012  52.961  1.00  0.00     0.073 A 
HETATM   22 CL1  UNL     1      27.946  -2.743  52.764  1.00  0.00    -0.081 Cl
HETATM   23  C13 UNL     1      27.080  -0.199  52.465  1.00  0.00     0.039 A 
ENDBRANCH   9  16
TORSDOF 1
ENDMDL
MODEL 2
REMARK VINA RESULT:      -8.5      1.930      3.433
REMARK  1 active torsions:
REMARK  status: ('A' for Active; 'I' for Inactive)
REMARK    1  A    between atoms: C7_9  and  C8_10 
ROOT
HETATM    1  O1  UNL     1      19.713   3.339  52.666  1.00  0.00    -0.258 OA
HETATM    2  C1  UNL     1      20.252   2.354  52.707  1.00  0.00     0.296 C 
HETATM    3  C2  UNL     1      21.431   3.063  52.212  1.00  0.00    -0.004 C 
HETATM    4  C3  UNL     1      22.351   3.590  51.824  1.00  0.00    -0.080 C 
HETATM    5  C4  UNL     1      23.538   4.242  51.318  1.00  0.00     0.215 C 
HETATM    6  N1  UNL     1      24.019   3.293  50.292  1.00  0.00    -0.174 NA
HETATM    7  C5  UNL     1      25.270   2.678  50.495  1.00  0.00     0.189 C 
HETATM    8  C6  UNL     1      24.496   1.695  51.276  1.00  0.00     0.096 C 
HETATM    9  C7  UNL     1      24.968   0.950  52.284  1.00  0.00     0.006 C 
HETATM   10  C14 UNL     1      24.051   0.095  53.079  1.00  0.00     0.012 C 
HETATM   11  C15 UNL     1      22.773  -0.094  52.947  1.00  0.00    -0.006 C 
HETATM   12  C16 UNL     1      21.306  -0.420  52.940  1.00  0.00     0.150 C 
HETATM   13  N2  UNL     1      20.751   1.042  52.817  1.00  0.00    -0.347 N 
HETATM   14  O2  UNL     1      23.437   2.040  50.478  1.00  0.00    -0.263 OA
HETATM   15  H12 UNL     1      21.701   1.258  52.620  1.00  0.00     0.163 HD
ENDROOT
BRANCH   9  16
HETATM   16  C8  UNL     1      26.308   0.954  52.785  1.00  0.00    -0.022 A 
HETATM   17  C9  UNL     1      26.822   2.118  53.270  1.00  0.00     0.015 A 
HETATM   18  C10 UNL     1      28.107   2.116  53.761  1.00  0.00     0.045 A 
HETATM   19  C11 UNL     1      28.937   0.992  53.799  1.00  0.00     0.138 A 
HETATM   20  F1  UNL     1      30.185   1.014  54.283  1.00  0.00    -0.204 F 
HETATM   21  C12 UNL     1      28.346  -0.168  53.285  1.00  0.00     0.073 A 
HETATM   22 CL1  UNL     1      29.303  -1.629  53.283  1.00  0.00    -0.081 Cl
HETATM   23  C13 UNL     1      27.064  -0.196  52.788  1.00  0.00     0.039 A 
ENDBRANCH   9  16
TORSDOF 1
ENDMDL
MODEL 3
REMARK VINA RESULT:      -8.3      7.347      9.091
REMARK  1 active torsions:
REMARK  status: ('A' for Active; 'I' for Inactive)
REMARK    1  A    between atoms: C7_9  and  C8_10 
ROOT
HETATM    1  O1  UNL     1      27.337   9.739  50.511  1.00  0.00    -0.258 OA
HETATM    2  C1  UNL     1      27.324   8.751  49.977  1.00  0.00     0.296 C 
HETATM    3  C2  UNL     1      28.638   9.107  49.441  1.00  0.00    -0.004 C 
HETATM    4  C3  UNL     1      29.649   9.366  49.012  1.00  0.00    -0.080 C 
HETATM    5  C4  UNL     1      30.940   9.680  48.443  1.00  0.00     0.215 C 
HETATM    6  N1  UNL     1      30.778   9.281  47.028  1.00  0.00    -0.174 NA
HETATM    7  C5  UNL     1      31.580   8.230  46.542  1.00  0.00     0.189 C 
HETATM    8  C6  UNL     1      30.514   7.364  47.078  1.00  0.00     0.096 C 
HETATM    9  C7  UNL     1      30.665   6.098  47.488  1.00  0.00     0.006 C 
HETATM   10  C14 UNL     1      29.540   5.378  48.135  1.00  0.00     0.012 C 
HETATM   11  C15 UNL     1      28.328   5.779  48.372  1.00  0.00    -0.006 C 
HETATM   12  C16 UNL     1      26.899   6.083  48.726  1.00  0.00     0.150 C 
HETATM   13  N2  UNL     1      27.123   7.488  49.385  1.00  0.00    -0.347 N 
HETATM   14  O2  UNL     1      29.680   8.434  46.885  1.00  0.00    -0.263 OA
HETATM   15  H12 UNL     1      28.029   7.398  48.986  1.00  0.00     0.163 HD
ENDROOT
BRANCH   9  16
HETATM   16  C8  UNL     1      31.880   5.343  47.473  1.00  0.00    -0.022 A 
HETATM   17  C9  UNL     1      31.970   4.262  46.650  1.00  0.00     0.015 A 
HETATM   18  C10 UNL     1      33.144   3.545  46.631  1.00  0.00     0.045 A 
HETATM   19  C11 UNL     1      34.268   3.847  47.405  1.00  0.00     0.138 A 
HETATM   20  F1  UNL     1      35.400   3.135  47.369  1.00  0.00    -0.204 F 
HETATM   21  C12 UNL     1      34.106   4.969  48.227  1.00  0.00     0.073 A 
HETATM   22 CL1  UNL     1      35.454   5.429  49.239  1.00  0.00    -0.081 Cl
HETATM   23  C13 UNL     1      32.946   5.704  48.267  1.00  0.00     0.039 A 
ENDBRANCH   9  16
TORSDOF 1
ENDMDL
MODEL 4
REMARK VINA RESULT:      -8.1      2.004      3.304
REMARK  1 active torsions:
REMARK  status: ('A' for Active; 'I' for Inactive)
REMARK    1  A    between atoms: C7_9  and  C8_10 
ROOT
HETATM    1  O1  UNL     1      21.883   6.658  51.204  1.00  0.00    -0.258 OA
HETATM    2  C1  UNL     1      21.854   5.568  51.474  1.00  0.00     0.296 C 
HETATM    3  C2  UNL     1      23.226   5.484  50.975  1.00  0.00    -0.004 C 
HETATM    4  C3  UNL     1      24.283   5.397  50.588  1.00  0.00    -0.080 C 
HETATM    5  C4  UNL     1      25.634   5.259  50.090  1.00  0.00     0.215 C 
HETATM    6  N1  UNL     1      25.565   4.010  49.303  1.00  0.00    -0.174 NA
HETATM    7  C5  UNL     1      26.339   2.915  49.733  1.00  0.00     0.189 C 
HETATM    8  C6  UNL     1      25.182   2.624  50.600  1.00  0.00     0.096 C 
HETATM    9  C7  UNL     1      25.223   1.967  51.766  1.00  0.00     0.006 C 
HETATM   10  C14 UNL     1      24.006   1.859  52.610  1.00  0.00     0.012 C 
HETATM   11  C15 UNL     1      22.805   2.303  52.392  1.00  0.00    -0.006 C 
HETATM   12  C16 UNL     1      21.373   2.749  52.303  1.00  0.00     0.150 C 
HETATM   13  N2  UNL     1      21.627   4.234  51.866  1.00  0.00    -0.347 N 
HETATM   14  O2  UNL     1      24.433   3.276  49.655  1.00  0.00    -0.263 OA
HETATM   15  H12 UNL     1      22.556   3.908  51.725  1.00  0.00     0.163 HD
ENDROOT
BRANCH   9  16
HETATM   16  C8  UNL     1      26.387   1.413  52.385  1.00  0.00    -0.022 A 
HETATM   17  C9  UNL     1      27.241   2.247  53.040  1.00  0.00     0.015 A 
HETATM   18  C10 UNL     1      28.354   1.708  53.643  1.00  0.00     0.045 A 
HETATM   19  C11 UNL     1      28.679   0.349  53.633  1.00  0.00     0.138 A 
HETATM   20  F1  UNL     1      29.768  -0.152  54.227  1.00  0.00    -0.204 F 
HETATM   21  C12 UNL     1      27.759  -0.450  52.943  1.00  0.00     0.073 A 
HETATM   22 CL1  UNL     1      28.077  -2.166  52.867  1.00  0.00    -0.081 Cl
HETATM   23  C13 UNL     1      26.639   0.061  52.331  1.00  0.00     0.039 A 
ENDBRANCH   9  16
TORSDOF 1
ENDMDL
MODEL 5
REMARK VINA RESULT:      -7.9      4.015      5.907
REMARK  1 active torsions:
REMARK  status: ('A' for Active; 'I' for Inactive)
REMARK    1  A    between atoms: C7_9  and  C8_10 
ROOT
HETATM    1  O1  UNL     1      26.657   4.627  48.810  1.00  0.00    -0.258 OA
HETATM    2  C1  UNL     1      26.627   3.982  49.729  1.00  0.00     0.296 C 
HETATM    3  C2  UNL     1      25.201   4.298  49.813  1.00  0.00    -0.004 C 
HETATM    4  C3  UNL     1      24.101   4.535  49.900  1.00  0.00    -0.080 C 
HETATM    5  C4  UNL     1      22.692   4.832  50.036  1.00  0.00     0.215 C 
HETATM    6  N1  UNL     1      22.557   5.114  51.481  1.00  0.00    -0.174 NA
HETATM    7  C5  UNL     1      21.753   4.251  52.250  1.00  0.00     0.189 C 
HETATM    8  C6  UNL     1      22.980   3.439  52.357  1.00  0.00     0.096 C 
HETATM    9  C7  UNL     1      23.028   2.115  52.550  1.00  0.00     0.006 C 
HETATM   10  C14 UNL     1      24.326   1.395  52.503  1.00  0.00     0.012 C 
HETATM   11  C15 UNL     1      25.524   1.861  52.317  1.00  0.00    -0.006 C 
HETATM   12  C16 UNL     1      26.966   2.228  52.111  1.00  0.00     0.150 C 
HETATM   13  N2  UNL     1      26.787   3.152  50.856  1.00  0.00    -0.347 N 
HETATM   14  O2  UNL     1      23.658   4.616  52.178  1.00  0.00    -0.263 OA
HETATM   15  H12 UNL     1      25.824   3.085  51.093  1.00  0.00     0.163 HD
ENDROOT
BRANCH   9  16
HETATM   16  C8  UNL     1      21.907   1.240  52.702  1.00  0.00    -0.022 A 
HETATM   17  C9  UNL     1      21.813   0.484  53.831  1.00  0.00     0.015 A 
HETATM   18  C10 UNL     1      20.728  -0.348  53.978  1.00  0.00     0.045 A 
HETATM   19  C11 UNL     1      19.699  -0.478  53.042  1.00  0.00     0.138 A 
HETATM   20  F1  UNL     1      18.651  -1.295  53.208  1.00  0.00    -0.204 F 
HETATM   21  C12 UNL     1      19.858   0.326  51.908  1.00  0.00     0.073 A 
HETATM   22 CL1  UNL     1      18.625   0.234  50.672  1.00  0.00    -0.081 Cl
HETATM   23  C13 UNL     1      20.932   1.167  51.733  1.00  0.00     0.039 A 
ENDBRANCH   9  16
TORSDOF 1
ENDMDL
MODEL 6
REMARK VINA RESULT:      -7.9      3.930      6.025
REMARK  1 active torsions:
REMARK  status: ('A' for Active; 'I' for Inactive)
REMARK    1  A    between atoms: C7_9  and  C8_10 
ROOT
HETATM    1  O1  UNL     1      21.770  -1.189  55.286  1.00  0.00    -0.258 OA
HETATM    2  C1  UNL     1      22.702  -0.979  54.696  1.00  0.00     0.296 C 
HETATM    3  C2  UNL     1      21.915  -0.004  53.941  1.00  0.00    -0.004 C 
HETATM    4  C3  UNL     1      21.324   0.748  53.342  1.00  0.00    -0.080 C 
HETATM    5  C4  UNL     1      20.584   1.709  52.555  1.00  0.00     0.215 C 
HETATM    6  N1  UNL     1      21.014   1.401  51.175  1.00  0.00    -0.174 NA
HETATM    7  C5  UNL     1      21.725   2.390  50.468  1.00  0.00     0.189 C 
HETATM    8  C6  UNL     1      22.906   1.815  51.139  1.00  0.00     0.096 C 
HETATM    9  C7  UNL     1      24.041   2.466  51.420  1.00  0.00     0.006 C 
HETATM   10  C14 UNL     1      25.105   1.810  52.220  1.00  0.00     0.012 C 
HETATM   11  C15 UNL     1      25.146   0.611  52.718  1.00  0.00    -0.006 C 
HETATM   12  C16 UNL     1      25.353  -0.730  53.364  1.00  0.00     0.150 C 
HETATM   13  N2  UNL     1      23.956  -0.861  54.066  1.00  0.00    -0.347 N 
HETATM   14  O2  UNL     1      22.188   0.649  51.189  1.00  0.00    -0.263 OA
HETATM   15  H12 UNL     1      23.729  -0.081  53.492  1.00  0.00     0.163 HD
ENDROOT
BRANCH   9  16
HETATM   16  C8  UNL     1      24.331   3.833  51.114  1.00  0.00    -0.022 A 
HETATM   17  C9  UNL     1      23.689   4.811  51.810  1.00  0.00     0.015 A 
HETATM   18  C10 UNL     1      23.978   6.124  51.520  1.00  0.00     0.045 A 
HETATM   19  C11 UNL     1      24.896   6.536  50.550  1.00  0.00     0.138 A 
HETATM   20  F1  UNL     1      25.161   7.821  50.286  1.00  0.00    -0.204 F 
HETATM   21  C12 UNL     1      25.518   5.481  49.873  1.00  0.00     0.073 A 
HETATM   22 CL1  UNL     1      26.681   5.890  48.635  1.00  0.00    -0.081 Cl
HETATM   23  C13 UNL     1      25.249   4.160  50.141  1.00  0.00     0.039 A 
ENDBRANCH   9  16
TORSDOF 1
ENDMDL
MODEL 7
REMARK VINA RESULT:      -7.9      4.462      7.275
REMARK  1 active torsions:
REMARK  status: ('A' for Active; 'I' for Inactive)
REMARK    1  A    between atoms: C7_9  and  C8_10 
ROOT
HETATM    1  O1  UNL     1      27.920  -0.283  52.985  1.00  0.00    -0.258 OA
HETATM    2  C1  UNL     1      26.984  -0.481  53.573  1.00  0.00     0.296 C 
HETATM    3  C2  UNL     1      26.312   0.462  52.680  1.00  0.00    -0.004 C 
HETATM    4  C3  UNL     1      25.777   1.192  52.005  1.00  0.00    -0.080 C 
HETATM    5  C4  UNL     1      25.073   2.130  51.159  1.00  0.00     0.215 C 
HETATM    6  N1  UNL     1      24.288   2.920  52.131  1.00  0.00    -0.174 NA
HETATM    7  C5  UNL     1      22.883   2.847  52.060  1.00  0.00     0.189 C 
HETATM    8  C6  UNL     1      23.047   1.655  52.913  1.00  0.00     0.096 C 
HETATM    9  C7  UNL     1      22.205   0.615  52.975  1.00  0.00     0.006 C 
HETATM   10  C14 UNL     1      22.553  -0.586  53.774  1.00  0.00     0.012 C 
HETATM   11  C15 UNL     1      23.603  -0.820  54.503  1.00  0.00    -0.006 C 
HETATM   12  C16 UNL     1      24.746  -1.254  55.377  1.00  0.00     0.150 C 
HETATM   13  N2  UNL     1      25.925  -0.846  54.427  1.00  0.00    -0.347 N 
HETATM   14  O2  UNL     1      24.204   2.246  53.349  1.00  0.00    -0.263 OA
HETATM   15  H12 UNL     1      25.203  -0.377  53.929  1.00  0.00     0.163 HD
ENDROOT
BRANCH   9  16
HETATM   16  C8  UNL     1      20.987   0.467  52.240  1.00  0.00    -0.022 A 
HETATM   17  C9  UNL     1      20.965   0.830  50.928  1.00  0.00     0.015 A 
HETATM   18  C10 UNL     1      19.794   0.676  50.222  1.00  0.00     0.045 A 
HETATM   19  C11 UNL     1      18.608   0.168  50.759  1.00  0.00     0.138 A 
HETATM   20  F1  UNL     1      17.481   0.028  50.052  1.00  0.00    -0.204 F 
HETATM   21  C12 UNL     1      18.702  -0.183  52.110  1.00  0.00     0.073 A 
HETATM   22 CL1  UNL     1      17.270  -0.825  52.879  1.00  0.00    -0.081 Cl
HETATM   23  C13 UNL     1      19.858  -0.041  52.841  1.00  0.00     0.039 A 
ENDBRANCH   9  16
TORSDOF 1
ENDMDL
MODEL 8
REMARK VINA RESULT:      -7.8      4.433      6.336
REMARK  1 active torsions:
REMARK  status: ('A' for Active; 'I' for Inactive)
REMARK    1  A    between atoms: C7_9  and  C8_10 
ROOT
HETATM    1  O1  UNL     1      27.485   8.990  46.306  1.00  0.00    -0.258 OA
HETATM    2  C1  UNL     1      27.820   8.076  46.867  1.00  0.00     0.296 C 
HETATM    3  C2  UNL     1      26.520   8.100  47.535  1.00  0.00    -0.004 C 
HETATM    4  C3  UNL     1      25.524   8.105  48.067  1.00  0.00    -0.080 C 
HETATM    5  C4  UNL     1      24.259   8.098  48.768  1.00  0.00     0.215 C 
HETATM    6  N1  UNL     1      24.663   7.845  50.167  1.00  0.00    -0.174 NA
HETATM    7  C5  UNL     1      24.231   6.650  50.774  1.00  0.00     0.189 C 
HETATM    8  C6  UNL     1      25.434   6.068  50.149  1.00  0.00     0.096 C 
HETATM    9  C7  UNL     1      25.592   4.785  49.800  1.00  0.00     0.006 C 
HETATM   10  C14 UNL     1      26.801   4.353  49.055  1.00  0.00     0.012 C 
HETATM   11  C15 UNL     1      27.828   5.049  48.669  1.00  0.00    -0.006 C 
HETATM   12  C16 UNL     1      29.078   5.701  48.148  1.00  0.00     0.150 C 
HETATM   13  N2  UNL     1      28.415   6.952  47.473  1.00  0.00    -0.347 N 
HETATM   14  O2  UNL     1      25.959   7.332  50.213  1.00  0.00    -0.263 OA
HETATM   15  H12 UNL     1      27.612   6.648  47.974  1.00  0.00     0.163 HD
ENDROOT
BRANCH   9  16
HETATM   16  C8  UNL     1      24.636   3.736  49.976  1.00  0.00    -0.022 A 
HETATM   17  C9  UNL     1      23.676   3.558  49.027  1.00  0.00     0.015 A 
HETATM   18  C10 UNL     1      22.765   2.541  49.195  1.00  0.00     0.045 A 
HETATM   19  C11 UNL     1      22.751   1.663  50.282  1.00  0.00     0.138 A 
HETATM   20  F1  UNL     1      21.854   0.680  50.424  1.00  0.00    -0.204 F 
HETATM   21  C12 UNL     1      23.765   1.902  51.218  1.00  0.00     0.073 A 
HETATM   22 CL1  UNL     1      23.832   0.861  52.619  1.00  0.00    -0.081 Cl
HETATM   23  C13 UNL     1      24.688   2.911  51.077  1.00  0.00     0.039 A 
ENDBRANCH   9  16
TORSDOF 1
ENDMDL
MODEL 9
REMARK VINA RESULT:      -7.8      4.019      6.122
REMARK  1 active torsions:
REMARK  status: ('A' for Active; 'I' for Inactive)
REMARK    1  A    between atoms: C7_9  and  C8_10 
ROOT
HETATM    1  O1  UNL     1      22.539   0.662  53.792  1.00  0.00    -0.258 OA
HETATM    2  C1  UNL     1      23.518   0.663  53.241  1.00  0.00     0.296 C 
HETATM    3  C2  UNL     1      22.958   1.719  52.399  1.00  0.00    -0.004 C 
HETATM    4  C3  UNL     1      22.542   2.531  51.734  1.00  0.00    -0.080 C 
HETATM    5  C4  UNL     1      22.026   3.564  50.863  1.00  0.00     0.215 C 
HETATM    6  N1  UNL     1      22.449   3.102  49.524  1.00  0.00    -0.174 NA
HETATM    7  C5  UNL     1      23.360   3.901  48.806  1.00  0.00     0.189 C 
HETATM    8  C6  UNL     1      24.384   3.159  49.565  1.00  0.00     0.096 C 
HETATM    9  C7  UNL     1      25.608   3.607  49.871  1.00  0.00     0.006 C 
HETATM   10  C14 UNL     1      26.498   2.815  50.757  1.00  0.00     0.012 C 
HETATM   11  C15 UNL     1      26.294   1.660  51.316  1.00  0.00    -0.006 C 
HETATM   12  C16 UNL     1      26.222   0.344  52.038  1.00  0.00     0.150 C 
HETATM   13  N2  UNL     1      24.797   0.512  52.672  1.00  0.00    -0.347 N 
HETATM   14  O2  UNL     1      23.461   2.150  49.636  1.00  0.00    -0.263 OA
HETATM   15  H12 UNL     1      24.742   1.285  52.049  1.00  0.00     0.163 HD
ENDROOT
BRANCH   9  16
HETATM   16  C8  UNL     1      26.160   4.877  49.513  1.00  0.00    -0.022 A 
HETATM   17  C9  UNL     1      27.267   4.912  48.722  1.00  0.00     0.015 A 
HETATM   18  C10 UNL     1      27.788   6.136  48.371  1.00  0.00     0.045 A 
HETATM   19  C11 UNL     1      27.258   7.365  48.773  1.00  0.00     0.138 A 
HETATM   20  F1  UNL     1      27.782   8.544  48.419  1.00  0.00    -0.204 F 
HETATM   21  C12 UNL     1      26.122   7.256  49.584  1.00  0.00     0.073 A 
HETATM   22 CL1  UNL     1      25.384   8.737  50.144  1.00  0.00    -0.081 Cl
HETATM   23  C13 UNL     1      25.579   6.047  49.950  1.00  0.00     0.039 A 
ENDBRANCH   9  16
TORSDOF 1
ENDMDL
