MODEL 1
REMARK VINA RESULT:      -7.8      0.000      0.000
REMARK  3 active torsions:
REMARK  status: ('A' for Active; 'I' for Inactive)
REMARK    1  A    between atoms: C2_2  and  C3_3 
REMARK       I    between atoms: C3_3  and  N1_5 
REMARK    2  A    between atoms: N1_5  and  C4_6 
REMARK    3  A    between atoms: C10_13  and  N3_14 
ROOT
HETATM    1  C4  UNL     1      27.323   1.935  53.273  1.00  0.00     0.346 C 
HETATM    2  C5  UNL     1      26.779   2.580  52.059  1.00  0.00     0.039 C 
HETATM    3  C6  UNL     1      25.553   2.384  51.601  1.00  0.00    -0.021 A 
HETATM    4  C7  UNL     1      24.766   1.444  52.432  1.00  0.00    -0.004 A 
HETATM    5  C8  UNL     1      23.517   1.105  52.120  1.00  0.00     0.125 A 
HETATM    6  N2  UNL     1      22.885   1.645  50.961  1.00  0.00    -0.274 NA
HETATM    7  C9  UNL     1      23.575   2.475  50.235  1.00  0.00     0.119 A 
HETATM    8  C10 UNL     1      24.983   3.011  50.382  1.00  0.00     0.158 A 
HETATM    9  C16 UNL     1      25.251   0.784  53.672  1.00  0.00     0.313 C 
HETATM   10  N4  UNL     1      26.298   1.584  54.225  1.00  0.00     0.114 N 
HETATM   11  H19 UNL     1      25.886   2.409  54.680  1.00  0.00     0.319 HD
ENDROOT
BRANCH   8  12
HETATM   12  N3  UNL     1      24.945   4.459  50.443  1.00  0.00    -0.372 N 
HETATM   13  C11 UNL     1      25.957   4.955  49.542  1.00  0.00     0.106 A 
HETATM   14  C12 UNL     1      26.184   6.256  49.325  1.00  0.00     0.025 A 
HETATM   15 BR1  UNL     1      27.491   7.004  48.157  1.00  0.00    -0.050 Br
HETATM   16  C13 UNL     1      25.378   7.270  50.037  1.00  0.00     0.018 A 
HETATM   17  C14 UNL     1      24.458   6.796  50.870  1.00  0.00    -0.006 A 
HETATM   18  C15 UNL     1      24.134   5.382  51.178  1.00  0.00     0.150 A 
ENDBRANCH   8  12
BRANCH   1  19
HETATM   19  N1  UNL     1      28.188   0.807  52.982  1.00  0.00    -0.328 N 
HETATM   20  C3  UNL     1      28.978   0.259  54.039  1.00  0.00     0.219 C 
HETATM   21  O1  UNL     1      28.930   0.741  55.204  1.00  0.00    -0.274 OA
HETATM   22  H6  UNL     1      28.235   0.399  52.017  1.00  0.00     0.164 HD
BRANCH  20  23
HETATM   23  C2  UNL     1      29.853  -0.900  53.702  1.00  0.00     0.098 C 
HETATM   24  C1  UNL     1      29.055  -2.068  53.202  1.00  0.00     0.014 C 
ENDBRANCH  20  23
ENDBRANCH   1  19
TORSDOF 3
ENDMDL
MODEL 2
REMARK VINA RESULT:      -7.6      1.600      1.874
REMARK  3 active torsions:
REMARK  status: ('A' for Active; 'I' for Inactive)
REMARK    1  A    between atoms: C2_2  and  C3_3 
REMARK       I    between atoms: C3_3  and  N1_5 
REMARK    2  A    between atoms: N1_5  and  C4_6 
REMARK    3  A    between atoms: C10_13  and  N3_14 
ROOT
HETATM    1  C4  UNL     1      26.793   1.777  53.514  1.00  0.00     0.346 C 
HETATM    2  C5  UNL     1      25.836   2.147  52.449  1.00  0.00     0.039 C 
HETATM    3  C6  UNL     1      24.657   1.569  52.279  1.00  0.00    -0.021 A 
HETATM    4  C7  UNL     1      24.383   0.503  53.269  1.00  0.00    -0.004 A 
HETATM    5  C8  UNL     1      23.257  -0.206  53.246  1.00  0.00     0.125 A 
HETATM    6  N2  UNL     1      22.261   0.041  52.255  1.00  0.00    -0.274 NA
HETATM    7  C9  UNL     1      22.501   0.983  51.389  1.00  0.00     0.119 A 
HETATM    8  C10 UNL     1      23.680   1.914  51.215  1.00  0.00     0.158 A 
HETATM    9  C16 UNL     1      25.295   0.104  54.373  1.00  0.00     0.313 C 
HETATM   10  N4  UNL     1      26.146   1.211  54.673  1.00  0.00     0.114 N 
HETATM   11  H19 UNL     1      25.612   1.911  55.205  1.00  0.00     0.319 HD
ENDROOT
BRANCH   8  12
HETATM   12  N3  UNL     1      23.223   3.289  51.276  1.00  0.00    -0.372 N 
HETATM   13  C11 UNL     1      23.796   3.984  50.148  1.00  0.00     0.106 A 
HETATM   14  C12 UNL     1      23.564   5.274  49.875  1.00  0.00     0.025 A 
HETATM   15 BR1  UNL     1      24.271   6.272  48.415  1.00  0.00    -0.050 Br
HETATM   16  C13 UNL     1      22.682   6.063  50.760  1.00  0.00     0.018 A 
HETATM   17  C14 UNL     1      22.171   5.410  51.798  1.00  0.00    -0.006 A 
HETATM   18  C15 UNL     1      22.370   3.992  52.185  1.00  0.00     0.150 A 
ENDBRANCH   8  12
BRANCH   1  19
HETATM   19  N1  UNL     1      27.874   0.932  53.043  1.00  0.00    -0.328 N 
HETATM   20  C3  UNL     1      28.926   0.596  53.949  1.00  0.00     0.219 C 
HETATM   21  O1  UNL     1      28.923   1.023  55.136  1.00  0.00    -0.274 OA
HETATM   22  H6  UNL     1      27.886   0.573  52.058  1.00  0.00     0.164 HD
BRANCH  20  23
HETATM   23  C2  UNL     1      30.018  -0.274  53.428  1.00  0.00     0.098 C 
HETATM   24  C1  UNL     1      29.604  -1.715  53.384  1.00  0.00     0.014 C 
ENDBRANCH  20  23
ENDBRANCH   1  19
TORSDOF 3
ENDMDL
MODEL 3
REMARK VINA RESULT:      -7.6      3.860      4.502
REMARK  3 active torsions:
REMARK  status: ('A' for Active; 'I' for Inactive)
REMARK    1  A    between atoms: C2_2  and  C3_3 
REMARK       I    between atoms: C3_3  and  N1_5 
REMARK    2  A    between atoms: N1_5  and  C4_6 
REMARK    3  A    between atoms: C10_13  and  N3_14 
ROOT
HETATM    1  C4  UNL     1      26.223   0.668  53.761  1.00  0.00     0.346 C 
HETATM    2  C5  UNL     1      24.956   0.365  53.061  1.00  0.00     0.039 C 
HETATM    3  C6  UNL     1      23.969  -0.341  53.589  1.00  0.00    -0.021 A 
HETATM    4  C7  UNL     1      24.255  -0.804  54.965  1.00  0.00    -0.004 A 
HETATM    5  C8  UNL     1      23.391  -1.546  55.653  1.00  0.00     0.125 A 
HETATM    6  N2  UNL     1      22.139  -1.922  55.081  1.00  0.00    -0.274 NA
HETATM    7  C9  UNL     1      21.885  -1.509  53.873  1.00  0.00     0.119 A 
HETATM    8  C10 UNL     1      22.690  -0.667  52.908  1.00  0.00     0.158 A 
HETATM    9  C16 UNL     1      25.499  -0.512  55.726  1.00  0.00     0.313 C 
HETATM   10  N4  UNL     1      26.078   0.681  55.197  1.00  0.00     0.114 N 
HETATM   11  H19 UNL     1      25.540   1.492  55.529  1.00  0.00     0.319 HD
ENDROOT
BRANCH   8  12
HETATM   12  N3  UNL     1      21.922   0.504  52.532  1.00  0.00    -0.372 N 
HETATM   13  C11 UNL     1      21.951   0.595  51.093  1.00  0.00     0.106 A 
HETATM   14  C12 UNL     1      21.318   1.548  50.396  1.00  0.00     0.025 A 
HETATM   15 BR1  UNL     1      21.298   1.748  48.502  1.00  0.00    -0.050 Br
HETATM   16  C13 UNL     1      20.544   2.585  51.109  1.00  0.00     0.018 A 
HETATM   17  C14 UNL     1      20.537   2.492  52.435  1.00  0.00    -0.006 A 
HETATM   18  C15 UNL     1      21.204   1.483  53.292  1.00  0.00     0.150 A 
ENDBRANCH   8  12
BRANCH   1  19
HETATM   19  N1  UNL     1      27.323  -0.182  53.346  1.00  0.00    -0.328 N 
HETATM   20  C3  UNL     1      28.622   0.065  53.887  1.00  0.00     0.219 C 
HETATM   21  O1  UNL     1      28.817   1.001  54.710  1.00  0.00    -0.274 OA
HETATM   22  H6  UNL     1      27.172  -0.963  52.663  1.00  0.00     0.164 HD
BRANCH  20  23
HETATM   23  C2  UNL     1      29.726  -0.830  53.437  1.00  0.00     0.098 C 
HETATM   24  C1  UNL     1      29.257  -2.244  53.264  1.00  0.00     0.014 C 
ENDBRANCH  20  23
ENDBRANCH   1  19
TORSDOF 3
ENDMDL
MODEL 4
REMARK VINA RESULT:      -7.0      1.749      2.095
REMARK  3 active torsions:
REMARK  status: ('A' for Active; 'I' for Inactive)
REMARK    1  A    between atoms: C2_2  and  C3_3 
REMARK       I    between atoms: C3_3  and  N1_5 
REMARK    2  A    between atoms: N1_5  and  C4_6 
REMARK    3  A    between atoms: C10_13  and  N3_14 
ROOT
HETATM    1  C4  UNL     1      26.213   1.869  52.743  1.00  0.00     0.346 C 
HETATM    2  C5  UNL     1      26.038   2.666  51.510  1.00  0.00     0.039 C 
HETATM    3  C6  UNL     1      24.939   2.659  50.773  1.00  0.00    -0.021 A 
HETATM    4  C7  UNL     1      23.887   1.764  51.306  1.00  0.00    -0.004 A 
HETATM    5  C8  UNL     1      22.717   1.607  50.691  1.00  0.00     0.125 A 
HETATM    6  N2  UNL     1      22.432   2.308  49.481  1.00  0.00    -0.274 NA
HETATM    7  C9  UNL     1      23.356   3.099  49.016  1.00  0.00     0.119 A 
HETATM    8  C10 UNL     1      24.737   3.443  49.528  1.00  0.00     0.158 A 
HETATM    9  C16 UNL     1      23.998   0.957  52.550  1.00  0.00     0.313 C 
HETATM   10  N4  UNL     1      24.963   1.576  53.401  1.00  0.00     0.114 N 
HETATM   11  H19 UNL     1      24.544   2.409  53.834  1.00  0.00     0.319 HD
ENDROOT
BRANCH   8  12
HETATM   12  N3  UNL     1      24.836   4.875  49.727  1.00  0.00    -0.372 N 
HETATM   13  C11 UNL     1      23.510   5.363  50.017  1.00  0.00     0.106 A 
HETATM   14  C12 UNL     1      23.231   6.646  50.282  1.00  0.00     0.025 A 
HETATM   15 BR1  UNL     1      21.518   7.380  50.677  1.00  0.00    -0.050 Br
HETATM   16  C13 UNL     1      24.318   7.647  50.279  1.00  0.00     0.018 A 
HETATM   17  C14 UNL     1      25.532   7.183  50.000  1.00  0.00    -0.006 A 
HETATM   18  C15 UNL     1      25.937   5.790  49.692  1.00  0.00     0.150 A 
ENDBRANCH   8  12
BRANCH   1  19
HETATM   19  N1  UNL     1      27.000   0.667  52.539  1.00  0.00    -0.328 N 
HETATM   20  C3  UNL     1      27.836   0.205  53.603  1.00  0.00     0.219 C 
HETATM   21  O1  UNL     1      27.893   0.826  54.700  1.00  0.00    -0.274 OA
HETATM   22  H6  UNL     1      26.959   0.144  51.631  1.00  0.00     0.164 HD
BRANCH  20  23
HETATM   23  C2  UNL     1      28.628  -1.032  53.356  1.00  0.00     0.098 C 
HETATM   24  C1  UNL     1      30.072  -0.847  53.719  1.00  0.00     0.014 C 
ENDBRANCH  20  23
ENDBRANCH   1  19
TORSDOF 3
ENDMDL
MODEL 5
REMARK VINA RESULT:      -6.9      3.915      7.261
REMARK  3 active torsions:
REMARK  status: ('A' for Active; 'I' for Inactive)
REMARK    1  A    between atoms: C2_2  and  C3_3 
REMARK       I    between atoms: C3_3  and  N1_5 
REMARK    2  A    between atoms: N1_5  and  C4_6 
REMARK    3  A    between atoms: C10_13  and  N3_14 
ROOT
HETATM    1  C4  UNL     1      22.514   1.482  51.454  1.00  0.00     0.346 C 
HETATM    2  C5  UNL     1      23.539   1.151  52.466  1.00  0.00     0.039 C 
HETATM    3  C6  UNL     1      23.384   0.233  53.407  1.00  0.00    -0.021 A 
HETATM    4  C7  UNL     1      22.067  -0.441  53.349  1.00  0.00    -0.004 A 
HETATM    5  C8  UNL     1      21.717  -1.380  54.226  1.00  0.00     0.125 A 
HETATM    6  N2  UNL     1      22.613  -1.776  55.263  1.00  0.00    -0.274 NA
HETATM    7  C9  UNL     1      23.772  -1.187  55.309  1.00  0.00     0.119 A 
HETATM    8  C10 UNL     1      24.392  -0.116  54.439  1.00  0.00     0.158 A 
HETATM    9  C16 UNL     1      21.007  -0.167  52.343  1.00  0.00     0.313 C 
HETATM   10  N4  UNL     1      21.626   0.378  51.178  1.00  0.00     0.114 N 
HETATM   11  H19 UNL     1      22.092  -0.378  50.659  1.00  0.00     0.319 HD
ENDROOT
BRANCH   8  12
HETATM   12  N3  UNL     1      25.639  -0.605  53.885  1.00  0.00    -0.372 N 
HETATM   13  C11 UNL     1      26.680   0.308  54.290  1.00  0.00     0.106 A 
HETATM   14  C12 UNL     1      27.972   0.149  53.977  1.00  0.00     0.025 A 
HETATM   15 BR1  UNL     1      29.411   1.297  54.466  1.00  0.00    -0.050 Br
HETATM   16  C13 UNL     1      28.391  -1.012  53.165  1.00  0.00     0.018 A 
HETATM   17  C14 UNL     1      27.419  -1.838  52.792  1.00  0.00    -0.006 A 
HETATM   18  C15 UNL     1      25.968  -1.746  53.084  1.00  0.00     0.150 A 
ENDBRANCH   8  12
BRANCH   1  19
HETATM   19  N1  UNL     1      21.776   2.692  51.763  1.00  0.00    -0.328 N 
HETATM   20  C3  UNL     1      21.184   3.427  50.690  1.00  0.00     0.219 C 
HETATM   21  O1  UNL     1      21.298   3.039  49.496  1.00  0.00    -0.274 OA
HETATM   22  H6  UNL     1      21.676   3.024  52.753  1.00  0.00     0.164 HD
BRANCH  20  23
HETATM   23  C2  UNL     1      20.434   4.665  51.048  1.00  0.00     0.098 C 
HETATM   24  C1  UNL     1      21.282   5.892  50.888  1.00  0.00     0.014 C 
ENDBRANCH  20  23
ENDBRANCH   1  19
TORSDOF 3
ENDMDL
MODEL 6
REMARK VINA RESULT:      -6.7      3.049      6.669
REMARK  3 active torsions:
REMARK  status: ('A' for Active; 'I' for Inactive)
REMARK    1  A    between atoms: C2_2  and  C3_3 
REMARK       I    between atoms: C3_3  and  N1_5 
REMARK    2  A    between atoms: N1_5  and  C4_6 
REMARK    3  A    between atoms: C10_13  and  N3_14 
ROOT
HETATM    1  C4  UNL     1      24.565   3.638  50.822  1.00  0.00     0.346 C 
HETATM    2  C5  UNL     1      24.897   2.745  51.952  1.00  0.00     0.039 C 
HETATM    3  C6  UNL     1      24.168   1.700  52.310  1.00  0.00    -0.021 A 
HETATM    4  C7  UNL     1      22.971   1.507  51.460  1.00  0.00    -0.004 A 
HETATM    5  C8  UNL     1      22.104   0.521  51.678  1.00  0.00     0.125 A 
HETATM    6  N2  UNL     1      22.302  -0.398  52.750  1.00  0.00    -0.274 NA
HETATM    7  C9  UNL     1      23.358  -0.232  53.493  1.00  0.00     0.119 A 
HETATM    8  C10 UNL     1      24.473   0.790  53.443  1.00  0.00     0.158 A 
HETATM    9  C16 UNL     1      22.598   2.358  50.299  1.00  0.00     0.313 C 
HETATM   10  N4  UNL     1      23.783   2.981  49.802  1.00  0.00     0.114 N 
HETATM   11  H19 UNL     1      24.331   2.289  49.274  1.00  0.00     0.319 HD
ENDROOT
BRANCH   8  12
HETATM   12  N3  UNL     1      25.746   0.110  53.310  1.00  0.00    -0.372 N 
HETATM   13  C11 UNL     1      26.765   1.001  53.809  1.00  0.00     0.106 A 
HETATM   14  C12 UNL     1      28.065   0.686  53.863  1.00  0.00     0.025 A 
HETATM   15 BR1  UNL     1      29.478   1.792  54.505  1.00  0.00    -0.050 Br
HETATM   16  C13 UNL     1      28.520  -0.636  53.385  1.00  0.00     0.018 A 
HETATM   17  C14 UNL     1      27.570  -1.440  52.919  1.00  0.00    -0.006 A 
HETATM   18  C15 UNL     1      26.113  -1.183  52.816  1.00  0.00     0.150 A 
ENDBRANCH   8  12
BRANCH   1  19
HETATM   19  N1  UNL     1      23.952   4.885  51.240  1.00  0.00    -0.328 N 
HETATM   20  C3  UNL     1      23.903   5.970  50.312  1.00  0.00     0.219 C 
HETATM   21  O1  UNL     1      24.381   5.855  49.151  1.00  0.00    -0.274 OA
HETATM   22  H6  UNL     1      23.551   4.991  52.204  1.00  0.00     0.164 HD
BRANCH  20  23
HETATM   23  C2  UNL     1      23.265   7.234  50.778  1.00  0.00     0.098 C 
HETATM   24  C1  UNL     1      21.768   7.162  50.696  1.00  0.00     0.014 C 
ENDBRANCH  20  23
ENDBRANCH   1  19
TORSDOF 3
ENDMDL
MODEL 7
REMARK VINA RESULT:      -6.7      3.340      5.320
REMARK  3 active torsions:
REMARK  status: ('A' for Active; 'I' for Inactive)
REMARK    1  A    between atoms: C2_2  and  C3_3 
REMARK       I    between atoms: C3_3  and  N1_5 
REMARK    2  A    between atoms: N1_5  and  C4_6 
REMARK    3  A    between atoms: C10_13  and  N3_14 
ROOT
HETATM    1  C4  UNL     1      26.001   2.600  50.968  1.00  0.00     0.346 C 
HETATM    2  C5  UNL     1      24.655   2.608  51.581  1.00  0.00     0.039 C 
HETATM    3  C6  UNL     1      23.791   3.602  51.458  1.00  0.00    -0.021 A 
HETATM    4  C7  UNL     1      24.305   4.722  50.639  1.00  0.00    -0.004 A 
HETATM    5  C8  UNL     1      23.588   5.822  50.419  1.00  0.00     0.125 A 
HETATM    6  N2  UNL     1      22.280   5.959  50.972  1.00  0.00    -0.274 NA
HETATM    7  C9  UNL     1      21.826   4.971  51.687  1.00  0.00     0.119 A 
HETATM    8  C10 UNL     1      22.437   3.640  52.067  1.00  0.00     0.158 A 
HETATM    9  C16 UNL     1      25.638   4.761  49.981  1.00  0.00     0.313 C 
HETATM   10  N4  UNL     1      26.079   3.417  49.782  1.00  0.00     0.114 N 
HETATM   11  H19 UNL     1      25.565   3.009  48.990  1.00  0.00     0.319 HD
ENDROOT
BRANCH   8  12
HETATM   12  N3  UNL     1      21.573   2.566  51.618  1.00  0.00    -0.372 N 
HETATM   13  C11 UNL     1      21.505   1.594  52.682  1.00  0.00     0.106 A 
HETATM   14  C12 UNL     1      20.769   0.477  52.621  1.00  0.00     0.025 A 
HETATM   15 BR1  UNL     1      20.615  -0.859  53.971  1.00  0.00    -0.050 Br
HETATM   16  C13 UNL     1      19.976   0.187  51.409  1.00  0.00     0.018 A 
HETATM   17  C14 UNL     1      20.058   1.087  50.435  1.00  0.00    -0.006 A 
HETATM   18  C15 UNL     1      20.842   2.346  50.407  1.00  0.00     0.150 A 
ENDBRANCH   8  12
BRANCH   1  19
HETATM   19  N1  UNL     1      27.058   2.925  51.908  1.00  0.00    -0.328 N 
HETATM   20  C3  UNL     1      27.641   1.870  52.675  1.00  0.00     0.219 C 
HETATM   21  O1  UNL     1      27.249   0.678  52.545  1.00  0.00    -0.274 OA
HETATM   22  H6  UNL     1      27.391   3.912  52.023  1.00  0.00     0.164 HD
BRANCH  20  23
HETATM   23  C2  UNL     1      28.724   2.243  53.629  1.00  0.00     0.098 C 
HETATM   24  C1  UNL     1      29.139   1.078  54.479  1.00  0.00     0.014 C 
ENDBRANCH  20  23
ENDBRANCH   1  19
TORSDOF 3
ENDMDL
MODEL 8
REMARK VINA RESULT:      -6.7      1.760      2.476
REMARK  3 active torsions:
REMARK  status: ('A' for Active; 'I' for Inactive)
REMARK    1  A    between atoms: C2_2  and  C3_3 
REMARK       I    between atoms: C3_3  and  N1_5 
REMARK    2  A    between atoms: N1_5  and  C4_6 
REMARK    3  A    between atoms: C10_13  and  N3_14 
ROOT
HETATM    1  C4  UNL     1      24.153   1.694  53.075  1.00  0.00     0.346 C 
HETATM    2  C5  UNL     1      24.338   2.671  51.981  1.00  0.00     0.039 C 
HETATM    3  C6  UNL     1      23.649   2.658  50.852  1.00  0.00    -0.021 A 
HETATM    4  C7  UNL     1      22.661   1.558  50.785  1.00  0.00    -0.004 A 
HETATM    5  C8  UNL     1      21.888   1.369  49.718  1.00  0.00     0.125 A 
HETATM    6  N2  UNL     1      21.985   2.234  48.588  1.00  0.00    -0.274 NA
HETATM    7  C9  UNL     1      22.849   3.204  48.650  1.00  0.00     0.119 A 
HETATM    8  C10 UNL     1      23.819   3.621  49.734  1.00  0.00     0.158 A 
HETATM    9  C16 UNL     1      22.415   0.561  51.861  1.00  0.00     0.313 C 
HETATM   10  N4  UNL     1      22.823   1.133  53.104  1.00  0.00     0.114 N 
HETATM   11  H19 UNL     1      22.117   1.816  53.408  1.00  0.00     0.319 HD
ENDROOT
BRANCH   8  12
HETATM   12  N3  UNL     1      23.557   4.996  50.113  1.00  0.00    -0.372 N 
HETATM   13  C11 UNL     1      24.780   5.737  49.917  1.00  0.00     0.106 A 
HETATM   14  C12 UNL     1      24.896   7.051  50.143  1.00  0.00     0.025 A 
HETATM   15 BR1  UNL     1      26.461   8.112  49.911  1.00  0.00    -0.050 Br
HETATM   16  C13 UNL     1      23.729   7.817  50.629  1.00  0.00     0.018 A 
HETATM   17  C14 UNL     1      22.615   7.117  50.814  1.00  0.00    -0.006 A 
HETATM   18  C15 UNL     1      22.389   5.668  50.596  1.00  0.00     0.150 A 
ENDBRANCH   8  12
BRANCH   1  19
HETATM   19  N1  UNL     1      25.167   0.657  53.093  1.00  0.00    -0.328 N 
HETATM   20  C3  UNL     1      26.324   0.843  53.910  1.00  0.00     0.219 C 
HETATM   21  O1  UNL     1      26.469   1.887  54.604  1.00  0.00    -0.274 OA
HETATM   22  H6  UNL     1      25.056  -0.215  52.520  1.00  0.00     0.164 HD
BRANCH  20  23
HETATM   23  C2  UNL     1      27.343  -0.244  53.903  1.00  0.00     0.098 C 
HETATM   24  C1  UNL     1      28.590   0.160  54.634  1.00  0.00     0.014 C 
ENDBRANCH  20  23
ENDBRANCH   1  19
TORSDOF 3
ENDMDL
MODEL 9
REMARK VINA RESULT:      -6.6      4.281      7.318
REMARK  3 active torsions:
REMARK  status: ('A' for Active; 'I' for Inactive)
REMARK    1  A    between atoms: C2_2  and  C3_3 
REMARK       I    between atoms: C3_3  and  N1_5 
REMARK    2  A    between atoms: N1_5  and  C4_6 
REMARK    3  A    between atoms: C10_13  and  N3_14 
ROOT
HETATM    1  C4  UNL     1      20.436   0.709  52.214  1.00  0.00     0.346 C 
HETATM    2  C5  UNL     1      21.879   0.654  51.897  1.00  0.00     0.039 C 
HETATM    3  C6  UNL     1      22.650   1.721  51.763  1.00  0.00    -0.021 A 
HETATM    4  C7  UNL     1      21.921   2.994  51.962  1.00  0.00    -0.004 A 
HETATM    5  C8  UNL     1      22.522   4.175  51.846  1.00  0.00     0.125 A 
HETATM    6  N2  UNL     1      23.910   4.257  51.525  1.00  0.00    -0.274 NA
HETATM    7  C9  UNL     1      24.551   3.137  51.357  1.00  0.00     0.119 A 
HETATM    8  C10 UNL     1      24.098   1.696  51.439  1.00  0.00     0.158 A 
HETATM    9  C16 UNL     1      20.478   3.111  52.303  1.00  0.00     0.313 C 
HETATM   10  N4  UNL     1      20.069   1.900  52.941  1.00  0.00     0.114 N 
HETATM   11  H19 UNL     1      20.422   1.893  53.907  1.00  0.00     0.319 HD
ENDROOT
BRANCH   8  12
HETATM   12  N3  UNL     1      24.897   0.994  52.424  1.00  0.00    -0.372 N 
HETATM   13  C11 UNL     1      26.124   1.736  52.592  1.00  0.00     0.106 A 
HETATM   14  C12 UNL     1      27.090   1.388  53.451  1.00  0.00     0.025 A 
HETATM   15 BR1  UNL     1      28.736   2.302  53.743  1.00  0.00    -0.050 Br
HETATM   16  C13 UNL     1      26.930   0.178  54.284  1.00  0.00     0.018 A 
HETATM   17  C14 UNL     1      25.799  -0.499  54.109  1.00  0.00    -0.006 A 
HETATM   18  C15 UNL     1      24.678  -0.197  53.187  1.00  0.00     0.150 A 
ENDBRANCH   8  12
BRANCH   1  19
HETATM   19  N1  UNL     1      19.588   0.513  51.053  1.00  0.00    -0.328 N 
HETATM   20  C3  UNL     1      18.238   0.092  51.253  1.00  0.00     0.219 C 
HETATM   21  O1  UNL     1      17.784  -0.108  52.413  1.00  0.00    -0.274 OA
HETATM   22  H6  UNL     1      19.956   0.677  50.084  1.00  0.00     0.164 HD
BRANCH  20  23
HETATM   23  C2  UNL     1      17.398  -0.097  50.036  1.00  0.00     0.098 C 
HETATM   24  C1  UNL     1      16.065  -0.698  50.372  1.00  0.00     0.014 C 
ENDBRANCH  20  23
ENDBRANCH   1  19
TORSDOF 3
ENDMDL
