MODEL 1
REMARK VINA RESULT:      -8.3      0.000      0.000
REMARK  5 active torsions:
REMARK  status: ('A' for Active; 'I' for Inactive)
REMARK    1  A    between atoms: N1_1  and  C1_2 
REMARK    2  A    between atoms: N2_5  and  C4_6 
REMARK    3  A    between atoms: C4_6  and  C5_7 
REMARK    4  A    between atoms: C9_12  and  N4_13 
REMARK    5  A    between atoms: N4_13  and  C10_14 
ROOT
HETATM    1  C5  UNL     1      23.948   3.320  52.319  1.00  0.00     0.002 A 
HETATM    2  C6  UNL     1      23.141   4.470  52.316  1.00  0.00     0.029 A 
HETATM    3  C7  UNL     1      23.546   5.402  51.384  1.00  0.00     0.096 A 
HETATM    4  N3  UNL     1      24.609   4.840  50.800  1.00  0.00    -0.329 N 
HETATM    5  C8  UNL     1      24.859   3.630  51.329  1.00  0.00     0.092 A 
HETATM    6  C9  UNL     1      25.992   2.878  50.813  1.00  0.00     0.151 A 
HETATM    7  N5  UNL     1      26.822   3.187  49.900  1.00  0.00    -0.265 NA
HETATM    8  C16 UNL     1      26.936   4.346  49.084  1.00  0.00     0.204 A 
HETATM    9  P1  UNL     1      25.607   5.554  49.492  1.00  0.00    -0.002 P 
HETATM   10  H20 UNL     1      26.078   6.872  49.813  1.00  0.00     0.082 HD
ENDROOT
BRANCH   1  11
HETATM   11  C4  UNL     1      23.726   2.191  53.193  1.00  0.00     0.313 C 
BRANCH  11  12
HETATM   12  N2  UNL     1      23.152   1.004  52.704  1.00  0.00     0.092 NA
HETATM   13  C3  UNL     1      23.647  -0.128  53.455  1.00  0.00     0.275 C 
HETATM   14  C2  UNL     1      22.590  -1.178  53.693  1.00  0.00     0.065 C 
HETATM   15  C1  UNL     1      21.402  -0.658  54.439  1.00  0.00     0.221 C 
HETATM   16  C18 UNL     1      21.091   0.735  53.942  1.00  0.00     0.065 C 
HETATM   17  C17 UNL     1      21.744   0.926  52.577  1.00  0.00     0.275 C 
BRANCH  15  18
HETATM   18  N1  UNL     1      20.252  -1.537  54.191  1.00  0.00     0.083 N 
HETATM   19  H1  UNL     1      20.517  -2.535  54.373  1.00  0.00     0.313 HD
HETATM   20  H2  UNL     1      19.839  -1.371  53.260  1.00  0.00     0.313 HD
ENDBRANCH  15  18
ENDBRANCH  11  12
ENDBRANCH   1  11
BRANCH   6  21
HETATM   21  N4  UNL     1      26.292   1.570  51.354  1.00  0.00    -0.339 N 
HETATM   22  H12 UNL     1      25.775   0.755  50.948  1.00  0.00     0.167 HD
BRANCH  21  23
HETATM   23  C10 UNL     1      27.236   1.268  52.394  1.00  0.00     0.033 A 
HETATM   24  C11 UNL     1      27.439  -0.056  52.781  1.00  0.00     0.029 A 
HETATM   25  C12 UNL     1      28.328  -0.380  53.768  1.00  0.00     0.002 A 
HETATM   26  C13 UNL     1      29.069   0.572  54.433  1.00  0.00     0.000 A 
HETATM   27  C14 UNL     1      28.879   1.886  54.062  1.00  0.00     0.002 A 
HETATM   28  C15 UNL     1      27.977   2.187  53.064  1.00  0.00     0.029 A 
ENDBRANCH  21  23
ENDBRANCH   6  21
TORSDOF 5
ENDMDL
MODEL 2
REMARK VINA RESULT:      -7.9      2.483      5.215
REMARK  5 active torsions:
REMARK  status: ('A' for Active; 'I' for Inactive)
REMARK    1  A    between atoms: N1_1  and  C1_2 
REMARK    2  A    between atoms: N2_5  and  C4_6 
REMARK    3  A    between atoms: C4_6  and  C5_7 
REMARK    4  A    between atoms: C9_12  and  N4_13 
REMARK    5  A    between atoms: N4_13  and  C10_14 
ROOT
HETATM    1  C5  UNL     1      22.483   1.239  51.544  1.00  0.00     0.002 A 
HETATM    2  C6  UNL     1      21.082   1.189  51.463  1.00  0.00     0.029 A 
HETATM    3  C7  UNL     1      20.520   0.403  52.446  1.00  0.00     0.096 A 
HETATM    4  N3  UNL     1      21.568  -0.044  53.147  1.00  0.00    -0.329 N 
HETATM    5  C8  UNL     1      22.717   0.431  52.638  1.00  0.00     0.092 A 
HETATM    6  C9  UNL     1      23.963   0.036  53.278  1.00  0.00     0.151 A 
HETATM    7  N5  UNL     1      24.154  -0.715  54.285  1.00  0.00    -0.265 NA
HETATM    8  C16 UNL     1      23.244  -1.420  55.121  1.00  0.00     0.204 A 
HETATM    9  P1  UNL     1      21.509  -1.132  54.571  1.00  0.00    -0.002 P 
HETATM   10  H20 UNL     1      20.757  -2.329  54.323  1.00  0.00     0.082 HD
ENDROOT
BRANCH   1  11
HETATM   11  C4  UNL     1      23.309   2.005  50.638  1.00  0.00     0.313 C 
BRANCH  11  12
HETATM   12  N2  UNL     1      24.291   2.884  51.128  1.00  0.00     0.092 NA
HETATM   13  C3  UNL     1      24.840   3.663  50.040  1.00  0.00     0.275 C 
HETATM   14  C2  UNL     1      25.133   5.090  50.434  1.00  0.00     0.065 C 
HETATM   15  C1  UNL     1      23.925   5.827  50.920  1.00  0.00     0.221 C 
HETATM   16  C18 UNL     1      23.093   4.888  51.762  1.00  0.00     0.065 C 
HETATM   17  C17 UNL     1      23.971   3.728  52.219  1.00  0.00     0.275 C 
BRANCH  15  18
HETATM   18  N1  UNL     1      24.353   6.971  51.735  1.00  0.00     0.083 N 
HETATM   19  H1  UNL     1      24.689   6.640  52.672  1.00  0.00     0.313 HD
HETATM   20  H2  UNL     1      23.624   7.700  51.780  1.00  0.00     0.313 HD
ENDBRANCH  15  18
ENDBRANCH  11  12
ENDBRANCH   1  11
BRANCH   6  21
HETATM   21  N4  UNL     1      25.222   0.528  52.762  1.00  0.00    -0.339 N 
HETATM   22  H12 UNL     1      25.179   1.210  51.969  1.00  0.00     0.167 HD
BRANCH  21  23
HETATM   23  C10 UNL     1      26.535   0.182  53.230  1.00  0.00     0.033 A 
HETATM   24  C11 UNL     1      27.191  -0.926  52.695  1.00  0.00     0.029 A 
HETATM   25  C12 UNL     1      28.440  -1.286  53.118  1.00  0.00     0.002 A 
HETATM   26  C13 UNL     1      29.120  -0.583  54.089  1.00  0.00     0.000 A 
HETATM   27  C14 UNL     1      28.484   0.515  54.628  1.00  0.00     0.002 A 
HETATM   28  C15 UNL     1      27.225   0.858  54.185  1.00  0.00     0.029 A 
ENDBRANCH  21  23
ENDBRANCH   6  21
TORSDOF 5
ENDMDL
MODEL 3
REMARK VINA RESULT:      -7.9      2.177      5.537
REMARK  5 active torsions:
REMARK  status: ('A' for Active; 'I' for Inactive)
REMARK    1  A    between atoms: N1_1  and  C1_2 
REMARK    2  A    between atoms: N2_5  and  C4_6 
REMARK    3  A    between atoms: C4_6  and  C5_7 
REMARK    4  A    between atoms: C9_12  and  N4_13 
REMARK    5  A    between atoms: N4_13  and  C10_14 
ROOT
HETATM    1  C5  UNL     1      23.870   1.019  52.841  1.00  0.00     0.002 A 
HETATM    2  C6  UNL     1      23.118  -0.145  53.074  1.00  0.00     0.029 A 
HETATM    3  C7  UNL     1      21.995  -0.221  52.279  1.00  0.00     0.096 A 
HETATM    4  N3  UNL     1      22.037   0.896  51.545  1.00  0.00    -0.329 N 
HETATM    5  C8  UNL     1      23.118   1.629  51.857  1.00  0.00     0.092 A 
HETATM    6  C9  UNL     1      23.317   2.888  51.154  1.00  0.00     0.151 A 
HETATM    7  N5  UNL     1      22.607   3.433  50.251  1.00  0.00    -0.265 NA
HETATM    8  C16 UNL     1      21.398   3.019  49.626  1.00  0.00     0.204 A 
HETATM    9  P1  UNL     1      20.841   1.401  50.308  1.00  0.00    -0.002 P 
HETATM   10  H20 UNL     1      19.494   1.395  50.804  1.00  0.00     0.082 HD
ENDROOT
BRANCH   1  11
HETATM   11  C4  UNL     1      25.099   1.329  53.534  1.00  0.00     0.313 C 
BRANCH  11  12
HETATM   12  N2  UNL     1      26.299   1.510  52.826  1.00  0.00     0.092 NA
HETATM   13  C3  UNL     1      27.158   2.430  53.538  1.00  0.00     0.275 C 
HETATM   14  C2  UNL     1      28.616   2.047  53.462  1.00  0.00     0.065 C 
HETATM   15  C1  UNL     1      28.897   0.685  54.015  1.00  0.00     0.221 C 
HETATM   16  C18 UNL     1      27.773  -0.241  53.611  1.00  0.00     0.065 C 
HETATM   17  C17 UNL     1      27.036   0.369  52.424  1.00  0.00     0.275 C 
BRANCH  15  18
HETATM   18  N1  UNL     1      30.165   0.191  53.461  1.00  0.00     0.083 N 
HETATM   19  H1  UNL     1      30.065   0.019  52.432  1.00  0.00     0.313 HD
HETATM   20  H2  UNL     1      30.523  -0.616  53.994  1.00  0.00     0.313 HD
ENDBRANCH  15  18
ENDBRANCH  11  12
ENDBRANCH   1  11
BRANCH   6  21
HETATM   21  N4  UNL     1      24.471   3.705  51.458  1.00  0.00    -0.339 N 
HETATM   22  H12 UNL     1      24.705   3.844  52.469  1.00  0.00     0.167 HD
BRANCH  21  23
HETATM   23  C10 UNL     1      25.341   4.348  50.512  1.00  0.00     0.033 A 
HETATM   24  C11 UNL     1      26.358   3.617  49.900  1.00  0.00     0.029 A 
HETATM   25  C12 UNL     1      27.206   4.197  48.997  1.00  0.00     0.002 A 
HETATM   26  C13 UNL     1      27.106   5.524  48.640  1.00  0.00     0.000 A 
HETATM   27  C14 UNL     1      26.105   6.260  49.237  1.00  0.00     0.002 A 
HETATM   28  C15 UNL     1      25.263   5.653  50.144  1.00  0.00     0.029 A 
ENDBRANCH  21  23
ENDBRANCH   6  21
TORSDOF 5
ENDMDL
MODEL 4
REMARK VINA RESULT:      -7.7      2.676      6.197
REMARK  5 active torsions:
REMARK  status: ('A' for Active; 'I' for Inactive)
REMARK    1  A    between atoms: N1_1  and  C1_2 
REMARK    2  A    between atoms: N2_5  and  C4_6 
REMARK    3  A    between atoms: C4_6  and  C5_7 
REMARK    4  A    between atoms: C9_12  and  N4_13 
REMARK    5  A    between atoms: N4_13  and  C10_14 
ROOT
HETATM    1  C5  UNL     1      23.314  -0.261  53.397  1.00  0.00     0.002 A 
HETATM    2  C6  UNL     1      22.953  -0.962  54.560  1.00  0.00     0.029 A 
HETATM    3  C7  UNL     1      21.594  -1.166  54.658  1.00  0.00     0.096 A 
HETATM    4  N3  UNL     1      21.096  -0.592  53.557  1.00  0.00    -0.329 N 
HETATM    5  C8  UNL     1      22.080  -0.061  52.812  1.00  0.00     0.092 A 
HETATM    6  C9  UNL     1      21.713   0.613  51.576  1.00  0.00     0.151 A 
HETATM    7  N5  UNL     1      20.565   0.789  51.058  1.00  0.00    -0.265 NA
HETATM    8  C16 UNL     1      19.267   0.402  51.492  1.00  0.00     0.204 A 
HETATM    9  P1  UNL     1      19.367  -0.506  53.092  1.00  0.00    -0.002 P 
HETATM   10  H20 UNL     1      18.539   0.031  54.134  1.00  0.00     0.082 HD
ENDROOT
BRANCH   1  11
HETATM   11  C4  UNL     1      24.678   0.067  53.052  1.00  0.00     0.313 C 
BRANCH  11  12
HETATM   12  N2  UNL     1      25.520   0.710  53.976  1.00  0.00     0.092 NA
HETATM   13  C3  UNL     1      26.674  -0.117  54.250  1.00  0.00     0.275 C 
HETATM   14  C2  UNL     1      27.941   0.685  54.416  1.00  0.00     0.065 C 
HETATM   15  C1  UNL     1      28.280   1.506  53.211  1.00  0.00     0.221 C 
HETATM   16  C18 UNL     1      27.003   2.080  52.643  1.00  0.00     0.065 C 
HETATM   17  C17 UNL     1      25.925   2.043  53.722  1.00  0.00     0.275 C 
BRANCH  15  18
HETATM   18  N1  UNL     1      29.177   2.599  53.608  1.00  0.00     0.083 N 
HETATM   19  H1  UNL     1      28.856   3.501  53.180  1.00  0.00     0.313 HD
HETATM   20  H2  UNL     1      30.165   2.369  53.421  1.00  0.00     0.313 HD
ENDBRANCH  15  18
ENDBRANCH  11  12
ENDBRANCH   1  11
BRANCH   6  21
HETATM   21  N4  UNL     1      22.743   1.195  50.743  1.00  0.00    -0.339 N 
HETATM   22  H12 UNL     1      23.146   0.590  49.989  1.00  0.00     0.167 HD
BRANCH  21  23
HETATM   23  C10 UNL     1      23.272   2.527  50.838  1.00  0.00     0.033 A 
HETATM   24  C11 UNL     1      22.983   3.309  51.955  1.00  0.00     0.029 A 
HETATM   25  C12 UNL     1      23.467   4.581  52.077  1.00  0.00     0.002 A 
HETATM   26  C13 UNL     1      24.264   5.162  51.114  1.00  0.00     0.000 A 
HETATM   27  C14 UNL     1      24.559   4.401  50.003  1.00  0.00     0.002 A 
HETATM   28  C15 UNL     1      24.059   3.121  49.903  1.00  0.00     0.029 A 
ENDBRANCH  21  23
ENDBRANCH   6  21
TORSDOF 5
ENDMDL
MODEL 5
REMARK VINA RESULT:      -7.6      1.896      5.335
REMARK  5 active torsions:
REMARK  status: ('A' for Active; 'I' for Inactive)
REMARK    1  A    between atoms: N1_1  and  C1_2 
REMARK    2  A    between atoms: N2_5  and  C4_6 
REMARK    3  A    between atoms: C4_6  and  C5_7 
REMARK    4  A    between atoms: C9_12  and  N4_13 
REMARK    5  A    between atoms: N4_13  and  C10_14 
ROOT
HETATM    1  C5  UNL     1      25.863   2.427  51.872  1.00  0.00     0.002 A 
HETATM    2  C6  UNL     1      26.716   2.904  50.863  1.00  0.00     0.029 A 
HETATM    3  C7  UNL     1      26.033   3.313  49.737  1.00  0.00     0.096 A 
HETATM    4  N3  UNL     1      24.749   3.092  50.036  1.00  0.00    -0.329 N 
HETATM    5  C8  UNL     1      24.629   2.578  51.271  1.00  0.00     0.092 A 
HETATM    6  C9  UNL     1      23.293   2.269  51.757  1.00  0.00     0.151 A 
HETATM    7  N5  UNL     1      22.168   2.413  51.182  1.00  0.00    -0.265 NA
HETATM    8  C16 UNL     1      21.825   2.911  49.895  1.00  0.00     0.204 A 
HETATM    9  P1  UNL     1      23.340   3.411  48.973  1.00  0.00    -0.002 P 
HETATM   10  H20 UNL     1      23.475   2.807  47.678  1.00  0.00     0.082 HD
ENDROOT
BRANCH   1  11
HETATM   11  C4  UNL     1      26.329   1.954  53.155  1.00  0.00     0.313 C 
BRANCH  11  12
HETATM   12  N2  UNL     1      26.188   0.603  53.518  1.00  0.00     0.092 NA
HETATM   13  C3  UNL     1      26.151  -0.225  52.333  1.00  0.00     0.275 C 
HETATM   14  C2  UNL     1      26.875  -1.536  52.513  1.00  0.00     0.065 C 
HETATM   15  C1  UNL     1      28.318  -1.368  52.870  1.00  0.00     0.221 C 
HETATM   16  C18 UNL     1      28.445  -0.211  53.834  1.00  0.00     0.065 C 
HETATM   17  C17 UNL     1      27.083   0.052  54.468  1.00  0.00     0.275 C 
BRANCH  15  18
HETATM   18  N1  UNL     1      28.804  -2.597  53.510  1.00  0.00     0.083 N 
HETATM   19  H1  UNL     1      28.398  -3.436  53.031  1.00  0.00     0.313 HD
HETATM   20  H2  UNL     1      28.658  -2.578  54.531  1.00  0.00     0.313 HD
ENDBRANCH  15  18
ENDBRANCH  11  12
ENDBRANCH   1  11
BRANCH   6  21
HETATM   21  N4  UNL     1      23.121   1.718  53.083  1.00  0.00    -0.339 N 
HETATM   22  H12 UNL     1      23.675   2.153  53.857  1.00  0.00     0.167 HD
BRANCH  21  23
HETATM   23  C10 UNL     1      22.259   0.630  53.456  1.00  0.00     0.033 A 
HETATM   24  C11 UNL     1      22.809  -0.609  53.781  1.00  0.00     0.029 A 
HETATM   25  C12 UNL     1      22.020  -1.666  54.138  1.00  0.00     0.002 A 
HETATM   26  C13 UNL     1      20.646  -1.573  54.198  1.00  0.00     0.000 A 
HETATM   27  C14 UNL     1      20.087  -0.354  53.878  1.00  0.00     0.002 A 
HETATM   28  C15 UNL     1      20.904   0.697  53.521  1.00  0.00     0.029 A 
ENDBRANCH  21  23
ENDBRANCH   6  21
TORSDOF 5
ENDMDL
MODEL 6
REMARK VINA RESULT:      -7.4      1.996      5.211
REMARK  5 active torsions:
REMARK  status: ('A' for Active; 'I' for Inactive)
REMARK    1  A    between atoms: N1_1  and  C1_2 
REMARK    2  A    between atoms: N2_5  and  C4_6 
REMARK    3  A    between atoms: C4_6  and  C5_7 
REMARK    4  A    between atoms: C9_12  and  N4_13 
REMARK    5  A    between atoms: N4_13  and  C10_14 
ROOT
HETATM    1  C5  UNL     1      26.064   3.313  50.318  1.00  0.00     0.002 A 
HETATM    2  C6  UNL     1      26.956   3.879  49.392  1.00  0.00     0.029 A 
HETATM    3  C7  UNL     1      26.595   5.155  49.016  1.00  0.00     0.096 A 
HETATM    4  N3  UNL     1      25.474   5.394  49.705  1.00  0.00    -0.329 N 
HETATM    5  C8  UNL     1      25.150   4.337  50.467  1.00  0.00     0.092 A 
HETATM    6  C9  UNL     1      23.947   4.425  51.282  1.00  0.00     0.151 A 
HETATM    7  N5  UNL     1      23.116   5.379  51.400  1.00  0.00    -0.265 NA
HETATM    8  C16 UNL     1      23.065   6.665  50.793  1.00  0.00     0.204 A 
HETATM    9  P1  UNL     1      24.495   6.896  49.655  1.00  0.00    -0.002 P 
HETATM   10  H20 UNL     1      24.136   7.278  48.318  1.00  0.00     0.082 HD
ENDROOT
BRANCH   1  11
HETATM   11  C4  UNL     1      26.225   1.992  50.879  1.00  0.00     0.313 C 
BRANCH  11  12
HETATM   12  N2  UNL     1      26.102   1.777  52.263  1.00  0.00     0.092 NA
HETATM   13  C3  UNL     1      25.729   0.403  52.517  1.00  0.00     0.275 C 
HETATM   14  C2  UNL     1      26.399  -0.168  53.742  1.00  0.00     0.065 C 
HETATM   15  C1  UNL     1      27.893  -0.139  53.663  1.00  0.00     0.221 C 
HETATM   16  C18 UNL     1      28.317   1.157  53.013  1.00  0.00     0.065 C 
HETATM   17  C17 UNL     1      27.169   2.156  53.113  1.00  0.00     0.275 C 
BRANCH  15  18
HETATM   18  N1  UNL     1      28.450  -0.215  55.020  1.00  0.00     0.083 N 
HETATM   19  H1  UNL     1      27.948  -0.950  55.574  1.00  0.00     0.313 HD
HETATM   20  H2  UNL     1      28.478   0.712  55.472  1.00  0.00     0.313 HD
ENDBRANCH  15  18
ENDBRANCH  11  12
ENDBRANCH   1  11
BRANCH   6  21
HETATM   21  N4  UNL     1      23.564   3.309  52.119  1.00  0.00    -0.339 N 
HETATM   22  H12 UNL     1      23.994   3.258  53.072  1.00  0.00     0.167 HD
BRANCH  21  23
HETATM   23  C10 UNL     1      22.646   2.257  51.781  1.00  0.00     0.033 A 
HETATM   24  C11 UNL     1      21.979   1.568  52.792  1.00  0.00     0.029 A 
HETATM   25  C12 UNL     1      21.100   0.560  52.507  1.00  0.00     0.002 A 
HETATM   26  C13 UNL     1      20.823   0.169  51.215  1.00  0.00     0.000 A 
HETATM   27  C14 UNL     1      21.475   0.841  50.203  1.00  0.00     0.002 A 
HETATM   28  C15 UNL     1      22.356   1.853  50.517  1.00  0.00     0.029 A 
ENDBRANCH  21  23
ENDBRANCH   6  21
TORSDOF 5
ENDMDL
MODEL 7
REMARK VINA RESULT:      -7.3      1.777      5.145
REMARK  5 active torsions:
REMARK  status: ('A' for Active; 'I' for Inactive)
REMARK    1  A    between atoms: N1_1  and  C1_2 
REMARK    2  A    between atoms: N2_5  and  C4_6 
REMARK    3  A    between atoms: C4_6  and  C5_7 
REMARK    4  A    between atoms: C9_12  and  N4_13 
REMARK    5  A    between atoms: N4_13  and  C10_14 
ROOT
HETATM    1  C5  UNL     1      25.334   3.302  50.514  1.00  0.00     0.002 A 
HETATM    2  C6  UNL     1      25.803   4.546  50.061  1.00  0.00     0.029 A 
HETATM    3  C7  UNL     1      24.787   5.454  49.852  1.00  0.00     0.096 A 
HETATM    4  N3  UNL     1      23.677   4.782  50.173  1.00  0.00    -0.329 N 
HETATM    5  C8  UNL     1      23.973   3.530  50.561  1.00  0.00     0.092 A 
HETATM    6  C9  UNL     1      22.876   2.654  50.941  1.00  0.00     0.151 A 
HETATM    7  N5  UNL     1      21.626   2.886  50.972  1.00  0.00    -0.265 NA
HETATM    8  C16 UNL     1      20.877   4.052  50.652  1.00  0.00     0.204 A 
HETATM    9  P1  UNL     1      21.998   5.409  50.110  1.00  0.00    -0.002 P 
HETATM   10  H20 UNL     1      21.668   5.980  48.835  1.00  0.00     0.082 HD
ENDROOT
BRANCH   1  11
HETATM   11  C4  UNL     1      26.198   2.185  50.820  1.00  0.00     0.313 C 
BRANCH  11  12
HETATM   12  N2  UNL     1      26.085   1.501  52.043  1.00  0.00     0.092 NA
HETATM   13  C3  UNL     1      26.760   0.225  51.958  1.00  0.00     0.275 C 
HETATM   14  C2  UNL     1      27.472  -0.146  53.236  1.00  0.00     0.065 C 
HETATM   15  C1  UNL     1      28.504   0.857  53.646  1.00  0.00     0.221 C 
HETATM   16  C18 UNL     1      27.971   2.242  53.366  1.00  0.00     0.065 C 
HETATM   17  C17 UNL     1      26.453   2.167  53.237  1.00  0.00     0.275 C 
BRANCH  15  18
HETATM   18  N1  UNL     1      28.772   0.714  55.084  1.00  0.00     0.083 N 
HETATM   19  H1  UNL     1      29.561   0.041  55.237  1.00  0.00     0.313 HD
HETATM   20  H2  UNL     1      27.914   0.490  55.610  1.00  0.00     0.313 HD
ENDBRANCH  15  18
ENDBRANCH  11  12
ENDBRANCH   1  11
BRANCH   6  21
HETATM   21  N4  UNL     1      23.154   1.299  51.367  1.00  0.00    -0.339 N 
HETATM   22  H12 UNL     1      23.795   0.731  50.765  1.00  0.00     0.167 HD
BRANCH  21  23
HETATM   23  C10 UNL     1      22.643   0.647  52.541  1.00  0.00     0.033 A 
HETATM   24  C11 UNL     1      21.374   0.971  53.017  1.00  0.00     0.029 A 
HETATM   25  C12 UNL     1      20.857   0.373  54.132  1.00  0.00     0.002 A 
HETATM   26  C13 UNL     1      21.553  -0.579  54.846  1.00  0.00     0.000 A 
HETATM   27  C14 UNL     1      22.811  -0.910  54.388  1.00  0.00     0.002 A 
HETATM   28  C15 UNL     1      23.309  -0.292  53.262  1.00  0.00     0.029 A 
ENDBRANCH  21  23
ENDBRANCH   6  21
TORSDOF 5
ENDMDL
MODEL 8
REMARK VINA RESULT:      -7.0      2.507      4.857
REMARK  5 active torsions:
REMARK  status: ('A' for Active; 'I' for Inactive)
REMARK    1  A    between atoms: N1_1  and  C1_2 
REMARK    2  A    between atoms: N2_5  and  C4_6 
REMARK    3  A    between atoms: C4_6  and  C5_7 
REMARK    4  A    between atoms: C9_12  and  N4_13 
REMARK    5  A    between atoms: N4_13  and  C10_14 
ROOT
HETATM    1  C5  UNL     1      23.799   0.332  53.028  1.00  0.00     0.002 A 
HETATM    2  C6  UNL     1      23.797  -0.629  54.054  1.00  0.00     0.029 A 
HETATM    3  C7  UNL     1      25.031  -0.773  54.651  1.00  0.00     0.096 A 
HETATM    4  N3  UNL     1      25.812   0.097  54.002  1.00  0.00    -0.329 N 
HETATM    5  C8  UNL     1      25.115   0.748  53.056  1.00  0.00     0.092 A 
HETATM    6  C9  UNL     1      25.817   1.732  52.245  1.00  0.00     0.151 A 
HETATM    7  N5  UNL     1      27.034   2.097  52.286  1.00  0.00    -0.265 NA
HETATM    8  C16 UNL     1      28.114   1.683  53.114  1.00  0.00     0.204 A 
HETATM    9  P1  UNL     1      27.555   0.392  54.304  1.00  0.00    -0.002 P 
HETATM   10  H20 UNL     1      28.332  -0.815  54.281  1.00  0.00     0.082 HD
ENDROOT
BRANCH   1  11
HETATM   11  C4  UNL     1      22.629   0.679  52.257  1.00  0.00     0.313 C 
BRANCH  11  12
HETATM   12  N2  UNL     1      21.593   1.442  52.823  1.00  0.00     0.092 NA
HETATM   13  C3  UNL     1      21.515   2.730  52.171  1.00  0.00     0.275 C 
HETATM   14  C2  UNL     1      20.097   3.211  51.993  1.00  0.00     0.065 C 
HETATM   15  C1  UNL     1      19.254   2.273  51.186  1.00  0.00     0.221 C 
HETATM   16  C18 UNL     1      19.608   0.855  51.570  1.00  0.00     0.065 C 
HETATM   17  C17 UNL     1      20.301   0.872  52.929  1.00  0.00     0.275 C 
BRANCH  15  18
HETATM   18  N1  UNL     1      17.837   2.523  51.479  1.00  0.00     0.083 N 
HETATM   19  H1  UNL     1      17.741   3.008  52.404  1.00  0.00     0.313 HD
HETATM   20  H2  UNL     1      17.273   1.664  51.391  1.00  0.00     0.313 HD
ENDBRANCH  15  18
ENDBRANCH  11  12
ENDBRANCH   1  11
BRANCH   6  21
HETATM   21  N4  UNL     1      25.101   2.457  51.218  1.00  0.00    -0.339 N 
HETATM   22  H12 UNL     1      24.117   2.159  51.021  1.00  0.00     0.167 HD
BRANCH  21  23
HETATM   23  C10 UNL     1      25.599   3.555  50.437  1.00  0.00     0.033 A 
HETATM   24  C11 UNL     1      24.976   4.799  50.516  1.00  0.00     0.029 A 
HETATM   25  C12 UNL     1      25.422   5.866  49.786  1.00  0.00     0.002 A 
HETATM   26  C13 UNL     1      26.504   5.777  48.937  1.00  0.00     0.000 A 
HETATM   27  C14 UNL     1      27.131   4.552  48.848  1.00  0.00     0.002 A 
HETATM   28  C15 UNL     1      26.663   3.492  49.595  1.00  0.00     0.029 A 
ENDBRANCH  21  23
ENDBRANCH   6  21
TORSDOF 5
ENDMDL
MODEL 9
REMARK VINA RESULT:      -7.0      2.246      5.330
REMARK  5 active torsions:
REMARK  status: ('A' for Active; 'I' for Inactive)
REMARK    1  A    between atoms: N1_1  and  C1_2 
REMARK    2  A    between atoms: N2_5  and  C4_6 
REMARK    3  A    between atoms: C4_6  and  C5_7 
REMARK    4  A    between atoms: C9_12  and  N4_13 
REMARK    5  A    between atoms: N4_13  and  C10_14 
ROOT
HETATM    1  C5  UNL     1      23.451   3.368  52.309  1.00  0.00     0.002 A 
HETATM    2  C6  UNL     1      23.649   4.751  52.457  1.00  0.00     0.029 A 
HETATM    3  C7  UNL     1      22.805   5.497  51.663  1.00  0.00     0.096 A 
HETATM    4  N3  UNL     1      22.075   4.584  51.012  1.00  0.00    -0.329 N 
HETATM    5  C8  UNL     1      22.435   3.342  51.374  1.00  0.00     0.092 A 
HETATM    6  C9  UNL     1      21.744   2.221  50.754  1.00  0.00     0.151 A 
HETATM    7  N5  UNL     1      20.812   2.222  49.890  1.00  0.00    -0.265 NA
HETATM    8  C16 UNL     1      20.133   3.289  49.238  1.00  0.00     0.204 A 
HETATM    9  P1  UNL     1      20.786   4.913  49.810  1.00  0.00    -0.002 P 
HETATM   10  H20 UNL     1      21.222   5.784  48.755  1.00  0.00     0.082 HD
ENDROOT
BRANCH   1  11
HETATM   11  C4  UNL     1      24.199   2.371  53.039  1.00  0.00     0.313 C 
BRANCH  11  12
HETATM   12  N2  UNL     1      25.522   2.058  52.682  1.00  0.00     0.092 NA
HETATM   13  C3  UNL     1      26.388   2.191  53.833  1.00  0.00     0.275 C 
HETATM   14  C2  UNL     1      27.462   1.133  53.882  1.00  0.00     0.065 C 
HETATM   15  C1  UNL     1      26.916  -0.260  53.917  1.00  0.00     0.221 C 
HETATM   16  C18 UNL     1      25.720  -0.333  52.996  1.00  0.00     0.065 C 
HETATM   17  C17 UNL     1      25.782   0.835  52.017  1.00  0.00     0.275 C 
BRANCH  15  18
HETATM   18  N1  UNL     1      27.949  -1.196  53.457  1.00  0.00     0.083 N 
HETATM   19  H1  UNL     1      27.507  -1.995  52.941  1.00  0.00     0.313 HD
HETATM   20  H2  UNL     1      28.574  -1.482  54.226  1.00  0.00     0.313 HD
ENDBRANCH  15  18
ENDBRANCH  11  12
ENDBRANCH   1  11
BRANCH   6  21
HETATM   21  N4  UNL     1      22.100   0.868  51.119  1.00  0.00    -0.339 N 
HETATM   22  H12 UNL     1      22.875   0.416  50.578  1.00  0.00     0.167 HD
BRANCH  21  23
HETATM   23  C10 UNL     1      21.504   0.073  52.156  1.00  0.00     0.033 A 
HETATM   24  C11 UNL     1      22.300  -0.779  52.921  1.00  0.00     0.029 A 
HETATM   25  C12 UNL     1      21.766  -1.551  53.914  1.00  0.00     0.002 A 
HETATM   26  C13 UNL     1      20.421  -1.534  54.218  1.00  0.00     0.000 A 
HETATM   27  C14 UNL     1      19.621  -0.697  53.470  1.00  0.00     0.002 A 
HETATM   28  C15 UNL     1      20.183   0.071  52.474  1.00  0.00     0.029 A 
ENDBRANCH  21  23
ENDBRANCH   6  21
TORSDOF 5
ENDMDL
