MODEL 1
REMARK VINA RESULT:      -9.2      0.000      0.000
REMARK  5 active torsions:
REMARK  status: ('A' for Active; 'I' for Inactive)
REMARK    1  A    between atoms: O1_2  and  C2_3 
REMARK    2  A    between atoms: N1_7  and  C6_8 
REMARK    3  A    between atoms: C10_12  and  C11_13 
REMARK    4  A    between atoms: C15_18  and  O2_19 
REMARK    5  A    between atoms: C20_25  and  C21_26 
ROOT
HETATM    1  C2  UNL     1      27.653   5.668  48.597  1.00  0.00     0.080 C 
HETATM    2  C3  UNL     1      27.283   4.403  48.833  1.00  0.00     0.047 C 
HETATM    3  C4  UNL     1      26.070   4.384  49.641  1.00  0.00    -0.025 A 
HETATM    4  C5  UNL     1      25.825   3.227  50.288  1.00  0.00     0.127 A 
HETATM    5  N1  UNL     1      24.702   3.043  51.136  1.00  0.00    -0.245 N 
HETATM    6  N3  UNL     1      23.866   4.154  51.261  1.00  0.00    -0.183 NA
HETATM    7  C17 UNL     1      24.049   5.276  50.664  1.00  0.00     0.125 A 
HETATM    8  C18 UNL     1      25.159   5.506  49.765  1.00  0.00     0.086 A 
HETATM    9  C19 UNL     1      25.710   6.830  49.562  1.00  0.00     0.004 C 
HETATM   10  C20 UNL     1      26.917   6.869  48.969  1.00  0.00     0.011 C 
ENDROOT
BRANCH   5  11
HETATM   11  C6  UNL     1      24.384   1.852  51.838  1.00  0.00     0.058 A 
HETATM   12  C7  UNL     1      23.117   1.317  51.914  1.00  0.00     0.031 A 
HETATM   13  C8  UNL     1      22.796   0.160  52.592  1.00  0.00     0.003 A 
HETATM   14  C9  UNL     1      23.802  -0.521  53.247  1.00  0.00     0.010 A 
HETATM   15  C10 UNL     1      25.077  -0.009  53.189  1.00  0.00    -0.027 A 
HETATM   16  C16 UNL     1      25.347   1.153  52.495  1.00  0.00     0.041 A 
BRANCH  15  17
HETATM   17  C11 UNL     1      26.123  -0.771  53.904  1.00  0.00     0.171 A 
HETATM   18  N2  UNL     1      26.829  -1.683  53.027  1.00  0.00    -0.384 N 
HETATM   19  C12 UNL     1      28.221  -1.770  52.775  1.00  0.00     0.084 A 
HETATM   20  H10 UNL     1      26.174  -2.337  52.546  1.00  0.00     0.160 HD
HETATM   21  C13 UNL     1      28.976  -0.901  53.429  1.00  0.00     0.019 A 
HETATM   22  C14 UNL     1      28.438   0.091  54.352  1.00  0.00     0.036 A 
HETATM   23  C15 UNL     1      27.128   0.116  54.541  1.00  0.00     0.070 A 
BRANCH  23  24
HETATM   24  O2  UNL     1      26.584   1.038  55.406  1.00  0.00    -0.362 OA
HETATM   25  H14 UNL     1      26.221   1.945  55.123  1.00  0.00     0.217 HD
ENDBRANCH  23  24
ENDBRANCH  15  17
ENDBRANCH   5  11
BRANCH   1  26
HETATM   26  O1  UNL     1      28.835   5.922  47.872  1.00  0.00    -0.355 OA
HETATM   27  C1  UNL     1      30.105   5.615  48.379  1.00  0.00     0.210 C 
ENDBRANCH   1  26
BRANCH  10  28
HETATM   28  C21 UNL     1      27.459   8.207  48.716  1.00  0.00     0.121 C 
HETATM   29  N4  UNL     1      28.423   8.665  49.433  1.00  0.00    -0.311 NA
HETATM   30  H20 UNL     1      28.805   9.617  49.250  1.00  0.00     0.186 HD
ENDBRANCH  10  28
TORSDOF 5
ENDMDL
MODEL 2
REMARK VINA RESULT:      -8.9      2.537      8.449
REMARK  5 active torsions:
REMARK  status: ('A' for Active; 'I' for Inactive)
REMARK    1  A    between atoms: O1_2  and  C2_3 
REMARK    2  A    between atoms: N1_7  and  C6_8 
REMARK    3  A    between atoms: C10_12  and  C11_13 
REMARK    4  A    between atoms: C15_18  and  O2_19 
REMARK    5  A    between atoms: C20_25  and  C21_26 
ROOT
HETATM    1  C2  UNL     1      23.101  -0.041  53.435  1.00  0.00     0.080 C 
HETATM    2  C3  UNL     1      23.082   0.770  52.369  1.00  0.00     0.047 C 
HETATM    3  C4  UNL     1      24.437   1.200  52.050  1.00  0.00    -0.025 A 
HETATM    4  C5  UNL     1      24.527   2.311  51.292  1.00  0.00     0.127 A 
HETATM    5  N1  UNL     1      25.769   2.882  50.909  1.00  0.00    -0.245 N 
HETATM    6  N3  UNL     1      26.899   2.213  51.381  1.00  0.00    -0.183 NA
HETATM    7  C17 UNL     1      26.871   1.150  52.101  1.00  0.00     0.125 A 
HETATM    8  C18 UNL     1      25.635   0.510  52.493  1.00  0.00     0.086 A 
HETATM    9  C19 UNL     1      25.535  -0.270  53.709  1.00  0.00     0.004 C 
HETATM   10  C20 UNL     1      24.284  -0.538  54.124  1.00  0.00     0.011 C 
ENDROOT
BRANCH   5  11
HETATM   11  C6  UNL     1      25.932   4.043  50.108  1.00  0.00     0.058 A 
HETATM   12  C7  UNL     1      27.046   4.297  49.339  1.00  0.00     0.031 A 
HETATM   13  C8  UNL     1      27.216   5.420  48.557  1.00  0.00     0.003 A 
HETATM   14  C9  UNL     1      26.210   6.365  48.532  1.00  0.00     0.010 A 
HETATM   15  C10 UNL     1      25.086   6.137  49.292  1.00  0.00    -0.027 A 
HETATM   16  C16 UNL     1      24.964   4.995  50.058  1.00  0.00     0.041 A 
BRANCH  15  17
HETATM   17  C11 UNL     1      24.035   7.175  49.236  1.00  0.00     0.171 A 
HETATM   18  N2  UNL     1      22.999   6.850  48.277  1.00  0.00    -0.384 N 
HETATM   19  C12 UNL     1      21.601   6.738  48.486  1.00  0.00     0.084 A 
HETATM   20  H10 UNL     1      23.395   6.688  47.325  1.00  0.00     0.160 HD
HETATM   21  C13 UNL     1      21.189   6.960  49.724  1.00  0.00     0.019 A 
HETATM   22  C14 UNL     1      22.090   7.298  50.819  1.00  0.00     0.036 A 
HETATM   23  C15 UNL     1      23.384   7.387  50.553  1.00  0.00     0.070 A 
BRANCH  23  24
HETATM   24  O2  UNL     1      24.264   7.704  51.562  1.00  0.00    -0.362 OA
HETATM   25  H14 UNL     1      24.722   7.020  52.160  1.00  0.00     0.217 HD
ENDBRANCH  23  24
ENDBRANCH  15  17
ENDBRANCH   5  11
BRANCH   1  26
HETATM   26  O1  UNL     1      21.886  -0.538  53.950  1.00  0.00    -0.355 OA
HETATM   27  C1  UNL     1      20.792   0.295  54.223  1.00  0.00     0.210 C 
ENDBRANCH   1  26
BRANCH  10  28
HETATM   28  C21 UNL     1      24.175  -1.369  55.326  1.00  0.00     0.121 C 
HETATM   29  N4  UNL     1      25.080  -1.314  56.238  1.00  0.00    -0.311 NA
HETATM   30  H20 UNL     1      24.999  -1.907  57.092  1.00  0.00     0.186 HD
ENDBRANCH  10  28
TORSDOF 5
ENDMDL
MODEL 3
REMARK VINA RESULT:      -8.6      4.153      7.632
REMARK  5 active torsions:
REMARK  status: ('A' for Active; 'I' for Inactive)
REMARK    1  A    between atoms: O1_2  and  C2_3 
REMARK    2  A    between atoms: N1_7  and  C6_8 
REMARK    3  A    between atoms: C10_12  and  C11_13 
REMARK    4  A    between atoms: C15_18  and  O2_19 
REMARK    5  A    between atoms: C20_25  and  C21_26 
ROOT
HETATM    1  C2  UNL     1      27.516  -0.076  53.613  1.00  0.00     0.080 C 
HETATM    2  C3  UNL     1      26.357  -0.696  53.355  1.00  0.00     0.047 C 
HETATM    3  C4  UNL     1      25.402   0.253  52.794  1.00  0.00    -0.025 A 
HETATM    4  C5  UNL     1      24.108  -0.114  52.875  1.00  0.00     0.127 A 
HETATM    5  N1  UNL     1      23.046   0.700  52.401  1.00  0.00    -0.245 N 
HETATM    6  N3  UNL     1      23.439   1.921  51.848  1.00  0.00    -0.183 NA
HETATM    7  C17 UNL     1      24.655   2.317  51.742  1.00  0.00     0.125 A 
HETATM    8  C18 UNL     1      25.775   1.514  52.180  1.00  0.00     0.086 A 
HETATM    9  C19 UNL     1      27.020   2.116  52.610  1.00  0.00     0.004 C 
HETATM   10  C20 UNL     1      27.852   1.302  53.286  1.00  0.00     0.011 C 
ENDROOT
BRANCH   5  11
HETATM   11  C6  UNL     1      21.667   0.370  52.450  1.00  0.00     0.058 A 
HETATM   12  C7  UNL     1      21.109  -0.473  53.385  1.00  0.00     0.031 A 
HETATM   13  C8  UNL     1      19.771  -0.801  53.443  1.00  0.00     0.003 A 
HETATM   14  C9  UNL     1      18.918  -0.256  52.505  1.00  0.00     0.010 A 
HETATM   15  C10 UNL     1      19.448   0.589  51.559  1.00  0.00    -0.027 A 
HETATM   16  C16 UNL     1      20.796   0.887  51.544  1.00  0.00     0.041 A 
BRANCH  15  17
HETATM   17  C11 UNL     1      18.498   1.150  50.574  1.00  0.00     0.171 A 
HETATM   18  N2  UNL     1      17.758   0.116  49.881  1.00  0.00    -0.384 N 
HETATM   19  C12 UNL     1      16.354  -0.051  49.778  1.00  0.00     0.084 A 
HETATM   20  H10 UNL     1      18.396  -0.566  49.416  1.00  0.00     0.160 HD
HETATM   21  C13 UNL     1      15.622   0.861  50.399  1.00  0.00     0.019 A 
HETATM   22  C14 UNL     1      16.196   1.973  51.147  1.00  0.00     0.036 A 
HETATM   23  C15 UNL     1      17.516   2.069  51.202  1.00  0.00     0.070 A 
BRANCH  23  24
HETATM   24  O2  UNL     1      18.093   3.105  51.898  1.00  0.00    -0.362 OA
HETATM   25  H14 UNL     1      18.875   3.659  51.558  1.00  0.00     0.217 HD
ENDBRANCH  23  24
ENDBRANCH  15  17
ENDBRANCH   5  11
BRANCH   1  26
HETATM   26  O1  UNL     1      28.570  -0.798  54.209  1.00  0.00    -0.355 OA
HETATM   27  C1  UNL     1      29.390  -1.668  53.477  1.00  0.00     0.210 C 
ENDBRANCH   1  26
BRANCH  10  28
HETATM   28  C21 UNL     1      29.135   1.891  53.682  1.00  0.00     0.121 C 
HETATM   29  N4  UNL     1      29.363   2.185  54.913  1.00  0.00    -0.311 NA
HETATM   30  H20 UNL     1      30.277   2.604  55.189  1.00  0.00     0.186 HD
ENDBRANCH  10  28
TORSDOF 5
ENDMDL
MODEL 4
REMARK VINA RESULT:      -8.6      3.796      7.684
REMARK  5 active torsions:
REMARK  status: ('A' for Active; 'I' for Inactive)
REMARK    1  A    between atoms: O1_2  and  C2_3 
REMARK    2  A    between atoms: N1_7  and  C6_8 
REMARK    3  A    between atoms: C10_12  and  C11_13 
REMARK    4  A    between atoms: C15_18  and  O2_19 
REMARK    5  A    between atoms: C20_25  and  C21_26 
ROOT
HETATM    1  C2  UNL     1      18.523  -0.610  52.986  1.00  0.00     0.080 C 
HETATM    2  C3  UNL     1      19.769  -0.428  53.442  1.00  0.00     0.047 C 
HETATM    3  C4  UNL     1      20.491   0.483  52.562  1.00  0.00    -0.025 A 
HETATM    4  C5  UNL     1      21.834   0.431  52.654  1.00  0.00     0.127 A 
HETATM    5  N1  UNL     1      22.691   1.231  51.854  1.00  0.00    -0.245 N 
HETATM    6  N3  UNL     1      22.041   2.077  50.953  1.00  0.00    -0.183 NA
HETATM    7  C17 UNL     1      20.766   2.170  50.829  1.00  0.00     0.125 A 
HETATM    8  C18 UNL     1      19.848   1.401  51.640  1.00  0.00     0.086 A 
HETATM    9  C19 UNL     1      18.529   1.042  51.162  1.00  0.00     0.004 C 
HETATM   10  C20 UNL     1      17.906   0.074  51.858  1.00  0.00     0.011 C 
ENDROOT
BRANCH   5  11
HETATM   11  C6  UNL     1      24.109   1.230  51.906  1.00  0.00     0.058 A 
HETATM   12  C7  UNL     1      24.908   2.073  51.165  1.00  0.00     0.031 A 
HETATM   13  C8  UNL     1      26.286   2.081  51.207  1.00  0.00     0.003 A 
HETATM   14  C9  UNL     1      26.926   1.190  52.045  1.00  0.00     0.010 A 
HETATM   15  C10 UNL     1      26.152   0.336  52.796  1.00  0.00    -0.027 A 
HETATM   16  C16 UNL     1      24.775   0.368  52.718  1.00  0.00     0.041 A 
BRANCH  15  17
HETATM   17  C11 UNL     1      26.879  -0.601  53.679  1.00  0.00     0.171 A 
HETATM   18  N2  UNL     1      27.233  -1.829  52.997  1.00  0.00    -0.384 N 
HETATM   19  C12 UNL     1      28.512  -2.418  52.838  1.00  0.00     0.084 A 
HETATM   20  H10 UNL     1      26.393  -2.297  52.590  1.00  0.00     0.160 HD
HETATM   21  C13 UNL     1      29.518  -1.756  53.387  1.00  0.00     0.019 A 
HETATM   22  C14 UNL     1      29.350  -0.502  54.112  1.00  0.00     0.036 A 
HETATM   23  C15 UNL     1      28.127  -0.008  54.223  1.00  0.00     0.070 A 
BRANCH  23  24
HETATM   24  O2  UNL     1      27.930   1.173  54.900  1.00  0.00    -0.362 OA
HETATM   25  H14 UNL     1      27.027   1.631  55.003  1.00  0.00     0.217 HD
ENDBRANCH  23  24
ENDBRANCH  15  17
ENDBRANCH   5  11
BRANCH   1  26
HETATM   26  O1  UNL     1      17.660  -1.498  53.661  1.00  0.00    -0.355 OA
HETATM   27  C1  UNL     1      17.899  -2.878  53.715  1.00  0.00     0.210 C 
ENDBRANCH   1  26
BRANCH  10  28
HETATM   28  C21 UNL     1      16.551  -0.261  51.410  1.00  0.00     0.121 C 
HETATM   29  N4  UNL     1      15.564  -0.219  52.234  1.00  0.00    -0.311 NA
HETATM   30  H20 UNL     1      14.602  -0.458  51.910  1.00  0.00     0.186 HD
ENDBRANCH  10  28
TORSDOF 5
ENDMDL
MODEL 5
REMARK VINA RESULT:      -8.5      2.519      8.768
REMARK  5 active torsions:
REMARK  status: ('A' for Active; 'I' for Inactive)
REMARK    1  A    between atoms: O1_2  and  C2_3 
REMARK    2  A    between atoms: N1_7  and  C6_8 
REMARK    3  A    between atoms: C10_12  and  C11_13 
REMARK    4  A    between atoms: C15_18  and  O2_19 
REMARK    5  A    between atoms: C20_25  and  C21_26 
ROOT
HETATM    1  C2  UNL     1      21.773   0.192  52.979  1.00  0.00     0.080 C 
HETATM    2  C3  UNL     1      22.063   1.017  51.964  1.00  0.00     0.047 C 
HETATM    3  C4  UNL     1      23.507   1.193  51.866  1.00  0.00    -0.025 A 
HETATM    4  C5  UNL     1      23.911   2.285  51.187  1.00  0.00     0.127 A 
HETATM    5  N1  UNL     1      25.279   2.622  51.017  1.00  0.00    -0.245 N 
HETATM    6  N3  UNL     1      26.184   1.742  51.612  1.00  0.00    -0.183 NA
HETATM    7  C17 UNL     1      25.855   0.687  52.265  1.00  0.00     0.125 A 
HETATM    8  C18 UNL     1      24.478   0.281  52.441  1.00  0.00     0.086 A 
HETATM    9  C19 UNL     1      24.056  -0.496  53.589  1.00  0.00     0.004 C 
HETATM   10  C20 UNL     1      22.728  -0.534  53.804  1.00  0.00     0.011 C 
ENDROOT
BRANCH   5  11
HETATM   11  C6  UNL     1      25.769   3.750  50.308  1.00  0.00     0.058 A 
HETATM   12  C7  UNL     1      26.787   3.695  49.382  1.00  0.00     0.031 A 
HETATM   13  C8  UNL     1      27.272   4.783  48.687  1.00  0.00     0.003 A 
HETATM   14  C9  UNL     1      26.710   6.021  48.925  1.00  0.00     0.010 A 
HETATM   15  C10 UNL     1      25.691   6.105  49.846  1.00  0.00    -0.027 A 
HETATM   16  C16 UNL     1      25.241   4.985  50.515  1.00  0.00     0.041 A 
BRANCH  15  17
HETATM   17  C11 UNL     1      25.119   7.450  50.069  1.00  0.00     0.171 A 
HETATM   18  N2  UNL     1      26.124   8.409  50.477  1.00  0.00    -0.384 N 
HETATM   19  C12 UNL     1      26.460   9.650  49.879  1.00  0.00     0.084 A 
HETATM   20  H10 UNL     1      26.634   8.090  51.330  1.00  0.00     0.160 HD
HETATM   21  C13 UNL     1      25.761   9.973  48.802  1.00  0.00     0.019 A 
HETATM   22  C14 UNL     1      24.710   9.128  48.247  1.00  0.00     0.036 A 
HETATM   23  C15 UNL     1      24.448   7.983  48.857  1.00  0.00     0.070 A 
BRANCH  23  24
HETATM   24  O2  UNL     1      23.463   7.160  48.361  1.00  0.00    -0.362 OA
HETATM   25  H14 UNL     1      23.253   7.047  47.372  1.00  0.00     0.217 HD
ENDBRANCH  23  24
ENDBRANCH  15  17
ENDBRANCH   5  11
BRANCH   1  26
HETATM   26  O1  UNL     1      20.425  -0.081  53.287  1.00  0.00    -0.355 OA
HETATM   27  C1  UNL     1      19.419  -0.085  52.310  1.00  0.00     0.210 C 
ENDBRANCH   1  26
BRANCH  10  28
HETATM   28  C21 UNL     1      22.290  -1.358  54.935  1.00  0.00     0.121 C 
HETATM   29  N4  UNL     1      23.119  -1.681  55.864  1.00  0.00    -0.311 NA
HETATM   30  H20 UNL     1      22.802  -2.267  56.666  1.00  0.00     0.186 HD
ENDBRANCH  10  28
TORSDOF 5
ENDMDL
MODEL 6
REMARK VINA RESULT:      -8.3      2.339      8.643
REMARK  5 active torsions:
REMARK  status: ('A' for Active; 'I' for Inactive)
REMARK    1  A    between atoms: O1_2  and  C2_3 
REMARK    2  A    between atoms: N1_7  and  C6_8 
REMARK    3  A    between atoms: C10_12  and  C11_13 
REMARK    4  A    between atoms: C15_18  and  O2_19 
REMARK    5  A    between atoms: C20_25  and  C21_26 
ROOT
HETATM    1  C2  UNL     1      24.036  -0.122  53.791  1.00  0.00     0.080 C 
HETATM    2  C3  UNL     1      24.931   0.826  53.482  1.00  0.00     0.047 C 
HETATM    3  C4  UNL     1      24.333   1.792  52.569  1.00  0.00    -0.025 A 
HETATM    4  C5  UNL     1      25.207   2.540  51.866  1.00  0.00     0.127 A 
HETATM    5  N1  UNL     1      24.797   3.511  50.916  1.00  0.00    -0.245 N 
HETATM    6  N3  UNL     1      23.416   3.635  50.753  1.00  0.00    -0.183 NA
HETATM    7  C17 UNL     1      22.541   2.953  51.400  1.00  0.00     0.125 A 
HETATM    8  C18 UNL     1      22.903   1.974  52.400  1.00  0.00     0.086 A 
HETATM    9  C19 UNL     1      22.054   0.838  52.694  1.00  0.00     0.004 C 
HETATM   10  C20 UNL     1      22.635  -0.153  53.394  1.00  0.00     0.011 C 
ENDROOT
BRANCH   5  11
HETATM   11  C6  UNL     1      25.664   4.333  50.150  1.00  0.00     0.058 A 
HETATM   12  C7  UNL     1      26.708   3.854  49.390  1.00  0.00     0.031 A 
HETATM   13  C8  UNL     1      27.556   4.643  48.641  1.00  0.00     0.003 A 
HETATM   14  C9  UNL     1      27.360   6.009  48.642  1.00  0.00     0.010 A 
HETATM   15  C10 UNL     1      26.324   6.514  49.393  1.00  0.00    -0.027 A 
HETATM   16  C16 UNL     1      25.502   5.682  50.126  1.00  0.00     0.041 A 
BRANCH  15  17
HETATM   17  C11 UNL     1      26.150   7.983  49.366  1.00  0.00     0.171 A 
HETATM   18  N2  UNL     1      27.245   8.674  50.015  1.00  0.00    -0.384 N 
HETATM   19  C12 UNL     1      28.095   9.678  49.490  1.00  0.00     0.084 A 
HETATM   20  H10 UNL     1      27.376   8.346  50.998  1.00  0.00     0.160 HD
HETATM   21  C13 UNL     1      27.856  10.031  48.236  1.00  0.00     0.019 A 
HETATM   22  C14 UNL     1      26.796   9.443  47.428  1.00  0.00     0.036 A 
HETATM   23  C15 UNL     1      26.038   8.509  47.982  1.00  0.00     0.070 A 
BRANCH  23  24
HETATM   24  O2  UNL     1      25.027   7.931  47.249  1.00  0.00    -0.362 OA
HETATM   25  H14 UNL     1      24.998   7.906  46.233  1.00  0.00     0.217 HD
ENDBRANCH  23  24
ENDBRANCH  15  17
ENDBRANCH   5  11
BRANCH   1  26
HETATM   26  O1  UNL     1      24.419  -1.191  54.626  1.00  0.00    -0.355 OA
HETATM   27  C1  UNL     1      24.922  -0.989  55.919  1.00  0.00     0.210 C 
ENDBRANCH   1  26
BRANCH  10  28
HETATM   28  C21 UNL     1      21.768  -1.284  53.737  1.00  0.00     0.121 C 
HETATM   29  N4  UNL     1      21.340  -1.433  54.941  1.00  0.00    -0.311 NA
HETATM   30  H20 UNL     1      20.724  -2.239  55.180  1.00  0.00     0.186 HD
ENDBRANCH  10  28
TORSDOF 5
ENDMDL
MODEL 7
REMARK VINA RESULT:      -8.2      5.046      8.631
REMARK  5 active torsions:
REMARK  status: ('A' for Active; 'I' for Inactive)
REMARK    1  A    between atoms: O1_2  and  C2_3 
REMARK    2  A    between atoms: N1_7  and  C6_8 
REMARK    3  A    between atoms: C10_12  and  C11_13 
REMARK    4  A    between atoms: C15_18  and  O2_19 
REMARK    5  A    between atoms: C20_25  and  C21_26 
ROOT
HETATM    1  C2  UNL     1      25.624   0.766  52.356  1.00  0.00     0.080 C 
HETATM    2  C3  UNL     1      24.355   1.122  52.115  1.00  0.00     0.047 C 
HETATM    3  C4  UNL     1      23.453   0.333  52.946  1.00  0.00    -0.025 A 
HETATM    4  C5  UNL     1      22.174   0.283  52.525  1.00  0.00     0.127 A 
HETATM    5  N1  UNL     1      21.170  -0.458  53.200  1.00  0.00    -0.245 N 
HETATM    6  N3  UNL     1      21.604  -1.144  54.337  1.00  0.00    -0.183 NA
HETATM    7  C17 UNL     1      22.807  -1.126  54.785  1.00  0.00     0.125 A 
HETATM    8  C18 UNL     1      23.860  -0.363  54.153  1.00  0.00     0.086 A 
HETATM    9  C19 UNL     1      25.250  -0.762  54.248  1.00  0.00     0.004 C 
HETATM   10  C20 UNL     1      26.082  -0.172  53.371  1.00  0.00     0.011 C 
ENDROOT
BRANCH   5  11
HETATM   11  C6  UNL     1      19.807  -0.545  52.814  1.00  0.00     0.058 A 
HETATM   12  C7  UNL     1      18.856  -1.266  53.502  1.00  0.00     0.031 A 
HETATM   13  C8  UNL     1      17.530  -1.359  53.137  1.00  0.00     0.003 A 
HETATM   14  C9  UNL     1      17.108  -0.688  52.007  1.00  0.00     0.010 A 
HETATM   15  C10 UNL     1      18.038   0.040  51.300  1.00  0.00    -0.027 A 
HETATM   16  C16 UNL     1      19.355   0.101  51.708  1.00  0.00     0.041 A 
BRANCH  15  17
HETATM   17  C11 UNL     1      17.543   0.742  50.097  1.00  0.00     0.171 A 
HETATM   18  N2  UNL     1      16.885  -0.159  49.172  1.00  0.00    -0.384 N 
HETATM   19  C12 UNL     1      15.573  -0.082  48.642  1.00  0.00     0.084 A 
HETATM   20  H10 UNL     1      17.510  -0.948  48.896  1.00  0.00     0.160 HD
HETATM   21  C13 UNL     1      14.853   0.952  49.047  1.00  0.00     0.019 A 
HETATM   22  C14 UNL     1      15.350   1.959  49.976  1.00  0.00     0.036 A 
HETATM   23  C15 UNL     1      16.586   1.826  50.432  1.00  0.00     0.070 A 
BRANCH  23  24
HETATM   24  O2  UNL     1      17.090   2.757  51.310  1.00  0.00    -0.362 OA
HETATM   25  H14 UNL     1      18.081   2.927  51.461  1.00  0.00     0.217 HD
ENDBRANCH  23  24
ENDBRANCH  15  17
ENDBRANCH   5  11
BRANCH   1  26
HETATM   26  O1  UNL     1      26.664   1.371  51.621  1.00  0.00    -0.355 OA
HETATM   27  C1  UNL     1      26.531   2.638  51.038  1.00  0.00     0.210 C 
ENDBRANCH   1  26
BRANCH  10  28
HETATM   28  C21 UNL     1      27.497  -0.533  53.494  1.00  0.00     0.121 C 
HETATM   29  N4  UNL     1      28.111  -0.386  54.614  1.00  0.00    -0.311 NA
HETATM   30  H20 UNL     1      29.118  -0.644  54.696  1.00  0.00     0.186 HD
ENDBRANCH  10  28
TORSDOF 5
ENDMDL
MODEL 8
REMARK VINA RESULT:      -8.1      2.621      3.512
REMARK  5 active torsions:
REMARK  status: ('A' for Active; 'I' for Inactive)
REMARK    1  A    between atoms: O1_2  and  C2_3 
REMARK    2  A    between atoms: N1_7  and  C6_8 
REMARK    3  A    between atoms: C10_12  and  C11_13 
REMARK    4  A    between atoms: C15_18  and  O2_19 
REMARK    5  A    between atoms: C20_25  and  C21_26 
ROOT
HETATM    1  C2  UNL     1      28.832   6.674  48.513  1.00  0.00     0.080 C 
HETATM    2  C3  UNL     1      28.192   5.498  48.467  1.00  0.00     0.047 C 
HETATM    3  C4  UNL     1      26.757   5.709  48.614  1.00  0.00    -0.025 A 
HETATM    4  C5  UNL     1      26.051   4.626  48.996  1.00  0.00     0.127 A 
HETATM    5  N1  UNL     1      24.648   4.660  49.210  1.00  0.00    -0.245 N 
HETATM    6  N3  UNL     1      24.047   5.903  49.003  1.00  0.00    -0.183 NA
HETATM    7  C17 UNL     1      24.671   6.963  48.633  1.00  0.00     0.125 A 
HETATM    8  C18 UNL     1      26.093   6.976  48.372  1.00  0.00     0.086 A 
HETATM    9  C19 UNL     1      26.884   8.178  48.535  1.00  0.00     0.004 C 
HETATM   10  C20 UNL     1      28.216   7.993  48.577  1.00  0.00     0.011 C 
ENDROOT
BRANCH   5  11
HETATM   11  C6  UNL     1      23.847   3.557  49.604  1.00  0.00     0.058 A 
HETATM   12  C7  UNL     1      23.045   2.840  48.743  1.00  0.00     0.031 A 
HETATM   13  C8  UNL     1      22.262   1.767  49.114  1.00  0.00     0.003 A 
HETATM   14  C9  UNL     1      22.271   1.371  50.437  1.00  0.00     0.010 A 
HETATM   15  C10 UNL     1      23.062   2.070  51.318  1.00  0.00    -0.027 A 
HETATM   16  C16 UNL     1      23.829   3.137  50.896  1.00  0.00     0.041 A 
BRANCH  15  17
HETATM   17  C11 UNL     1      23.041   1.611  52.724  1.00  0.00     0.171 A 
HETATM   18  N2  UNL     1      21.693   1.367  53.197  1.00  0.00    -0.384 N 
HETATM   19  C12 UNL     1      21.151   0.183  53.757  1.00  0.00     0.084 A 
HETATM   20  H10 UNL     1      21.090   2.211  53.085  1.00  0.00     0.160 HD
HETATM   21  C13 UNL     1      21.989  -0.836  53.860  1.00  0.00     0.019 A 
HETATM   22  C14 UNL     1      23.382  -0.773  53.434  1.00  0.00     0.036 A 
HETATM   23  C15 UNL     1      23.823   0.364  52.920  1.00  0.00     0.070 A 
BRANCH  23  24
HETATM   24  O2  UNL     1      25.132   0.461  52.507  1.00  0.00    -0.362 OA
HETATM   25  H14 UNL     1      25.692   1.307  52.572  1.00  0.00     0.217 HD
ENDBRANCH  23  24
ENDBRANCH  15  17
ENDBRANCH   5  11
BRANCH   1  26
HETATM   26  O1  UNL     1      30.239   6.701  48.440  1.00  0.00    -0.355 OA
HETATM   27  C1  UNL     1      30.990   5.587  48.042  1.00  0.00     0.210 C 
ENDBRANCH   1  26
BRANCH  10  28
HETATM   28  C21 UNL     1      29.025   9.209  48.692  1.00  0.00     0.121 C 
HETATM   29  N4  UNL     1      29.657   9.469  49.782  1.00  0.00    -0.311 NA
HETATM   30  H20 UNL     1      30.231  10.336  49.859  1.00  0.00     0.186 HD
ENDBRANCH  10  28
TORSDOF 5
ENDMDL
MODEL 9
REMARK VINA RESULT:      -8.0      3.436      8.755
REMARK  5 active torsions:
REMARK  status: ('A' for Active; 'I' for Inactive)
REMARK    1  A    between atoms: O1_2  and  C2_3 
REMARK    2  A    between atoms: N1_7  and  C6_8 
REMARK    3  A    between atoms: C10_12  and  C11_13 
REMARK    4  A    between atoms: C15_18  and  O2_19 
REMARK    5  A    between atoms: C20_25  and  C21_26 
ROOT
HETATM    1  C2  UNL     1      21.049  -0.235  53.130  1.00  0.00     0.080 C 
HETATM    2  C3  UNL     1      22.226   0.395  53.025  1.00  0.00     0.047 C 
HETATM    3  C4  UNL     1      22.097   1.542  52.134  1.00  0.00    -0.025 A 
HETATM    4  C5  UNL     1      23.253   2.006  51.619  1.00  0.00     0.127 A 
HETATM    5  N1  UNL     1      23.309   3.099  50.715  1.00  0.00    -0.245 N 
HETATM    6  N3  UNL     1      22.072   3.660  50.389  1.00  0.00    -0.183 NA
HETATM    7  C17 UNL     1      20.944   3.261  50.854  1.00  0.00     0.125 A 
HETATM    8  C18 UNL     1      20.834   2.173  51.800  1.00  0.00     0.086 A 
HETATM    9  C19 UNL     1      19.644   1.352  51.879  1.00  0.00     0.004 C 
HETATM   10  C20 UNL     1      19.782   0.197  52.555  1.00  0.00     0.011 C 
ENDROOT
BRANCH   5  11
HETATM   11  C6  UNL     1      24.490   3.639  50.144  1.00  0.00     0.058 A 
HETATM   12  C7  UNL     1      25.658   2.929  49.974  1.00  0.00     0.031 A 
HETATM   13  C8  UNL     1      26.812   3.442  49.421  1.00  0.00     0.003 A 
HETATM   14  C9  UNL     1      26.814   4.758  49.002  1.00  0.00     0.010 A 
HETATM   15  C10 UNL     1      25.660   5.491  49.161  1.00  0.00    -0.027 A 
HETATM   16  C16 UNL     1      24.531   4.930  49.721  1.00  0.00     0.041 A 
BRANCH  15  17
HETATM   17  C11 UNL     1      25.707   6.895  48.699  1.00  0.00     0.171 A 
HETATM   18  N2  UNL     1      24.723   7.164  47.671  1.00  0.00    -0.384 N 
HETATM   19  C12 UNL     1      23.704   8.149  47.656  1.00  0.00     0.084 A 
HETATM   20  H10 UNL     1      24.829   6.516  46.860  1.00  0.00     0.160 HD
HETATM   21  C13 UNL     1      23.644   8.926  48.726  1.00  0.00     0.019 A 
HETATM   22  C14 UNL     1      24.553   8.799  49.858  1.00  0.00     0.036 A 
HETATM   23  C15 UNL     1      25.482   7.858  49.806  1.00  0.00     0.070 A 
BRANCH  23  24
HETATM   24  O2  UNL     1      26.357   7.709  50.857  1.00  0.00    -0.362 OA
HETATM   25  H14 UNL     1      26.331   6.938  51.521  1.00  0.00     0.217 HD
ENDBRANCH  23  24
ENDBRANCH  15  17
ENDBRANCH   5  11
BRANCH   1  26
HETATM   26  O1  UNL     1      20.957  -1.407  53.907  1.00  0.00    -0.355 OA
HETATM   27  C1  UNL     1      21.949  -1.778  54.825  1.00  0.00     0.210 C 
ENDBRANCH   1  26
BRANCH  10  28
HETATM   28  C21 UNL     1      18.570  -0.617  52.681  1.00  0.00     0.121 C 
HETATM   29  N4  UNL     1      18.179  -1.027  53.835  1.00  0.00    -0.311 NA
HETATM   30  H20 UNL     1      17.315  -1.606  53.919  1.00  0.00     0.186 HD
ENDBRANCH  10  28
TORSDOF 5
ENDMDL
