MODEL 1
REMARK VINA RESULT:      -8.7      0.000      0.000
REMARK  5 active torsions:
REMARK  status: ('A' for Active; 'I' for Inactive)
REMARK    1  A    between atoms: O1_2  and  C2_3 
REMARK    2  A    between atoms: C6_9  and  N3_10 
REMARK    3  A    between atoms: N3_10  and  C7_11 
REMARK    4  A    between atoms: C9_13  and  C10_14 
REMARK    5  A    between atoms: C18_22  and  O2_23 
ROOT
HETATM    1  C2  UNL     1      26.789   0.447  54.339  1.00  0.00     0.103 A 
HETATM    2  C3  UNL     1      25.708  -0.374  54.097  1.00  0.00     0.072 A 
HETATM    3  C4  UNL     1      24.575   0.123  53.514  1.00  0.00     0.075 A 
HETATM    4  N1  UNL     1      23.541  -0.723  53.295  1.00  0.00    -0.241 NA
HETATM    5  C5  UNL     1      22.393  -0.282  52.719  1.00  0.00     0.235 A 
HETATM    6  N2  UNL     1      22.309   1.008  52.374  1.00  0.00    -0.224 NA
HETATM    7  C6  UNL     1      23.271   1.922  52.548  1.00  0.00     0.138 A 
HETATM    8  C16 UNL     1      24.418   1.439  53.133  1.00  0.00     0.041 A 
HETATM    9  C17 UNL     1      25.518   2.225  53.393  1.00  0.00     0.057 A 
HETATM   10  C18 UNL     1      26.683   1.773  53.977  1.00  0.00     0.100 A 
ENDROOT
BRANCH   7  11
HETATM   11  N3  UNL     1      23.165   3.289  52.175  1.00  0.00    -0.369 N 
HETATM   12  H6  UNL     1      22.676   3.980  52.778  1.00  0.00     0.161 HD
BRANCH  11  13
HETATM   13  C7  UNL     1      23.695   3.866  50.957  1.00  0.00     0.092 A 
HETATM   14  C8  UNL     1      23.613   3.067  49.706  1.00  0.00     0.037 A 
HETATM   15  C9  UNL     1      24.940   3.445  50.321  1.00  0.00     0.043 A 
BRANCH  15  16
HETATM   16  C10 UNL     1      25.762   4.474  49.582  1.00  0.00    -0.052 A 
HETATM   17  C11 UNL     1      25.292   5.727  49.256  1.00  0.00     0.007 A 
HETATM   18  C12 UNL     1      26.050   6.658  48.583  1.00  0.00     0.001 A 
HETATM   19  C13 UNL     1      27.338   6.345  48.207  1.00  0.00     0.000 A 
HETATM   20  C14 UNL     1      27.853   5.112  48.506  1.00  0.00     0.001 A 
HETATM   21  C15 UNL     1      27.076   4.220  49.171  1.00  0.00     0.007 A 
ENDBRANCH  15  16
ENDBRANCH  11  13
ENDBRANCH   7  11
BRANCH  10  22
HETATM   22  O2  UNL     1      27.773   2.613  54.220  1.00  0.00    -0.358 OA
HETATM   23  H17 UNL     1      28.117   3.226  53.480  1.00  0.00     0.217 HD
ENDBRANCH  10  22
BRANCH   1  24
HETATM   24  O1  UNL     1      27.937  -0.035  54.924  1.00  0.00    -0.353 OA
HETATM   25  C1  UNL     1      29.006  -0.505  54.130  1.00  0.00     0.210 C 
ENDBRANCH   1  24
TORSDOF 5
ENDMDL
MODEL 2
REMARK VINA RESULT:      -8.1      2.542      6.092
REMARK  5 active torsions:
REMARK  status: ('A' for Active; 'I' for Inactive)
REMARK    1  A    between atoms: O1_2  and  C2_3 
REMARK    2  A    between atoms: C6_9  and  N3_10 
REMARK    3  A    between atoms: N3_10  and  C7_11 
REMARK    4  A    between atoms: C9_13  and  C10_14 
REMARK    5  A    between atoms: C18_22  and  O2_23 
ROOT
HETATM    1  C2  UNL     1      27.563   0.193  53.966  1.00  0.00     0.103 A 
HETATM    2  C3  UNL     1      27.787   1.022  52.887  1.00  0.00     0.072 A 
HETATM    3  C4  UNL     1      26.753   1.711  52.315  1.00  0.00     0.075 A 
HETATM    4  N1  UNL     1      27.022   2.514  51.258  1.00  0.00    -0.241 NA
HETATM    5  C5  UNL     1      26.034   3.221  50.653  1.00  0.00     0.235 A 
HETATM    6  N2  UNL     1      24.787   3.105  51.126  1.00  0.00    -0.224 NA
HETATM    7  C6  UNL     1      24.418   2.342  52.161  1.00  0.00     0.138 A 
HETATM    8  C16 UNL     1      25.446   1.641  52.749  1.00  0.00     0.041 A 
HETATM    9  C17 UNL     1      25.265   0.803  53.826  1.00  0.00     0.057 A 
HETATM   10  C18 UNL     1      26.273   0.087  54.438  1.00  0.00     0.100 A 
ENDROOT
BRANCH   7  11
HETATM   11  N3  UNL     1      23.089   2.231  52.651  1.00  0.00    -0.369 N 
HETATM   12  H6  UNL     1      22.700   2.919  53.325  1.00  0.00     0.161 HD
BRANCH  11  13
HETATM   13  C7  UNL     1      22.152   1.186  52.293  1.00  0.00     0.092 A 
HETATM   14  C8  UNL     1      21.901   0.929  50.851  1.00  0.00     0.037 A 
HETATM   15  C9  UNL     1      20.810   1.429  51.770  1.00  0.00     0.043 A 
BRANCH  15  16
HETATM   16  C10 UNL     1      19.710   0.452  52.110  1.00  0.00    -0.052 A 
HETATM   17  C11 UNL     1      19.761  -0.400  53.192  1.00  0.00     0.007 A 
HETATM   18  C12 UNL     1      18.751  -1.285  53.494  1.00  0.00     0.001 A 
HETATM   19  C13 UNL     1      17.632  -1.340  52.694  1.00  0.00     0.000 A 
HETATM   20  C14 UNL     1      17.531  -0.515  51.606  1.00  0.00     0.001 A 
HETATM   21  C15 UNL     1      18.547   0.345  51.339  1.00  0.00     0.007 A 
ENDBRANCH  15  16
ENDBRANCH  11  13
ENDBRANCH   7  11
BRANCH  10  22
HETATM   22  O2  UNL     1      26.036  -0.752  55.532  1.00  0.00    -0.358 OA
HETATM   23  H17 UNL     1      25.984  -1.762  55.394  1.00  0.00     0.217 HD
ENDBRANCH  10  22
BRANCH   1  24
HETATM   24  O1  UNL     1      28.590  -0.508  54.555  1.00  0.00    -0.353 OA
HETATM   25  C1  UNL     1      29.736  -0.866  53.810  1.00  0.00     0.210 C 
ENDBRANCH   1  24
TORSDOF 5
ENDMDL
MODEL 3
REMARK VINA RESULT:      -8.1      3.089      4.752
REMARK  5 active torsions:
REMARK  status: ('A' for Active; 'I' for Inactive)
REMARK    1  A    between atoms: O1_2  and  C2_3 
REMARK    2  A    between atoms: C6_9  and  N3_10 
REMARK    3  A    between atoms: N3_10  and  C7_11 
REMARK    4  A    between atoms: C9_13  and  C10_14 
REMARK    5  A    between atoms: C18_22  and  O2_23 
ROOT
HETATM    1  C2  UNL     1      20.421  -0.546  53.472  1.00  0.00     0.103 A 
HETATM    2  C3  UNL     1      21.140  -0.952  54.577  1.00  0.00     0.072 A 
HETATM    3  C4  UNL     1      22.507  -0.920  54.564  1.00  0.00     0.075 A 
HETATM    4  N1  UNL     1      23.169  -1.327  55.673  1.00  0.00    -0.241 NA
HETATM    5  C5  UNL     1      24.526  -1.316  55.715  1.00  0.00     0.235 A 
HETATM    6  N2  UNL     1      25.193  -0.894  54.634  1.00  0.00    -0.224 NA
HETATM    7  C6  UNL     1      24.635  -0.473  53.494  1.00  0.00     0.138 A 
HETATM    8  C16 UNL     1      23.259  -0.498  53.488  1.00  0.00     0.041 A 
HETATM    9  C17 UNL     1      22.504  -0.103  52.407  1.00  0.00     0.057 A 
HETATM   10  C18 UNL     1      21.126  -0.115  52.369  1.00  0.00     0.100 A 
ENDROOT
BRANCH   7  11
HETATM   11  N3  UNL     1      25.358  -0.027  52.355  1.00  0.00    -0.369 N 
HETATM   12  H6  UNL     1      25.677  -0.690  51.620  1.00  0.00     0.161 HD
BRANCH  11  13
HETATM   13  C7  UNL     1      25.732   1.346  52.088  1.00  0.00     0.092 A 
HETATM   14  C8  UNL     1      25.213   2.405  52.992  1.00  0.00     0.037 A 
HETATM   15  C9  UNL     1      24.831   2.351  51.530  1.00  0.00     0.043 A 
BRANCH  15  16
HETATM   16  C10 UNL     1      25.405   3.426  50.639  1.00  0.00    -0.052 A 
HETATM   17  C11 UNL     1      26.553   3.261  49.895  1.00  0.00     0.007 A 
HETATM   18  C12 UNL     1      27.066   4.248  49.084  1.00  0.00     0.001 A 
HETATM   19  C13 UNL     1      26.422   5.463  48.998  1.00  0.00     0.000 A 
HETATM   20  C14 UNL     1      25.277   5.679  49.718  1.00  0.00     0.001 A 
HETATM   21  C15 UNL     1      24.800   4.682  50.507  1.00  0.00     0.007 A 
ENDBRANCH  15  16
ENDBRANCH  11  13
ENDBRANCH   7  11
BRANCH  10  22
HETATM   22  O2  UNL     1      20.404   0.297  51.244  1.00  0.00    -0.358 OA
HETATM   23  H17 UNL     1      20.536  -0.183  50.353  1.00  0.00     0.217 HD
ENDBRANCH  10  22
BRANCH   1  24
HETATM   24  O1  UNL     1      19.045  -0.570  53.466  1.00  0.00    -0.353 OA
HETATM   25  C1  UNL     1      18.347  -1.798  53.460  1.00  0.00     0.210 C 
ENDBRANCH   1  24
TORSDOF 5
ENDMDL
MODEL 4
REMARK VINA RESULT:      -7.9      2.705      4.132
REMARK  5 active torsions:
REMARK  status: ('A' for Active; 'I' for Inactive)
REMARK    1  A    between atoms: O1_2  and  C2_3 
REMARK    2  A    between atoms: C6_9  and  N3_10 
REMARK    3  A    between atoms: N3_10  and  C7_11 
REMARK    4  A    between atoms: C9_13  and  C10_14 
REMARK    5  A    between atoms: C18_22  and  O2_23 
ROOT
HETATM    1  C2  UNL     1      23.698  -0.353  53.333  1.00  0.00     0.103 A 
HETATM    2  C3  UNL     1      24.947  -0.744  53.766  1.00  0.00     0.072 A 
HETATM    3  C4  UNL     1      26.054  -0.005  53.449  1.00  0.00     0.075 A 
HETATM    4  N1  UNL     1      27.259  -0.428  53.899  1.00  0.00    -0.241 NA
HETATM    5  C5  UNL     1      28.390   0.267  53.613  1.00  0.00     0.235 A 
HETATM    6  N2  UNL     1      28.284   1.380  52.877  1.00  0.00    -0.224 NA
HETATM    7  C6  UNL     1      27.144   1.880  52.387  1.00  0.00     0.138 A 
HETATM    8  C16 UNL     1      26.020   1.150  52.696  1.00  0.00     0.041 A 
HETATM    9  C17 UNL     1      24.756   1.504  52.283  1.00  0.00     0.057 A 
HETATM   10  C18 UNL     1      23.609   0.795  52.576  1.00  0.00     0.100 A 
ENDROOT
BRANCH   7  11
HETATM   11  N3  UNL     1      27.050   3.064  51.607  1.00  0.00    -0.369 N 
HETATM   12  H6  UNL     1      27.521   3.944  51.896  1.00  0.00     0.161 HD
BRANCH  11  13
HETATM   13  C7  UNL     1      26.311   3.191  50.368  1.00  0.00     0.092 A 
HETATM   14  C8  UNL     1      26.859   4.080  49.310  1.00  0.00     0.037 A 
HETATM   15  C9  UNL     1      25.539   4.371  49.988  1.00  0.00     0.043 A 
BRANCH  15  16
HETATM   16  C10 UNL     1      24.294   4.187  49.154  1.00  0.00    -0.052 A 
HETATM   17  C11 UNL     1      23.705   5.205  48.436  1.00  0.00     0.007 A 
HETATM   18  C12 UNL     1      22.570   5.025  47.678  1.00  0.00     0.001 A 
HETATM   19  C13 UNL     1      21.979   3.782  47.619  1.00  0.00     0.000 A 
HETATM   20  C14 UNL     1      22.525   2.736  48.315  1.00  0.00     0.001 A 
HETATM   21  C15 UNL     1      23.644   2.951  49.052  1.00  0.00     0.007 A 
ENDBRANCH  15  16
ENDBRANCH  11  13
ENDBRANCH   7  11
BRANCH  10  22
HETATM   22  O2  UNL     1      22.346   1.198  52.131  1.00  0.00    -0.358 OA
HETATM   23  H17 UNL     1      21.518   0.670  52.410  1.00  0.00     0.217 HD
ENDBRANCH  10  22
BRANCH   1  24
HETATM   24  O1  UNL     1      22.573  -1.083  53.642  1.00  0.00    -0.353 OA
HETATM   25  C1  UNL     1      21.963  -0.961  54.910  1.00  0.00     0.210 C 
ENDBRANCH   1  24
TORSDOF 5
ENDMDL
MODEL 5
REMARK VINA RESULT:      -7.8      3.333      6.714
REMARK  5 active torsions:
REMARK  status: ('A' for Active; 'I' for Inactive)
REMARK    1  A    between atoms: O1_2  and  C2_3 
REMARK    2  A    between atoms: C6_9  and  N3_10 
REMARK    3  A    between atoms: N3_10  and  C7_11 
REMARK    4  A    between atoms: C9_13  and  C10_14 
REMARK    5  A    between atoms: C18_22  and  O2_23 
ROOT
HETATM    1  C2  UNL     1      27.857  -0.482  53.233  1.00  0.00     0.103 A 
HETATM    2  C3  UNL     1      27.503   0.846  53.339  1.00  0.00     0.072 A 
HETATM    3  C4  UNL     1      26.190   1.222  53.259  1.00  0.00     0.075 A 
HETATM    4  N1  UNL     1      25.891   2.538  53.370  1.00  0.00    -0.241 NA
HETATM    5  C5  UNL     1      24.605   2.966  53.299  1.00  0.00     0.235 A 
HETATM    6  N2  UNL     1      23.640   2.057  53.116  1.00  0.00    -0.224 NA
HETATM    7  C6  UNL     1      23.831   0.738  52.996  1.00  0.00     0.138 A 
HETATM    8  C16 UNL     1      25.146   0.341  53.073  1.00  0.00     0.041 A 
HETATM    9  C17 UNL     1      25.541  -0.973  52.972  1.00  0.00     0.057 A 
HETATM   10  C18 UNL     1      26.850  -1.404  53.046  1.00  0.00     0.100 A 
ENDROOT
BRANCH   7  11
HETATM   11  N3  UNL     1      22.794  -0.215  52.803  1.00  0.00    -0.369 N 
HETATM   12  H6  UNL     1      23.004  -1.211  52.596  1.00  0.00     0.161 HD
BRANCH  11  13
HETATM   13  C7  UNL     1      21.376   0.071  52.862  1.00  0.00     0.092 A 
HETATM   14  C8  UNL     1      20.780   0.408  54.181  1.00  0.00     0.037 A 
HETATM   15  C9  UNL     1      20.377  -0.835  53.423  1.00  0.00     0.043 A 
BRANCH  15  16
HETATM   16  C10 UNL     1      18.989  -0.845  52.826  1.00  0.00    -0.052 A 
HETATM   17  C11 UNL     1      18.621  -0.066  51.751  1.00  0.00     0.007 A 
HETATM   18  C12 UNL     1      17.354  -0.085  51.214  1.00  0.00     0.001 A 
HETATM   19  C13 UNL     1      16.395  -0.909  51.759  1.00  0.00     0.000 A 
HETATM   20  C14 UNL     1      16.709  -1.704  52.829  1.00  0.00     0.001 A 
HETATM   21  C15 UNL     1      17.969  -1.659  53.332  1.00  0.00     0.007 A 
ENDBRANCH  15  16
ENDBRANCH  11  13
ENDBRANCH   7  11
BRANCH  10  22
HETATM   22  O2  UNL     1      27.201  -2.753  52.937  1.00  0.00    -0.358 OA
HETATM   23  H17 UNL     1      26.569  -3.472  53.292  1.00  0.00     0.217 HD
ENDBRANCH  10  22
BRANCH   1  24
HETATM   24  O1  UNL     1      29.172  -0.880  53.311  1.00  0.00    -0.353 OA
HETATM   25  C1  UNL     1      30.202   0.070  53.490  1.00  0.00     0.210 C 
ENDBRANCH   1  24
TORSDOF 5
ENDMDL
MODEL 6
REMARK VINA RESULT:      -7.7      2.691      3.859
REMARK  5 active torsions:
REMARK  status: ('A' for Active; 'I' for Inactive)
REMARK    1  A    between atoms: O1_2  and  C2_3 
REMARK    2  A    between atoms: C6_9  and  N3_10 
REMARK    3  A    between atoms: N3_10  and  C7_11 
REMARK    4  A    between atoms: C9_13  and  C10_14 
REMARK    5  A    between atoms: C18_22  and  O2_23 
ROOT
HETATM    1  C2  UNL     1      22.297   0.213  53.748  1.00  0.00     0.103 A 
HETATM    2  C3  UNL     1      23.602  -0.228  53.702  1.00  0.00     0.072 A 
HETATM    3  C4  UNL     1      24.521   0.403  52.909  1.00  0.00     0.075 A 
HETATM    4  N1  UNL     1      25.791  -0.066  52.899  1.00  0.00    -0.241 NA
HETATM    5  C5  UNL     1      26.743   0.523  52.131  1.00  0.00     0.235 A 
HETATM    6  N2  UNL     1      26.396   1.578  51.385  1.00  0.00    -0.224 NA
HETATM    7  C6  UNL     1      25.173   2.117  51.325  1.00  0.00     0.138 A 
HETATM    8  C16 UNL     1      24.235   1.494  52.116  1.00  0.00     0.041 A 
HETATM    9  C17 UNL     1      22.923   1.903  52.190  1.00  0.00     0.057 A 
HETATM   10  C18 UNL     1      21.959   1.302  52.973  1.00  0.00     0.100 A 
ENDROOT
BRANCH   7  11
HETATM   11  N3  UNL     1      24.821   3.239  50.528  1.00  0.00    -0.369 N 
HETATM   12  H6  UNL     1      23.894   3.305  50.063  1.00  0.00     0.161 HD
BRANCH  11  13
HETATM   13  C7  UNL     1      25.675   4.380  50.268  1.00  0.00     0.092 A 
HETATM   14  C8  UNL     1      25.058   5.732  50.253  1.00  0.00     0.037 A 
HETATM   15  C9  UNL     1      25.685   5.131  49.016  1.00  0.00     0.043 A 
BRANCH  15  16
HETATM   16  C10 UNL     1      26.983   5.745  48.547  1.00  0.00    -0.052 A 
HETATM   17  C11 UNL     1      28.175   5.056  48.508  1.00  0.00     0.007 A 
HETATM   18  C12 UNL     1      29.353   5.625  48.077  1.00  0.00     0.001 A 
HETATM   19  C13 UNL     1      29.363   6.939  47.664  1.00  0.00     0.000 A 
HETATM   20  C14 UNL     1      28.204   7.669  47.684  1.00  0.00     0.001 A 
HETATM   21  C15 UNL     1      27.062   7.074  48.115  1.00  0.00     0.007 A 
ENDBRANCH  15  16
ENDBRANCH  11  13
ENDBRANCH   7  11
BRANCH  10  22
HETATM   22  O2  UNL     1      20.637   1.756  53.012  1.00  0.00    -0.358 OA
HETATM   23  H17 UNL     1      20.098   1.673  53.875  1.00  0.00     0.217 HD
ENDBRANCH  10  22
BRANCH   1  24
HETATM   24  O1  UNL     1      21.359  -0.409  54.539  1.00  0.00    -0.353 OA
HETATM   25  C1  UNL     1      20.927  -1.721  54.247  1.00  0.00     0.210 C 
ENDBRANCH   1  24
TORSDOF 5
ENDMDL
MODEL 7
REMARK VINA RESULT:      -7.7      2.636      6.401
REMARK  5 active torsions:
REMARK  status: ('A' for Active; 'I' for Inactive)
REMARK    1  A    between atoms: O1_2  and  C2_3 
REMARK    2  A    between atoms: C6_9  and  N3_10 
REMARK    3  A    between atoms: N3_10  and  C7_11 
REMARK    4  A    between atoms: C9_13  and  C10_14 
REMARK    5  A    between atoms: C18_22  and  O2_23 
ROOT
HETATM    1  C2  UNL     1      25.570   6.266  49.415  1.00  0.00     0.103 A 
HETATM    2  C3  UNL     1      24.432   6.463  50.169  1.00  0.00     0.072 A 
HETATM    3  C4  UNL     1      23.841   5.415  50.819  1.00  0.00     0.075 A 
HETATM    4  N1  UNL     1      22.726   5.658  51.548  1.00  0.00    -0.241 NA
HETATM    5  C5  UNL     1      22.099   4.654  52.214  1.00  0.00     0.235 A 
HETATM    6  N2  UNL     1      22.610   3.420  52.133  1.00  0.00    -0.224 NA
HETATM    7  C6  UNL     1      23.703   3.077  51.442  1.00  0.00     0.138 A 
HETATM    8  C16 UNL     1      24.311   4.119  50.781  1.00  0.00     0.041 A 
HETATM    9  C17 UNL     1      25.447   3.965  50.018  1.00  0.00     0.057 A 
HETATM   10  C18 UNL     1      26.081   4.988  49.344  1.00  0.00     0.100 A 
ENDROOT
BRANCH   7  11
HETATM   11  N3  UNL     1      24.233   1.761  51.367  1.00  0.00    -0.369 N 
HETATM   12  H6  UNL     1      23.965   1.110  50.601  1.00  0.00     0.161 HD
BRANCH  11  13
HETATM   13  C7  UNL     1      25.168   1.182  52.309  1.00  0.00     0.092 A 
HETATM   14  C8  UNL     1      25.566   1.989  53.492  1.00  0.00     0.037 A 
HETATM   15  C9  UNL     1      26.566   1.584  52.434  1.00  0.00     0.043 A 
BRANCH  15  16
HETATM   16  C10 UNL     1      27.588   0.545  52.829  1.00  0.00    -0.052 A 
HETATM   17  C11 UNL     1      28.817   0.859  53.368  1.00  0.00     0.007 A 
HETATM   18  C12 UNL     1      29.741  -0.097  53.726  1.00  0.00     0.001 A 
HETATM   19  C13 UNL     1      29.447  -1.431  53.546  1.00  0.00     0.000 A 
HETATM   20  C14 UNL     1      28.239  -1.796  53.014  1.00  0.00     0.001 A 
HETATM   21  C15 UNL     1      27.353  -0.826  52.673  1.00  0.00     0.007 A 
ENDBRANCH  15  16
ENDBRANCH  11  13
ENDBRANCH   7  11
BRANCH  10  22
HETATM   22  O2  UNL     1      27.234   4.780  48.581  1.00  0.00    -0.358 OA
HETATM   23  H17 UNL     1      28.000   5.453  48.625  1.00  0.00     0.217 HD
ENDBRANCH  10  22
BRANCH   1  24
HETATM   24  O1  UNL     1      26.179   7.308  48.754  1.00  0.00    -0.353 OA
HETATM   25  C1  UNL     1      27.053   8.182  49.438  1.00  0.00     0.210 C 
ENDBRANCH   1  24
TORSDOF 5
ENDMDL
MODEL 8
REMARK VINA RESULT:      -7.6      1.529      2.137
REMARK  5 active torsions:
REMARK  status: ('A' for Active; 'I' for Inactive)
REMARK    1  A    between atoms: O1_2  and  C2_3 
REMARK    2  A    between atoms: C6_9  and  N3_10 
REMARK    3  A    between atoms: N3_10  and  C7_11 
REMARK    4  A    between atoms: C9_13  and  C10_14 
REMARK    5  A    between atoms: C18_22  and  O2_23 
ROOT
HETATM    1  C2  UNL     1      24.760   0.866  53.475  1.00  0.00     0.103 A 
HETATM    2  C3  UNL     1      23.591   0.535  52.824  1.00  0.00     0.072 A 
HETATM    3  C4  UNL     1      22.912   1.473  52.097  1.00  0.00     0.075 A 
HETATM    4  N1  UNL     1      21.769   1.100  51.474  1.00  0.00    -0.241 NA
HETATM    5  C5  UNL     1      21.056   1.991  50.739  1.00  0.00     0.235 A 
HETATM    6  N2  UNL     1      21.510   3.246  50.644  1.00  0.00    -0.224 NA
HETATM    7  C6  UNL     1      22.624   3.713  51.218  1.00  0.00     0.138 A 
HETATM    8  C16 UNL     1      23.320   2.782  51.955  1.00  0.00     0.041 A 
HETATM    9  C17 UNL     1      24.490   3.072  52.620  1.00  0.00     0.057 A 
HETATM   10  C18 UNL     1      25.212   2.164  53.366  1.00  0.00     0.100 A 
ENDROOT
BRANCH   7  11
HETATM   11  N3  UNL     1      23.093   5.050  51.107  1.00  0.00    -0.369 N 
HETATM   12  H6  UNL     1      22.799   5.786  51.780  1.00  0.00     0.161 HD
BRANCH  11  13
HETATM   13  C7  UNL     1      23.993   5.537  50.083  1.00  0.00     0.092 A 
HETATM   14  C8  UNL     1      23.837   5.012  48.701  1.00  0.00     0.037 A 
HETATM   15  C9  UNL     1      25.087   4.756  49.511  1.00  0.00     0.043 A 
BRANCH  15  16
HETATM   16  C10 UNL     1      26.340   5.476  49.070  1.00  0.00    -0.052 A 
HETATM   17  C11 UNL     1      26.448   6.849  49.024  1.00  0.00     0.007 A 
HETATM   18  C12 UNL     1      27.596   7.494  48.622  1.00  0.00     0.001 A 
HETATM   19  C13 UNL     1      28.696   6.757  48.243  1.00  0.00     0.000 A 
HETATM   20  C14 UNL     1      28.640   5.389  48.271  1.00  0.00     0.001 A 
HETATM   21  C15 UNL     1      27.492   4.786  48.673  1.00  0.00     0.007 A 
ENDBRANCH  15  16
ENDBRANCH  11  13
ENDBRANCH   7  11
BRANCH  10  22
HETATM   22  O2  UNL     1      26.397   2.508  54.023  1.00  0.00    -0.358 OA
HETATM   23  H17 UNL     1      26.943   3.307  53.699  1.00  0.00     0.217 HD
ENDBRANCH  10  22
BRANCH   1  24
HETATM   24  O1  UNL     1      25.457  -0.064  54.212  1.00  0.00    -0.353 OA
HETATM   25  C1  UNL     1      26.322  -0.983  53.577  1.00  0.00     0.210 C 
ENDBRANCH   1  24
TORSDOF 5
ENDMDL
MODEL 9
REMARK VINA RESULT:      -7.6      2.492      3.559
REMARK  5 active torsions:
REMARK  status: ('A' for Active; 'I' for Inactive)
REMARK    1  A    between atoms: O1_2  and  C2_3 
REMARK    2  A    between atoms: C6_9  and  N3_10 
REMARK    3  A    between atoms: N3_10  and  C7_11 
REMARK    4  A    between atoms: C9_13  and  C10_14 
REMARK    5  A    between atoms: C18_22  and  O2_23 
ROOT
HETATM    1  C2  UNL     1      22.440   0.052  53.068  1.00  0.00     0.103 A 
HETATM    2  C3  UNL     1      21.246   0.655  52.732  1.00  0.00     0.072 A 
HETATM    3  C4  UNL     1      21.217   1.965  52.338  1.00  0.00     0.075 A 
HETATM    4  N1  UNL     1      20.021   2.512  52.016  1.00  0.00    -0.241 NA
HETATM    5  C5  UNL     1      19.934   3.807  51.618  1.00  0.00     0.235 A 
HETATM    6  N2  UNL     1      21.059   4.529  51.552  1.00  0.00    -0.224 NA
HETATM    7  C6  UNL     1      22.285   4.083  51.847  1.00  0.00     0.138 A 
HETATM    8  C16 UNL     1      22.334   2.767  52.246  1.00  0.00     0.041 A 
HETATM    9  C17 UNL     1      23.504   2.129  52.590  1.00  0.00     0.057 A 
HETATM   10  C18 UNL     1      23.588   0.812  52.993  1.00  0.00     0.100 A 
ENDROOT
BRANCH   7  11
HETATM   11  N3  UNL     1      23.470   4.864  51.770  1.00  0.00    -0.369 N 
HETATM   12  H6  UNL     1      23.915   5.261  52.622  1.00  0.00     0.161 HD
BRANCH  11  13
HETATM   13  C7  UNL     1      24.174   5.196  50.549  1.00  0.00     0.092 A 
HETATM   14  C8  UNL     1      23.972   4.326  49.361  1.00  0.00     0.037 A 
HETATM   15  C9  UNL     1      25.320   4.454  50.031  1.00  0.00     0.043 A 
BRANCH  15  16
HETATM   16  C10 UNL     1      26.388   5.203  49.270  1.00  0.00    -0.052 A 
HETATM   17  C11 UNL     1      27.574   4.630  48.868  1.00  0.00     0.007 A 
HETATM   18  C12 UNL     1      28.540   5.323  48.173  1.00  0.00     0.001 A 
HETATM   19  C13 UNL     1      28.334   6.647  47.856  1.00  0.00     0.000 A 
HETATM   20  C14 UNL     1      27.171   7.264  48.233  1.00  0.00     0.001 A 
HETATM   21  C15 UNL     1      26.241   6.550  48.918  1.00  0.00     0.007 A 
ENDBRANCH  15  16
ENDBRANCH  11  13
ENDBRANCH   7  11
BRANCH  10  22
HETATM   22  O2  UNL     1      24.803   0.209  53.333  1.00  0.00    -0.358 OA
HETATM   23  H17 UNL     1      24.856  -0.399  54.150  1.00  0.00     0.217 HD
ENDBRANCH  10  22
BRANCH   1  24
HETATM   24  O1  UNL     1      22.490  -1.264  53.466  1.00  0.00    -0.353 OA
HETATM   25  C1  UNL     1      21.742  -1.707  54.579  1.00  0.00     0.210 C 
ENDBRANCH   1  24
TORSDOF 5
ENDMDL
