MODEL 1
REMARK VINA RESULT:      -8.2      0.000      0.000
REMARK  6 active torsions:
REMARK  status: ('A' for Active; 'I' for Inactive)
REMARK    1  A    between atoms: C2_2  and  C3_3 
REMARK       I    between atoms: C3_3  and  N1_5 
REMARK    2  A    between atoms: N1_5  and  C4_6 
REMARK    3  A    between atoms: C8_10  and  O2_11 
REMARK    4  A    between atoms: O2_11  and  C9_12 
REMARK    5  A    between atoms: C13_19  and  C14_20 
REMARK    6  A    between atoms: C15_21  and  O3_22 
ROOT
HETATM    1  C9  UNL     1      25.570   3.571  50.216  1.00  0.00     0.195 A 
HETATM    2  N2  UNL     1      26.741   3.448  49.561  1.00  0.00    -0.200 NA
HETATM    3  C10 UNL     1      27.364   4.466  48.952  1.00  0.00     0.241 A 
HETATM    4  N3  UNL     1      26.766   5.566  49.035  1.00  0.00     0.024 N 
HETATM    5  C11 UNL     1      25.663   5.828  49.616  1.00  0.00     0.182 A 
HETATM    6  C12 UNL     1      24.977   4.820  50.260  1.00  0.00     0.120 A 
HETATM    7 CL1  UNL     1      23.673   5.869  50.770  1.00  0.00    -0.077 Cl
HETATM    8  C13 UNL     1      26.168   7.086  49.015  1.00  0.00     0.254 A 
HETATM    9  C17 UNL     1      27.453   6.925  48.223  1.00  0.00     0.077 A 
HETATM   10  C18 UNL     1      28.075   5.566  48.270  1.00  0.00     0.310 A 
ENDROOT
BRANCH   1  11
HETATM   11  O2  UNL     1      24.631   2.893  50.929  1.00  0.00    -0.290 OA
BRANCH  11  12
HETATM   12  C8  UNL     1      24.820   1.771  51.703  1.00  0.00     0.080 A 
HETATM   13  C7  UNL     1      23.675   1.230  52.235  1.00  0.00     0.037 A 
HETATM   14  C6  UNL     1      23.824   0.091  53.028  1.00  0.00     0.005 A 
HETATM   15  C5  UNL     1      25.105  -0.427  53.234  1.00  0.00     0.029 A 
HETATM   16  C4  UNL     1      26.219   0.172  52.666  1.00  0.00     0.037 A 
HETATM   17  C19 UNL     1      26.105   1.306  51.871  1.00  0.00     0.066 A 
BRANCH  16  18
HETATM   18  N1  UNL     1      27.505  -0.382  52.897  1.00  0.00    -0.324 N 
HETATM   19  C3  UNL     1      28.442  -0.005  53.874  1.00  0.00     0.244 C 
HETATM   20  O1  UNL     1      28.367   0.886  54.751  1.00  0.00    -0.268 OA
HETATM   21  H4  UNL     1      27.738  -1.161  52.233  1.00  0.00     0.169 HD
BRANCH  19  22
HETATM   22  C2  UNL     1      29.710  -0.707  53.940  1.00  0.00     0.064 C 
HETATM   23  C1  UNL     1      29.560  -1.880  53.384  1.00  0.00     0.017 C 
ENDBRANCH  19  22
ENDBRANCH  16  18
ENDBRANCH  11  12
ENDBRANCH   1  11
BRANCH   8  24
HETATM   24  C14 UNL     1      25.071   7.575  48.133  1.00  0.00     0.035 C 
HETATM   25  C15 UNL     1      25.134   8.760  47.589  1.00  0.00     0.132 C 
BRANCH  25  26
HETATM   26  O3  UNL     1      25.731   9.982  47.341  1.00  0.00    -0.368 OA
HETATM   27  C16 UNL     1      26.175  10.825  48.384  1.00  0.00     0.208 C 
ENDBRANCH  25  26
ENDBRANCH   8  24
TORSDOF 6
ENDMDL
MODEL 2
REMARK VINA RESULT:      -8.2      1.602      2.054
REMARK  6 active torsions:
REMARK  status: ('A' for Active; 'I' for Inactive)
REMARK    1  A    between atoms: C2_2  and  C3_3 
REMARK       I    between atoms: C3_3  and  N1_5 
REMARK    2  A    between atoms: N1_5  and  C4_6 
REMARK    3  A    between atoms: C8_10  and  O2_11 
REMARK    4  A    between atoms: O2_11  and  C9_12 
REMARK    5  A    between atoms: C13_19  and  C14_20 
REMARK    6  A    between atoms: C15_21  and  O3_22 
ROOT
HETATM    1  C9  UNL     1      24.573   3.228  50.443  1.00  0.00     0.195 A 
HETATM    2  N2  UNL     1      25.522   3.521  49.532  1.00  0.00    -0.200 NA
HETATM    3  C10 UNL     1      25.978   4.758  49.302  1.00  0.00     0.241 A 
HETATM    4  N3  UNL     1      25.447   5.648  50.011  1.00  0.00     0.024 N 
HETATM    5  C11 UNL     1      24.547   5.520  50.904  1.00  0.00     0.182 A 
HETATM    6  C12 UNL     1      24.040   4.269  51.184  1.00  0.00     0.120 A 
HETATM    7 CL1  UNL     1      22.943   4.855  52.413  1.00  0.00    -0.077 Cl
HETATM    8  C13 UNL     1      24.897   6.958  50.817  1.00  0.00     0.254 A 
HETATM    9  C17 UNL     1      25.917   7.287  49.742  1.00  0.00     0.077 A 
HETATM   10  C18 UNL     1      26.501   6.112  49.025  1.00  0.00     0.310 A 
ENDROOT
BRANCH   1  11
HETATM   11  O2  UNL     1      23.848   2.217  50.992  1.00  0.00    -0.290 OA
BRANCH  11  12
HETATM   12  C8  UNL     1      24.277   1.281  51.904  1.00  0.00     0.080 A 
HETATM   13  C7  UNL     1      23.297   0.761  52.712  1.00  0.00     0.037 A 
HETATM   14  C6  UNL     1      23.692  -0.192  53.652  1.00  0.00     0.005 A 
HETATM   15  C5  UNL     1      25.039  -0.559  53.719  1.00  0.00     0.029 A 
HETATM   16  C4  UNL     1      25.978   0.009  52.871  1.00  0.00     0.037 A 
HETATM   17  C19 UNL     1      25.617   0.960  51.924  1.00  0.00     0.066 A 
BRANCH  16  18
HETATM   18  N1  UNL     1      27.337  -0.388  52.967  1.00  0.00    -0.324 N 
HETATM   19  C3  UNL     1      28.288   0.021  53.918  1.00  0.00     0.244 C 
HETATM   20  O1  UNL     1      28.164   0.811  54.882  1.00  0.00    -0.268 OA
HETATM   21  H4  UNL     1      27.617  -1.066  52.217  1.00  0.00     0.169 HD
BRANCH  19  22
HETATM   22  C2  UNL     1      29.635  -0.509  53.837  1.00  0.00     0.064 C 
HETATM   23  C1  UNL     1      29.566  -1.750  53.434  1.00  0.00     0.017 C 
ENDBRANCH  19  22
ENDBRANCH  16  18
ENDBRANCH  11  12
ENDBRANCH   1  11
BRANCH   8  24
HETATM   24  C14 UNL     1      23.613   7.665  50.548  1.00  0.00     0.035 C 
HETATM   25  C15 UNL     1      22.998   7.515  49.406  1.00  0.00     0.132 C 
BRANCH  25  26
HETATM   26  O3  UNL     1      22.854   6.996  48.133  1.00  0.00    -0.368 OA
HETATM   27  C16 UNL     1      22.400   5.676  47.909  1.00  0.00     0.208 C 
ENDBRANCH  25  26
ENDBRANCH   8  24
TORSDOF 6
ENDMDL
MODEL 3
REMARK VINA RESULT:      -8.0      2.415      7.768
REMARK  6 active torsions:
REMARK  status: ('A' for Active; 'I' for Inactive)
REMARK    1  A    between atoms: C2_2  and  C3_3 
REMARK       I    between atoms: C3_3  and  N1_5 
REMARK    2  A    between atoms: N1_5  and  C4_6 
REMARK    3  A    between atoms: C8_10  and  O2_11 
REMARK    4  A    between atoms: O2_11  and  C9_12 
REMARK    5  A    between atoms: C13_19  and  C14_20 
REMARK    6  A    between atoms: C15_21  and  O3_22 
ROOT
HETATM    1  C9  UNL     1      23.703   2.054  51.175  1.00  0.00     0.195 A 
HETATM    2  N2  UNL     1      22.697   1.475  51.860  1.00  0.00    -0.200 NA
HETATM    3  C10 UNL     1      22.882   0.596  52.853  1.00  0.00     0.241 A 
HETATM    4  N3  UNL     1      24.085   0.343  53.107  1.00  0.00     0.024 N 
HETATM    5  C11 UNL     1      25.130   0.810  52.547  1.00  0.00     0.182 A 
HETATM    6  C12 UNL     1      25.001   1.720  51.519  1.00  0.00     0.120 A 
HETATM    7 CL1  UNL     1      26.728   1.883  51.286  1.00  0.00    -0.077 Cl
HETATM    8  C13 UNL     1      25.567  -0.134  53.605  1.00  0.00     0.254 A 
HETATM    9  C17 UNL     1      24.428  -0.832  54.324  1.00  0.00     0.077 A 
HETATM   10  C18 UNL     1      23.052  -0.377  53.952  1.00  0.00     0.310 A 
ENDROOT
BRANCH   1  11
HETATM   11  O2  UNL     1      23.994   2.929  50.175  1.00  0.00    -0.290 OA
BRANCH  11  12
HETATM   12  C8  UNL     1      24.372   4.245  50.302  1.00  0.00     0.080 A 
HETATM   13  C7  UNL     1      23.614   4.989  51.173  1.00  0.00     0.037 A 
HETATM   14  C6  UNL     1      23.965   6.331  51.329  1.00  0.00     0.005 A 
HETATM   15  C5  UNL     1      25.048   6.836  50.605  1.00  0.00     0.029 A 
HETATM   16  C4  UNL     1      25.771   6.027  49.741  1.00  0.00     0.037 A 
HETATM   17  C19 UNL     1      25.447   4.687  49.563  1.00  0.00     0.066 A 
BRANCH  16  18
HETATM   18  N1  UNL     1      26.865   6.574  49.022  1.00  0.00    -0.324 N 
HETATM   19  C3  UNL     1      27.970   5.890  48.485  1.00  0.00     0.244 C 
HETATM   20  O1  UNL     1      28.243   4.668  48.512  1.00  0.00    -0.268 OA
HETATM   21  H4  UNL     1      26.796   7.614  48.904  1.00  0.00     0.169 HD
BRANCH  19  22
HETATM   22  C2  UNL     1      28.987   6.646  47.779  1.00  0.00     0.064 C 
HETATM   23  C1  UNL     1      30.090   5.946  47.772  1.00  0.00     0.017 C 
ENDBRANCH  19  22
ENDBRANCH  16  18
ENDBRANCH  11  12
ENDBRANCH   1  11
BRANCH   8  24
HETATM   24  C14 UNL     1      26.434  -1.130  52.914  1.00  0.00     0.035 C 
HETATM   25  C15 UNL     1      27.725  -1.134  53.107  1.00  0.00     0.132 C 
BRANCH  25  26
HETATM   26  O3  UNL     1      28.898  -0.666  53.671  1.00  0.00    -0.368 OA
HETATM   27  C16 UNL     1      29.221   0.710  53.693  1.00  0.00     0.208 C 
ENDBRANCH  25  26
ENDBRANCH   8  24
TORSDOF 6
ENDMDL
MODEL 4
REMARK VINA RESULT:      -8.0      2.783      7.671
REMARK  6 active torsions:
REMARK  status: ('A' for Active; 'I' for Inactive)
REMARK    1  A    between atoms: C2_2  and  C3_3 
REMARK       I    between atoms: C3_3  and  N1_5 
REMARK    2  A    between atoms: N1_5  and  C4_6 
REMARK    3  A    between atoms: C8_10  and  O2_11 
REMARK    4  A    between atoms: O2_11  and  C9_12 
REMARK    5  A    between atoms: C13_19  and  C14_20 
REMARK    6  A    between atoms: C15_21  and  O3_22 
ROOT
HETATM    1  C9  UNL     1      26.166   3.332  50.349  1.00  0.00     0.195 A 
HETATM    2  N2  UNL     1      27.097   2.825  51.181  1.00  0.00    -0.200 NA
HETATM    3  C10 UNL     1      26.849   1.859  52.074  1.00  0.00     0.241 A 
HETATM    4  N3  UNL     1      25.663   1.450  52.083  1.00  0.00     0.024 N 
HETATM    5  C11 UNL     1      24.685   1.833  51.361  1.00  0.00     0.182 A 
HETATM    6  C12 UNL     1      24.881   2.824  50.423  1.00  0.00     0.120 A 
HETATM    7 CL1  UNL     1      23.219   2.803  49.876  1.00  0.00    -0.077 Cl
HETATM    8  C13 UNL     1      24.188   0.771  52.269  1.00  0.00     0.254 A 
HETATM    9  C17 UNL     1      25.226   0.254  53.248  1.00  0.00     0.077 A 
HETATM   10  C18 UNL     1      26.609   0.795  53.071  1.00  0.00     0.310 A 
ENDROOT
BRANCH   1  11
HETATM   11  O2  UNL     1      25.952   4.238  49.357  1.00  0.00    -0.290 OA
BRANCH  11  12
HETATM   12  C8  UNL     1      26.806   5.231  48.936  1.00  0.00     0.080 A 
HETATM   13  C7  UNL     1      26.281   6.500  48.958  1.00  0.00     0.037 A 
HETATM   14  C6  UNL     1      27.115   7.536  48.536  1.00  0.00     0.005 A 
HETATM   15  C5  UNL     1      28.416   7.233  48.123  1.00  0.00     0.029 A 
HETATM   16  C4  UNL     1      28.881   5.927  48.126  1.00  0.00     0.037 A 
HETATM   17  C19 UNL     1      28.076   4.873  48.540  1.00  0.00     0.066 A 
BRANCH  16  18
HETATM   18  N1  UNL     1      30.207   5.657  47.700  1.00  0.00    -0.324 N 
HETATM   19  C3  UNL     1      31.349   5.476  48.501  1.00  0.00     0.244 C 
HETATM   20  O1  UNL     1      31.463   5.510  49.748  1.00  0.00    -0.268 OA
HETATM   21  H4  UNL     1      30.295   5.594  46.657  1.00  0.00     0.169 HD
BRANCH  19  22
HETATM   22  C2  UNL     1      32.621   5.206  47.859  1.00  0.00     0.064 C 
HETATM   23  C1  UNL     1      32.388   4.744  46.660  1.00  0.00     0.017 C 
ENDBRANCH  19  22
ENDBRANCH  16  18
ENDBRANCH  11  12
ENDBRANCH   1  11
BRANCH   8  24
HETATM   24  C14 UNL     1      23.040   1.379  53.000  1.00  0.00     0.035 C 
HETATM   25  C15 UNL     1      22.032   0.643  53.382  1.00  0.00     0.132 C 
BRANCH  25  26
HETATM   26  O3  UNL     1      21.339  -0.548  53.504  1.00  0.00    -0.368 OA
HETATM   27  C16 UNL     1      21.581  -1.450  54.565  1.00  0.00     0.208 C 
ENDBRANCH  25  26
ENDBRANCH   8  24
TORSDOF 6
ENDMDL
MODEL 5
REMARK VINA RESULT:      -7.8      2.634      7.956
REMARK  6 active torsions:
REMARK  status: ('A' for Active; 'I' for Inactive)
REMARK    1  A    between atoms: C2_2  and  C3_3 
REMARK       I    between atoms: C3_3  and  N1_5 
REMARK    2  A    between atoms: N1_5  and  C4_6 
REMARK    3  A    between atoms: C8_10  and  O2_11 
REMARK    4  A    between atoms: O2_11  and  C9_12 
REMARK    5  A    between atoms: C13_19  and  C14_20 
REMARK    6  A    between atoms: C15_21  and  O3_22 
ROOT
HETATM    1  C9  UNL     1      22.553   2.975  52.154  1.00  0.00     0.195 A 
HETATM    2  N2  UNL     1      21.485   2.161  52.044  1.00  0.00    -0.200 NA
HETATM    3  C10 UNL     1      21.449   0.911  52.523  1.00  0.00     0.241 A 
HETATM    4  N3  UNL     1      22.503   0.542  53.095  1.00  0.00     0.024 N 
HETATM    5  C11 UNL     1      23.581   1.197  53.272  1.00  0.00     0.182 A 
HETATM    6  C12 UNL     1      23.676   2.490  52.801  1.00  0.00     0.120 A 
HETATM    7 CL1  UNL     1      25.313   2.708  53.379  1.00  0.00    -0.077 Cl
HETATM    8  C13 UNL     1      23.763  -0.145  53.875  1.00  0.00     0.254 A 
HETATM    9  C17 UNL     1      22.581  -1.078  53.686  1.00  0.00     0.077 A 
HETATM   10  C18 UNL     1      21.377  -0.472  53.039  1.00  0.00     0.310 A 
ENDROOT
BRANCH   1  11
HETATM   11  O2  UNL     1      23.028   4.214  51.858  1.00  0.00    -0.290 OA
BRANCH  11  12
HETATM   12  C8  UNL     1      23.304   4.727  50.612  1.00  0.00     0.080 A 
HETATM   13  C7  UNL     1      22.260   4.687  49.721  1.00  0.00     0.037 A 
HETATM   14  C6  UNL     1      22.499   5.197  48.444  1.00  0.00     0.005 A 
HETATM   15  C5  UNL     1      23.764   5.711  48.146  1.00  0.00     0.029 A 
HETATM   16  C4  UNL     1      24.774   5.719  49.096  1.00  0.00     0.037 A 
HETATM   17  C19 UNL     1      24.568   5.219  50.376  1.00  0.00     0.066 A 
BRANCH  16  18
HETATM   18  N1  UNL     1      26.046   6.249  48.758  1.00  0.00    -0.324 N 
HETATM   19  C3  UNL     1      27.259   5.552  48.614  1.00  0.00     0.244 C 
HETATM   20  O1  UNL     1      27.497   4.330  48.744  1.00  0.00    -0.268 OA
HETATM   21  H4  UNL     1      26.028   7.288  48.610  1.00  0.00     0.169 HD
BRANCH  19  22
HETATM   22  C2  UNL     1      28.456   6.291  48.261  1.00  0.00     0.064 C 
HETATM   23  C1  UNL     1      29.452   5.451  48.183  1.00  0.00     0.017 C 
ENDBRANCH  19  22
ENDBRANCH  16  18
ENDBRANCH  11  12
ENDBRANCH   1  11
BRANCH   8  24
HETATM   24  C14 UNL     1      24.980  -0.710  53.226  1.00  0.00     0.035 C 
HETATM   25  C15 UNL     1      26.135  -0.673  53.834  1.00  0.00     0.132 C 
BRANCH  25  26
HETATM   26  O3  UNL     1      26.974  -0.361  54.887  1.00  0.00    -0.368 OA
HETATM   27  C16 UNL     1      28.297   0.092  54.682  1.00  0.00     0.208 C 
ENDBRANCH  25  26
ENDBRANCH   8  24
TORSDOF 6
ENDMDL
MODEL 6
REMARK VINA RESULT:      -7.8      2.670      8.085
REMARK  6 active torsions:
REMARK  status: ('A' for Active; 'I' for Inactive)
REMARK    1  A    between atoms: C2_2  and  C3_3 
REMARK       I    between atoms: C3_3  and  N1_5 
REMARK    2  A    between atoms: N1_5  and  C4_6 
REMARK    3  A    between atoms: C8_10  and  O2_11 
REMARK    4  A    between atoms: O2_11  and  C9_12 
REMARK    5  A    between atoms: C13_19  and  C14_20 
REMARK    6  A    between atoms: C15_21  and  O3_22 
ROOT
HETATM    1  C9  UNL     1      25.780   3.127  49.983  1.00  0.00     0.195 A 
HETATM    2  N2  UNL     1      24.460   3.025  49.735  1.00  0.00    -0.200 NA
HETATM    3  C10 UNL     1      23.602   2.367  50.525  1.00  0.00     0.241 A 
HETATM    4  N3  UNL     1      24.126   1.841  51.536  1.00  0.00     0.024 N 
HETATM    5  C11 UNL     1      25.348   1.854  51.896  1.00  0.00     0.182 A 
HETATM    6  C12 UNL     1      26.277   2.517  51.122  1.00  0.00     0.120 A 
HETATM    7 CL1  UNL     1      27.616   2.123  52.176  1.00  0.00    -0.077 Cl
HETATM    8  C13 UNL     1      24.588   1.078  52.906  1.00  0.00     0.254 A 
HETATM    9  C17 UNL     1      23.115   0.911  52.582  1.00  0.00     0.077 A 
HETATM   10  C18 UNL     1      22.630   1.649  51.376  1.00  0.00     0.310 A 
ENDROOT
BRANCH   1  11
HETATM   11  O2  UNL     1      26.951   3.643  49.521  1.00  0.00    -0.290 OA
BRANCH  11  12
HETATM   12  C8  UNL     1      27.150   4.876  48.946  1.00  0.00     0.080 A 
HETATM   13  C7  UNL     1      26.035   5.674  48.876  1.00  0.00     0.037 A 
HETATM   14  C6  UNL     1      26.195   6.934  48.297  1.00  0.00     0.005 A 
HETATM   15  C5  UNL     1      27.458   7.309  47.829  1.00  0.00     0.029 A 
HETATM   16  C4  UNL     1      28.542   6.451  47.932  1.00  0.00     0.037 A 
HETATM   17  C19 UNL     1      28.416   5.190  48.503  1.00  0.00     0.066 A 
BRANCH  16  18
HETATM   18  N1  UNL     1      29.810   6.865  47.447  1.00  0.00    -0.324 N 
HETATM   19  C3  UNL     1      30.760   7.670  48.099  1.00  0.00     0.244 C 
HETATM   20  O1  UNL     1      30.716   8.197  49.234  1.00  0.00    -0.268 OA
HETATM   21  H4  UNL     1      30.015   6.503  46.483  1.00  0.00     0.169 HD
BRANCH  19  22
HETATM   22  C2  UNL     1      32.004   7.977  47.419  1.00  0.00     0.064 C 
HETATM   23  C1  UNL     1      32.985   7.829  48.268  1.00  0.00     0.017 C 
ENDBRANCH  19  22
ENDBRANCH  16  18
ENDBRANCH  11  12
ENDBRANCH   1  11
BRANCH   8  24
HETATM   24  C14 UNL     1      25.260  -0.251  52.973  1.00  0.00     0.035 C 
HETATM   25  C15 UNL     1      26.126  -0.510  53.915  1.00  0.00     0.132 C 
BRANCH  25  26
HETATM   26  O3  UNL     1      26.870  -0.198  55.039  1.00  0.00    -0.368 OA
HETATM   27  C16 UNL     1      28.238   0.146  54.960  1.00  0.00     0.208 C 
ENDBRANCH  25  26
ENDBRANCH   8  24
TORSDOF 6
ENDMDL
MODEL 7
REMARK VINA RESULT:      -7.7      2.123      2.771
REMARK  6 active torsions:
REMARK  status: ('A' for Active; 'I' for Inactive)
REMARK    1  A    between atoms: C2_2  and  C3_3 
REMARK       I    between atoms: C3_3  and  N1_5 
REMARK    2  A    between atoms: N1_5  and  C4_6 
REMARK    3  A    between atoms: C8_10  and  O2_11 
REMARK    4  A    between atoms: O2_11  and  C9_12 
REMARK    5  A    between atoms: C13_19  and  C14_20 
REMARK    6  A    between atoms: C15_21  and  O3_22 
ROOT
HETATM    1  C9  UNL     1      23.208   3.551  50.690  1.00  0.00     0.195 A 
HETATM    2  N2  UNL     1      22.159   4.296  51.093  1.00  0.00    -0.200 NA
HETATM    3  C10 UNL     1      22.100   5.627  50.969  1.00  0.00     0.241 A 
HETATM    4  N3  UNL     1      23.113   6.146  50.440  1.00  0.00     0.024 N 
HETATM    5  C11 UNL     1      24.168   5.572  50.014  1.00  0.00     0.182 A 
HETATM    6  C12 UNL     1      24.285   4.203  50.115  1.00  0.00     0.120 A 
HETATM    7 CL1  UNL     1      25.872   4.162  49.381  1.00  0.00    -0.077 Cl
HETATM    8  C13 UNL     1      24.319   7.029  49.781  1.00  0.00     0.254 A 
HETATM    9  C17 UNL     1      23.164   7.866  50.299  1.00  0.00     0.077 A 
HETATM   10  C18 UNL     1      22.004   7.097  50.848  1.00  0.00     0.310 A 
ENDROOT
BRANCH   1  11
HETATM   11  O2  UNL     1      23.691   2.282  50.608  1.00  0.00    -0.290 OA
BRANCH  11  12
HETATM   12  C8  UNL     1      23.961   1.424  51.649  1.00  0.00     0.080 A 
HETATM   13  C7  UNL     1      22.856   0.897  52.272  1.00  0.00     0.037 A 
HETATM   14  C6  UNL     1      23.088   0.021  53.334  1.00  0.00     0.005 A 
HETATM   15  C5  UNL     1      24.406  -0.267  53.698  1.00  0.00     0.029 A 
HETATM   16  C4  UNL     1      25.475   0.302  53.024  1.00  0.00     0.037 A 
HETATM   17  C19 UNL     1      25.279   1.177  51.963  1.00  0.00     0.066 A 
BRANCH  16  18
HETATM   18  N1  UNL     1      26.801  -0.015  53.421  1.00  0.00    -0.324 N 
HETATM   19  C3  UNL     1      27.756   0.844  53.993  1.00  0.00     0.244 C 
HETATM   20  O1  UNL     1      27.666   2.059  54.282  1.00  0.00    -0.268 OA
HETATM   21  H4  UNL     1      27.050  -1.019  53.246  1.00  0.00     0.169 HD
BRANCH  19  22
HETATM   22  C2  UNL     1      29.064   0.315  54.328  1.00  0.00     0.064 C 
HETATM   23  C1  UNL     1      29.325  -0.679  53.522  1.00  0.00     0.017 C 
ENDBRANCH  19  22
ENDBRANCH  16  18
ENDBRANCH  11  12
ENDBRANCH   1  11
BRANCH   8  24
HETATM   24  C14 UNL     1      25.586   7.412  50.465  1.00  0.00     0.035 C 
HETATM   25  C15 UNL     1      26.244   8.479  50.097  1.00  0.00     0.132 C 
BRANCH  25  26
HETATM   26  O3  UNL     1      26.449   9.605  49.321  1.00  0.00    -0.368 OA
HETATM   27  C16 UNL     1      27.732  10.172  49.150  1.00  0.00     0.208 C 
ENDBRANCH  25  26
ENDBRANCH   8  24
TORSDOF 6
ENDMDL
MODEL 8
REMARK VINA RESULT:      -7.4      2.520      8.044
REMARK  6 active torsions:
REMARK  status: ('A' for Active; 'I' for Inactive)
REMARK    1  A    between atoms: C2_2  and  C3_3 
REMARK       I    between atoms: C3_3  and  N1_5 
REMARK    2  A    between atoms: N1_5  and  C4_6 
REMARK    3  A    between atoms: C8_10  and  O2_11 
REMARK    4  A    between atoms: O2_11  and  C9_12 
REMARK    5  A    between atoms: C13_19  and  C14_20 
REMARK    6  A    between atoms: C15_21  and  O3_22 
ROOT
HETATM    1  C9  UNL     1      25.333   2.557  51.052  1.00  0.00     0.195 A 
HETATM    2  N2  UNL     1      26.601   2.153  51.270  1.00  0.00    -0.200 NA
HETATM    3  C10 UNL     1      26.922   1.035  51.932  1.00  0.00     0.241 A 
HETATM    4  N3  UNL     1      25.938   0.374  52.345  1.00  0.00     0.024 N 
HETATM    5  C11 UNL     1      24.697   0.631  52.214  1.00  0.00     0.182 A 
HETATM    6  C12 UNL     1      24.306   1.769  51.540  1.00  0.00     0.120 A 
HETATM    7 CL1  UNL     1      22.599   1.457  51.757  1.00  0.00    -0.077 Cl
HETATM    8  C13 UNL     1      24.818  -0.638  52.971  1.00  0.00     0.254 A 
HETATM    9  C17 UNL     1      26.248  -1.049  53.271  1.00  0.00     0.077 A 
HETATM   10  C18 UNL     1      27.310  -0.192  52.659  1.00  0.00     0.310 A 
ENDROOT
BRANCH   1  11
HETATM   11  O2  UNL     1      24.570   3.529  50.484  1.00  0.00    -0.290 OA
BRANCH  11  12
HETATM   12  C8  UNL     1      24.891   4.858  50.328  1.00  0.00     0.080 A 
HETATM   13  C7  UNL     1      24.103   5.735  51.033  1.00  0.00     0.037 A 
HETATM   14  C6  UNL     1      24.395   7.093  50.901  1.00  0.00     0.005 A 
HETATM   15  C5  UNL     1      25.454   7.481  50.075  1.00  0.00     0.029 A 
HETATM   16  C4  UNL     1      26.209   6.540  49.392  1.00  0.00     0.037 A 
HETATM   17  C19 UNL     1      25.944   5.180  49.502  1.00  0.00     0.066 A 
BRANCH  16  18
HETATM   18  N1  UNL     1      27.277   6.970  48.562  1.00  0.00    -0.324 N 
HETATM   19  C3  UNL     1      28.446   6.263  48.228  1.00  0.00     0.244 C 
HETATM   20  O1  UNL     1      28.811   5.116  48.572  1.00  0.00    -0.268 OA
HETATM   21  H4  UNL     1      27.132   7.935  48.178  1.00  0.00     0.169 HD
BRANCH  19  22
HETATM   22  C2  UNL     1      29.420   6.890  47.356  1.00  0.00     0.064 C 
HETATM   23  C1  UNL     1      28.797   7.738  46.583  1.00  0.00     0.017 C 
ENDBRANCH  19  22
ENDBRANCH  16  18
ENDBRANCH  11  12
ENDBRANCH   1  11
BRANCH   8  24
HETATM   24  C14 UNL     1      24.064  -0.419  54.238  1.00  0.00     0.035 C 
HETATM   25  C15 UNL     1      22.887  -0.957  54.411  1.00  0.00     0.132 C 
BRANCH  25  26
HETATM   26  O3  UNL     1      21.802  -1.722  54.024  1.00  0.00    -0.368 OA
HETATM   27  C16 UNL     1      20.481  -1.221  54.064  1.00  0.00     0.208 C 
ENDBRANCH  25  26
ENDBRANCH   8  24
TORSDOF 6
ENDMDL
MODEL 9
REMARK VINA RESULT:      -7.4      3.005      6.808
REMARK  6 active torsions:
REMARK  status: ('A' for Active; 'I' for Inactive)
REMARK    1  A    between atoms: C2_2  and  C3_3 
REMARK       I    between atoms: C3_3  and  N1_5 
REMARK    2  A    between atoms: N1_5  and  C4_6 
REMARK    3  A    between atoms: C8_10  and  O2_11 
REMARK    4  A    between atoms: O2_11  and  C9_12 
REMARK    5  A    between atoms: C13_19  and  C14_20 
REMARK    6  A    between atoms: C15_21  and  O3_22 
ROOT
HETATM    1  C9  UNL     1      26.422   3.371  49.976  1.00  0.00     0.195 A 
HETATM    2  N2  UNL     1      26.985   2.903  51.108  1.00  0.00    -0.200 NA
HETATM    3  C10 UNL     1      26.305   2.270  52.072  1.00  0.00     0.241 A 
HETATM    4  N3  UNL     1      25.078   2.141  51.843  1.00  0.00     0.024 N 
HETATM    5  C11 UNL     1      24.414   2.529  50.827  1.00  0.00     0.182 A 
HETATM    6  C12 UNL     1      25.061   3.186  49.803  1.00  0.00     0.120 A 
HETATM    7 CL1  UNL     1      23.608   3.383  48.849  1.00  0.00    -0.077 Cl
HETATM    8  C13 UNL     1      23.470   1.863  51.757  1.00  0.00     0.254 A 
HETATM    9  C17 UNL     1      24.100   1.400  53.058  1.00  0.00     0.077 A 
HETATM   10  C18 UNL     1      25.583   1.569  53.154  1.00  0.00     0.310 A 
ENDROOT
BRANCH   1  11
HETATM   11  O2  UNL     1      26.673   4.021  48.809  1.00  0.00    -0.290 OA
BRANCH  11  12
HETATM   12  C8  UNL     1      27.349   5.208  48.642  1.00  0.00     0.080 A 
HETATM   13  C7  UNL     1      26.570   6.337  48.704  1.00  0.00     0.037 A 
HETATM   14  C6  UNL     1      27.218   7.562  48.540  1.00  0.00     0.005 A 
HETATM   15  C5  UNL     1      28.599   7.573  48.325  1.00  0.00     0.029 A 
HETATM   16  C4  UNL     1      29.325   6.393  48.274  1.00  0.00     0.037 A 
HETATM   17  C19 UNL     1      28.709   5.157  48.434  1.00  0.00     0.066 A 
BRANCH  16  18
HETATM   18  N1  UNL     1      30.726   6.443  48.055  1.00  0.00    -0.324 N 
HETATM   19  C3  UNL     1      31.750   6.066  48.941  1.00  0.00     0.244 C 
HETATM   20  O1  UNL     1      31.671   5.608  50.104  1.00  0.00    -0.268 OA
HETATM   21  H4  UNL     1      30.977   6.812  47.105  1.00  0.00     0.169 HD
BRANCH  19  22
HETATM   22  C2  UNL     1      33.130   6.198  48.516  1.00  0.00     0.064 C 
HETATM   23  C1  UNL     1      33.190   7.115  47.588  1.00  0.00     0.017 C 
ENDBRANCH  19  22
ENDBRANCH  16  18
ENDBRANCH  11  12
ENDBRANCH   1  11
BRANCH   8  24
HETATM   24  C14 UNL     1      22.401   2.867  52.026  1.00  0.00     0.035 C 
HETATM   25  C15 UNL     1      22.709   4.105  52.302  1.00  0.00     0.132 C 
BRANCH  25  26
HETATM   26  O3  UNL     1      23.591   5.149  52.513  1.00  0.00    -0.368 OA
HETATM   27  C16 UNL     1      23.831   6.137  51.532  1.00  0.00     0.208 C 
ENDBRANCH  25  26
ENDBRANCH   8  24
TORSDOF 6
ENDMDL
