MODEL 1
REMARK VINA RESULT:      -8.6      0.000      0.000
REMARK  5 active torsions:
REMARK  status: ('A' for Active; 'I' for Inactive)
REMARK    1  A    between atoms: C2_2  and  C3_3 
REMARK    2  A    between atoms: C3_3  and  C4_5 
REMARK    3  A    between atoms: C6_7  and  C7_8 
REMARK    4  A    between atoms: N5_21  and  O2_22 
REMARK    5  A    between atoms: C17_24  and  O3_25 
ROOT
HETATM    1  C7  UNL     1      23.912   0.780  53.139  1.00  0.00     0.045 C 
HETATM    2  N1  UNL     1      24.441   1.909  52.742  1.00  0.00    -0.287 NA
HETATM    3  C8  UNL     1      24.144   3.272  52.467  1.00  0.00     0.212 C 
HETATM    4  C9  UNL     1      22.939   3.508  51.640  1.00  0.00     0.096 A 
HETATM    5  N2  UNL     1      23.015   4.491  50.810  1.00  0.00    -0.269 NA
HETATM    6  C10 UNL     1      21.801   4.635  50.060  1.00  0.00     0.272 A 
HETATM    7  N3  UNL     1      20.934   3.588  50.555  1.00  0.00    -0.355 N 
HETATM    8  C11 UNL     1      21.631   2.860  51.550  1.00  0.00     0.153 A 
HETATM    9  N4  UNL     1      20.968   1.872  52.085  1.00  0.00    -0.209 NA
HETATM   10  C12 UNL     1      21.321   0.909  53.107  1.00  0.00     0.162 A 
HETATM   11  C13 UNL     1      22.534   0.488  53.511  1.00  0.00     0.039 A 
HETATM   12  C14 UNL     1      21.910  -0.403  54.500  1.00  0.00     0.151 A 
HETATM   13  C15 UNL     1      22.007  -1.873  54.296  1.00  0.00     0.040 C 
HETATM   14  N5  UNL     1      20.625   0.080  54.033  1.00  0.00    -0.233 N 
HETATM   15  H12 UNL     1      19.957   3.407  50.224  1.00  0.00     0.163 HD
ENDROOT
BRANCH   1  16
HETATM   16  C6  UNL     1      24.845  -0.396  53.228  1.00  0.00     0.041 C 
HETATM   17  C5  UNL     1      25.929  -0.364  52.194  1.00  0.00     0.026 C 
HETATM   18  C4  UNL     1      27.250  -0.149  52.909  1.00  0.00     0.089 C 
HETATM   19  C17 UNL     1      26.877   0.332  54.302  1.00  0.00     0.133 C 
HETATM   20  C16 UNL     1      25.555  -0.392  54.573  1.00  0.00     0.043 C 
BRANCH  18  21
HETATM   21  C3  UNL     1      27.984  -1.432  53.075  1.00  0.00     0.155 C 
HETATM   22  O1  UNL     1      27.197  -2.407  52.812  1.00  0.00    -0.293 OA
BRANCH  21  23
HETATM   23  C2  UNL     1      29.370  -1.607  53.468  1.00  0.00     0.040 C 
HETATM   24  C1  UNL     1      30.246  -0.651  53.715  1.00  0.00     0.015 C 
ENDBRANCH  21  23
ENDBRANCH  18  21
BRANCH  19  25
HETATM   25  O3  UNL     1      26.723   1.694  54.357  1.00  0.00    -0.390 OA
HETATM   26  C18 UNL     1      27.732   2.409  53.768  1.00  0.00     0.202 C 
ENDBRANCH  19  25
ENDBRANCH   1  16
BRANCH  14  27
HETATM   27  O2  UNL     1      19.324  -0.136  54.322  1.00  0.00    -0.285 OA
HETATM   28  H17 UNL     1      19.297  -0.818  55.039  1.00  0.00     0.245 HD
ENDBRANCH  14  27
TORSDOF 5
ENDMDL
MODEL 2
REMARK VINA RESULT:      -8.5      1.675      1.948
REMARK  5 active torsions:
REMARK  status: ('A' for Active; 'I' for Inactive)
REMARK    1  A    between atoms: C2_2  and  C3_3 
REMARK    2  A    between atoms: C3_3  and  C4_5 
REMARK    3  A    between atoms: C6_7  and  C7_8 
REMARK    4  A    between atoms: N5_21  and  O2_22 
REMARK    5  A    between atoms: C17_24  and  O3_25 
ROOT
HETATM    1  C7  UNL     1      23.210   1.424  52.874  1.00  0.00     0.045 C 
HETATM    2  N1  UNL     1      23.323   2.464  52.089  1.00  0.00    -0.287 NA
HETATM    3  C8  UNL     1      22.592   3.323  51.223  1.00  0.00     0.212 C 
HETATM    4  C9  UNL     1      21.707   2.644  50.249  1.00  0.00     0.096 A 
HETATM    5  N2  UNL     1      21.621   3.200  49.090  1.00  0.00    -0.269 NA
HETATM    6  C10 UNL     1      20.742   2.468  48.225  1.00  0.00     0.272 A 
HETATM    7  N3  UNL     1      20.275   1.358  49.026  1.00  0.00    -0.355 N 
HETATM    8  C11 UNL     1      20.873   1.444  50.307  1.00  0.00     0.153 A 
HETATM    9  N4  UNL     1      20.545   0.495  51.140  1.00  0.00    -0.209 NA
HETATM   10  C12 UNL     1      20.935   0.231  52.509  1.00  0.00     0.162 A 
HETATM   11  C13 UNL     1      22.031   0.626  53.184  1.00  0.00     0.039 A 
HETATM   12  C14 UNL     1      21.560  -0.075  54.387  1.00  0.00     0.151 A 
HETATM   13  C15 UNL     1      22.306  -1.276  54.849  1.00  0.00     0.040 C 
HETATM   14  N5  UNL     1      20.396  -0.478  53.622  1.00  0.00    -0.233 N 
HETATM   15  H12 UNL     1      19.607   0.619  48.702  1.00  0.00     0.163 HD
ENDROOT
BRANCH   1  16
HETATM   16  C6  UNL     1      24.468   0.971  53.562  1.00  0.00     0.041 C 
HETATM   17  C5  UNL     1      25.069  -0.252  52.940  1.00  0.00     0.026 C 
HETATM   18  C4  UNL     1      26.389   0.146  52.307  1.00  0.00     0.089 C 
HETATM   19  C17 UNL     1      26.351   1.663  52.225  1.00  0.00     0.133 C 
HETATM   20  C16 UNL     1      25.532   2.053  53.460  1.00  0.00     0.043 C 
BRANCH  18  21
HETATM   21  C3  UNL     1      27.534  -0.214  53.184  1.00  0.00     0.155 C 
HETATM   22  O1  UNL     1      27.251  -1.281  53.832  1.00  0.00    -0.293 OA
BRANCH  21  23
HETATM   23  C2  UNL     1      28.793   0.494  53.319  1.00  0.00     0.040 C 
HETATM   24  C1  UNL     1      29.990  -0.045  53.458  1.00  0.00     0.015 C 
ENDBRANCH  21  23
ENDBRANCH  18  21
BRANCH  19  25
HETATM   25  O3  UNL     1      25.760   2.107  51.070  1.00  0.00    -0.390 OA
HETATM   26  C18 UNL     1      26.417   3.135  50.448  1.00  0.00     0.202 C 
ENDBRANCH  19  25
ENDBRANCH   1  16
BRANCH  14  27
HETATM   27  O2  UNL     1      19.277  -1.202  53.832  1.00  0.00    -0.285 OA
HETATM   28  H17 UNL     1      19.493  -1.870  54.532  1.00  0.00     0.245 HD
ENDBRANCH  14  27
TORSDOF 5
ENDMDL
MODEL 3
REMARK VINA RESULT:      -8.5      2.710      6.168
REMARK  5 active torsions:
REMARK  status: ('A' for Active; 'I' for Inactive)
REMARK    1  A    between atoms: C2_2  and  C3_3 
REMARK    2  A    between atoms: C3_3  and  C4_5 
REMARK    3  A    between atoms: C6_7  and  C7_8 
REMARK    4  A    between atoms: N5_21  and  O2_22 
REMARK    5  A    between atoms: C17_24  and  O3_25 
ROOT
HETATM    1  C7  UNL     1      24.305   0.830  52.335  1.00  0.00     0.045 C 
HETATM    2  N1  UNL     1      25.469   0.890  51.743  1.00  0.00    -0.287 NA
HETATM    3  C8  UNL     1      26.772   0.322  51.731  1.00  0.00     0.212 C 
HETATM    4  C9  UNL     1      27.418   0.178  53.055  1.00  0.00     0.096 A 
HETATM    5  N2  UNL     1      28.691   0.377  53.081  1.00  0.00    -0.269 NA
HETATM    6  C10 UNL     1      29.217   0.214  54.405  1.00  0.00     0.272 A 
HETATM    7  N3  UNL     1      28.072  -0.131  55.218  1.00  0.00    -0.355 N 
HETATM    8  C11 UNL     1      26.922  -0.157  54.390  1.00  0.00     0.153 A 
HETATM    9  N4  UNL     1      25.805  -0.450  54.996  1.00  0.00    -0.209 NA
HETATM   10  C12 UNL     1      24.445  -0.571  54.514  1.00  0.00     0.162 A 
HETATM   11  C13 UNL     1      23.867  -0.034  53.424  1.00  0.00     0.039 A 
HETATM   12  C14 UNL     1      22.591  -0.679  53.766  1.00  0.00     0.151 A 
HETATM   13  C15 UNL     1      21.452   0.178  54.191  1.00  0.00     0.040 C 
HETATM   14  N5  UNL     1      23.255  -1.236  54.929  1.00  0.00    -0.233 N 
HETATM   15  H12 UNL     1      28.099  -0.327  56.247  1.00  0.00     0.163 HD
ENDROOT
BRANCH   1  16
HETATM   16  C6  UNL     1      23.255   1.785  51.836  1.00  0.00     0.041 C 
HETATM   17  C5  UNL     1      23.137   3.019  52.677  1.00  0.00     0.026 C 
HETATM   18  C4  UNL     1      23.609   4.198  51.847  1.00  0.00     0.089 C 
HETATM   19  C17 UNL     1      24.362   3.586  50.677  1.00  0.00     0.133 C 
HETATM   20  C16 UNL     1      23.617   2.268  50.440  1.00  0.00     0.043 C 
BRANCH  18  21
HETATM   21  C3  UNL     1      22.457   4.948  51.278  1.00  0.00     0.155 C 
HETATM   22  O1  UNL     1      22.894   5.876  50.513  1.00  0.00    -0.293 OA
BRANCH  21  23
HETATM   23  C2  UNL     1      21.047   4.705  51.518  1.00  0.00     0.040 C 
HETATM   24  C1  UNL     1      20.149   4.325  50.628  1.00  0.00     0.015 C 
ENDBRANCH  21  23
ENDBRANCH  18  21
BRANCH  19  25
HETATM   25  O3  UNL     1      25.685   3.369  50.967  1.00  0.00    -0.390 OA
HETATM   26  C18 UNL     1      26.553   3.689  49.957  1.00  0.00     0.202 C 
ENDBRANCH  19  25
ENDBRANCH   1  16
BRANCH  14  27
HETATM   27  O2  UNL     1      22.926  -2.033  55.967  1.00  0.00    -0.285 OA
HETATM   28  H17 UNL     1      23.645  -2.709  56.049  1.00  0.00     0.245 HD
ENDBRANCH  14  27
TORSDOF 5
ENDMDL
MODEL 4
REMARK VINA RESULT:      -7.9      2.716      6.569
REMARK  5 active torsions:
REMARK  status: ('A' for Active; 'I' for Inactive)
REMARK    1  A    between atoms: C2_2  and  C3_3 
REMARK    2  A    between atoms: C3_3  and  C4_5 
REMARK    3  A    between atoms: C6_7  and  C7_8 
REMARK    4  A    between atoms: N5_21  and  O2_22 
REMARK    5  A    between atoms: C17_24  and  O3_25 
ROOT
HETATM    1  C7  UNL     1      23.465   1.536  52.576  1.00  0.00     0.045 C 
HETATM    2  N1  UNL     1      24.604   1.740  51.966  1.00  0.00    -0.287 NA
HETATM    3  C8  UNL     1      25.871   1.155  51.696  1.00  0.00     0.212 C 
HETATM    4  C9  UNL     1      26.565   0.564  52.863  1.00  0.00     0.096 A 
HETATM    5  N2  UNL     1      27.847   0.696  52.877  1.00  0.00    -0.269 NA
HETATM    6  C10 UNL     1      28.419   0.092  54.045  1.00  0.00     0.272 A 
HETATM    7  N3  UNL     1      27.293  -0.454  54.770  1.00  0.00    -0.355 N 
HETATM    8  C11 UNL     1      26.109  -0.165  54.046  1.00  0.00     0.153 A 
HETATM    9  N4  UNL     1      25.004  -0.594  54.590  1.00  0.00    -0.209 NA
HETATM   10  C12 UNL     1      23.620  -0.500  54.176  1.00  0.00     0.162 A 
HETATM   11  C13 UNL     1      23.027   0.384  53.352  1.00  0.00     0.039 A 
HETATM   12  C14 UNL     1      21.733  -0.287  53.543  1.00  0.00     0.151 A 
HETATM   13  C15 UNL     1      20.662   0.430  54.288  1.00  0.00     0.040 C 
HETATM   14  N5  UNL     1      22.414  -1.216  54.424  1.00  0.00    -0.233 N 
HETATM   15  H12 UNL     1      27.353  -0.973  55.677  1.00  0.00     0.163 HD
ENDROOT
BRANCH   1  16
HETATM   16  C6  UNL     1      22.450   2.641  52.472  1.00  0.00     0.041 C 
HETATM   17  C5  UNL     1      23.024   3.917  51.938  1.00  0.00     0.026 C 
HETATM   18  C4  UNL     1      22.410   4.171  50.574  1.00  0.00     0.089 C 
HETATM   19  C17 UNL     1      21.788   2.846  50.163  1.00  0.00     0.133 C 
HETATM   20  C16 UNL     1      21.349   2.243  51.501  1.00  0.00     0.043 C 
BRANCH  18  21
HETATM   21  C3  UNL     1      21.304   5.162  50.660  1.00  0.00     0.155 C 
HETATM   22  O1  UNL     1      21.626   6.083  51.488  1.00  0.00    -0.293 OA
BRANCH  21  23
HETATM   23  C2  UNL     1      20.044   5.136  49.942  1.00  0.00     0.040 C 
HETATM   24  C1  UNL     1      19.619   6.023  49.062  1.00  0.00     0.015 C 
ENDBRANCH  21  23
ENDBRANCH  18  21
BRANCH  19  25
HETATM   25  O3  UNL     1      22.682   2.031  49.515  1.00  0.00    -0.390 OA
HETATM   26  C18 UNL     1      22.674   2.142  48.150  1.00  0.00     0.202 C 
ENDBRANCH  19  25
ENDBRANCH   1  16
BRANCH  14  27
HETATM   27  O2  UNL     1      22.086  -2.294  55.168  1.00  0.00    -0.285 OA
HETATM   28  H17 UNL     1      22.859  -2.482  55.758  1.00  0.00     0.245 HD
ENDBRANCH  14  27
TORSDOF 5
ENDMDL
MODEL 5
REMARK VINA RESULT:      -7.7      2.643      6.004
REMARK  5 active torsions:
REMARK  status: ('A' for Active; 'I' for Inactive)
REMARK    1  A    between atoms: C2_2  and  C3_3 
REMARK    2  A    between atoms: C3_3  and  C4_5 
REMARK    3  A    between atoms: C6_7  and  C7_8 
REMARK    4  A    between atoms: N5_21  and  O2_22 
REMARK    5  A    between atoms: C17_24  and  O3_25 
ROOT
HETATM    1  C7  UNL     1      22.661   1.607  51.372  1.00  0.00     0.045 C 
HETATM    2  N1  UNL     1      22.099   2.303  50.418  1.00  0.00    -0.287 NA
HETATM    3  C8  UNL     1      22.233   3.485  49.640  1.00  0.00     0.212 C 
HETATM    4  C9  UNL     1      22.542   4.718  50.400  1.00  0.00     0.096 A 
HETATM    5  N2  UNL     1      21.992   5.798  49.962  1.00  0.00    -0.269 NA
HETATM    6  C10 UNL     1      22.355   6.930  50.764  1.00  0.00     0.272 A 
HETATM    7  N3  UNL     1      23.233   6.396  51.782  1.00  0.00    -0.355 N 
HETATM    8  C11 UNL     1      23.365   5.000  51.576  1.00  0.00     0.153 A 
HETATM    9  N4  UNL     1      24.129   4.380  52.432  1.00  0.00    -0.209 NA
HETATM   10  C12 UNL     1      24.507   2.989  52.563  1.00  0.00     0.162 A 
HETATM   11  C13 UNL     1      23.883   1.882  52.118  1.00  0.00     0.039 A 
HETATM   12  C14 UNL     1      24.942   1.038  52.689  1.00  0.00     0.151 A 
HETATM   13  C15 UNL     1      24.612   0.167  53.848  1.00  0.00     0.040 C 
HETATM   14  N5  UNL     1      25.580   2.257  53.150  1.00  0.00    -0.233 N 
HETATM   15  H12 UNL     1      23.690   6.956  52.539  1.00  0.00     0.163 HD
ENDROOT
BRANCH   1  16
HETATM   16  C6  UNL     1      21.959   0.339  51.772  1.00  0.00     0.041 C 
HETATM   17  C5  UNL     1      21.711   0.245  53.247  1.00  0.00     0.026 C 
HETATM   18  C4  UNL     1      20.213   0.324  53.476  1.00  0.00     0.089 C 
HETATM   19  C17 UNL     1      19.638   0.856  52.174  1.00  0.00     0.133 C 
HETATM   20  C16 UNL     1      20.587   0.279  51.118  1.00  0.00     0.043 C 
BRANCH  18  21
HETATM   21  C3  UNL     1      19.632  -1.028  53.688  1.00  0.00     0.155 C 
HETATM   22  O1  UNL     1      20.523  -1.797  54.191  1.00  0.00    -0.293 OA
BRANCH  21  23
HETATM   23  C2  UNL     1      18.279  -1.458  53.392  1.00  0.00     0.040 C 
HETATM   24  C1  UNL     1      17.765  -2.654  53.612  1.00  0.00     0.015 C 
ENDBRANCH  21  23
ENDBRANCH  18  21
BRANCH  19  25
HETATM   25  O3  UNL     1      19.619   2.227  52.135  1.00  0.00    -0.390 OA
HETATM   26  C18 UNL     1      18.595   2.765  51.401  1.00  0.00     0.202 C 
ENDBRANCH  19  25
ENDBRANCH   1  16
BRANCH  14  27
HETATM   27  O2  UNL     1      26.694   2.592  53.833  1.00  0.00    -0.285 OA
HETATM   28  H17 UNL     1      26.448   2.611  54.793  1.00  0.00     0.245 HD
ENDBRANCH  14  27
TORSDOF 5
ENDMDL
MODEL 6
REMARK VINA RESULT:      -7.6      3.236      5.081
REMARK  5 active torsions:
REMARK  status: ('A' for Active; 'I' for Inactive)
REMARK    1  A    between atoms: C2_2  and  C3_3 
REMARK    2  A    between atoms: C3_3  and  C4_5 
REMARK    3  A    between atoms: C6_7  and  C7_8 
REMARK    4  A    between atoms: N5_21  and  O2_22 
REMARK    5  A    between atoms: C17_24  and  O3_25 
ROOT
HETATM    1  C7  UNL     1      21.460   1.957  51.820  1.00  0.00     0.045 C 
HETATM    2  N1  UNL     1      20.562   2.725  51.258  1.00  0.00    -0.287 NA
HETATM    3  C8  UNL     1      19.164   2.965  51.168  1.00  0.00     0.212 C 
HETATM    4  C9  UNL     1      18.323   1.766  50.948  1.00  0.00     0.096 A 
HETATM    5  N2  UNL     1      17.297   1.936  50.187  1.00  0.00    -0.269 NA
HETATM    6  C10 UNL     1      16.552   0.719  50.040  1.00  0.00     0.272 A 
HETATM    7  N3  UNL     1      17.267  -0.252  50.838  1.00  0.00    -0.355 N 
HETATM    8  C11 UNL     1      18.392   0.383  51.419  1.00  0.00     0.153 A 
HETATM    9  N4  UNL     1      19.140  -0.381  52.166  1.00  0.00    -0.209 NA
HETATM   10  C12 UNL     1      20.351  -0.117  52.915  1.00  0.00     0.162 A 
HETATM   11  C13 UNL     1      21.275   0.846  52.745  1.00  0.00     0.039 A 
HETATM   12  C14 UNL     1      22.042   0.331  53.887  1.00  0.00     0.151 A 
HETATM   13  C15 UNL     1      23.364  -0.303  53.630  1.00  0.00     0.040 C 
HETATM   14  N5  UNL     1      21.023  -0.690  54.033  1.00  0.00    -0.233 N 
HETATM   15  H12 UNL     1      16.991  -1.255  50.958  1.00  0.00     0.163 HD
ENDROOT
BRANCH   1  16
HETATM   16  C6  UNL     1      22.894   2.247  51.472  1.00  0.00     0.041 C 
HETATM   17  C5  UNL     1      23.054   2.881  50.124  1.00  0.00     0.026 C 
HETATM   18  C4  UNL     1      23.545   4.301  50.330  1.00  0.00     0.089 C 
HETATM   19  C17 UNL     1      23.290   4.603  51.798  1.00  0.00     0.133 C 
HETATM   20  C16 UNL     1      23.478   3.238  52.467  1.00  0.00     0.043 C 
BRANCH  18  21
HETATM   21  C3  UNL     1      25.014   4.396  50.116  1.00  0.00     0.155 C 
HETATM   22  O1  UNL     1      25.386   5.611  50.268  1.00  0.00    -0.293 OA
BRANCH  21  23
HETATM   23  C2  UNL     1      25.925   3.316  49.788  1.00  0.00     0.040 C 
HETATM   24  C1  UNL     1      26.621   2.585  50.638  1.00  0.00     0.015 C 
ENDBRANCH  21  23
ENDBRANCH  18  21
BRANCH  19  25
HETATM   25  O3  UNL     1      22.029   5.097  52.015  1.00  0.00    -0.390 OA
HETATM   26  C18 UNL     1      21.670   6.133  51.193  1.00  0.00     0.202 C 
ENDBRANCH  19  25
ENDBRANCH   1  16
BRANCH  14  27
HETATM   27  O2  UNL     1      20.781  -1.737  54.851  1.00  0.00    -0.285 OA
HETATM   28  H17 UNL     1      19.880  -1.597  55.238  1.00  0.00     0.245 HD
ENDBRANCH  14  27
TORSDOF 5
ENDMDL
MODEL 7
REMARK VINA RESULT:      -7.6      3.534      7.617
REMARK  5 active torsions:
REMARK  status: ('A' for Active; 'I' for Inactive)
REMARK    1  A    between atoms: C2_2  and  C3_3 
REMARK    2  A    between atoms: C3_3  and  C4_5 
REMARK    3  A    between atoms: C6_7  and  C7_8 
REMARK    4  A    between atoms: N5_21  and  O2_22 
REMARK    5  A    between atoms: C17_24  and  O3_25 
ROOT
HETATM    1  C7  UNL     1      23.456   2.805  50.024  1.00  0.00     0.045 C 
HETATM    2  N1  UNL     1      22.285   2.475  50.503  1.00  0.00    -0.287 NA
HETATM    3  C8  UNL     1      21.621   2.014  51.672  1.00  0.00     0.212 C 
HETATM    4  C9  UNL     1      22.260   0.870  52.361  1.00  0.00     0.096 A 
HETATM    5  N2  UNL     1      21.454   0.013  52.886  1.00  0.00    -0.269 NA
HETATM    6  C10 UNL     1      22.171  -1.052  53.526  1.00  0.00     0.272 A 
HETATM    7  N3  UNL     1      23.567  -0.728  53.331  1.00  0.00    -0.355 N 
HETATM    8  C11 UNL     1      23.650   0.479  52.594  1.00  0.00     0.153 A 
HETATM    9  N4  UNL     1      24.860   0.892  52.335  1.00  0.00    -0.209 NA
HETATM   10  C12 UNL     1      25.356   2.050  51.622  1.00  0.00     0.162 A 
HETATM   11  C13 UNL     1      24.756   2.806  50.684  1.00  0.00     0.039 A 
HETATM   12  C14 UNL     1      25.950   3.658  50.586  1.00  0.00     0.151 A 
HETATM   13  C15 UNL     1      26.755   3.614  49.336  1.00  0.00     0.040 C 
HETATM   14  N5  UNL     1      26.558   2.816  51.598  1.00  0.00    -0.233 N 
HETATM   15  H12 UNL     1      24.373  -1.298  53.679  1.00  0.00     0.163 HD
ENDROOT
BRANCH   1  16
HETATM   16  C6  UNL     1      23.486   3.247  48.587  1.00  0.00     0.041 C 
HETATM   17  C5  UNL     1      22.305   2.767  47.801  1.00  0.00     0.026 C 
HETATM   18  C4  UNL     1      21.468   3.976  47.429  1.00  0.00     0.089 C 
HETATM   19  C17 UNL     1      21.957   5.095  48.333  1.00  0.00     0.133 C 
HETATM   20  C16 UNL     1      23.443   4.766  48.512  1.00  0.00     0.043 C 
BRANCH  18  21
HETATM   21  C3  UNL     1      21.733   4.401  46.028  1.00  0.00     0.155 C 
HETATM   22  O1  UNL     1      22.137   3.394  45.350  1.00  0.00    -0.293 OA
BRANCH  21  23
HETATM   23  C2  UNL     1      21.574   5.730  45.469  1.00  0.00     0.040 C 
HETATM   24  C1  UNL     1      22.500   6.446  44.861  1.00  0.00     0.015 C 
ENDBRANCH  21  23
ENDBRANCH  18  21
BRANCH  19  25
HETATM   25  O3  UNL     1      21.301   5.116  49.537  1.00  0.00    -0.390 OA
HETATM   26  C18 UNL     1      21.690   6.119  50.385  1.00  0.00     0.202 C 
ENDBRANCH  19  25
ENDBRANCH   1  16
BRANCH  14  27
HETATM   27  O2  UNL     1      27.736   2.752  52.253  1.00  0.00    -0.285 OA
HETATM   28  H17 UNL     1      28.448   2.728  51.565  1.00  0.00     0.245 HD
ENDBRANCH  14  27
TORSDOF 5
ENDMDL
MODEL 8
REMARK VINA RESULT:      -7.5      2.365      4.387
REMARK  5 active torsions:
REMARK  status: ('A' for Active; 'I' for Inactive)
REMARK    1  A    between atoms: C2_2  and  C3_3 
REMARK    2  A    between atoms: C3_3  and  C4_5 
REMARK    3  A    between atoms: C6_7  and  C7_8 
REMARK    4  A    between atoms: N5_21  and  O2_22 
REMARK    5  A    between atoms: C17_24  and  O3_25 
ROOT
HETATM    1  C7  UNL     1      24.967   2.000  51.317  1.00  0.00     0.045 C 
HETATM    2  N1  UNL     1      24.078   1.168  51.796  1.00  0.00    -0.287 NA
HETATM    3  C8  UNL     1      22.698   0.830  51.757  1.00  0.00     0.212 C 
HETATM    4  C9  UNL     1      21.758   1.966  51.899  1.00  0.00     0.096 A 
HETATM    5  N2  UNL     1      20.681   1.721  52.563  1.00  0.00    -0.269 NA
HETATM    6  C10 UNL     1      19.842   2.882  52.642  1.00  0.00     0.272 A 
HETATM    7  N3  UNL     1      20.557   3.905  51.912  1.00  0.00    -0.355 N 
HETATM    8  C11 UNL     1      21.772   3.354  51.436  1.00  0.00     0.153 A 
HETATM    9  N4  UNL     1      22.530   4.173  50.761  1.00  0.00    -0.209 NA
HETATM   10  C12 UNL     1      23.820   3.999  50.126  1.00  0.00     0.162 A 
HETATM   11  C13 UNL     1      24.790   3.101  50.380  1.00  0.00     0.039 A 
HETATM   12  C14 UNL     1      25.620   3.676  49.312  1.00  0.00     0.151 A 
HETATM   13  C15 UNL     1      26.865   4.398  49.688  1.00  0.00     0.040 C 
HETATM   14  N5  UNL     1      24.549   4.624  49.074  1.00  0.00    -0.233 N 
HETATM   15  H12 UNL     1      20.224   4.887  51.766  1.00  0.00     0.163 HD
ENDROOT
BRANCH   1  16
HETATM   16  C6  UNL     1      26.380   1.809  51.796  1.00  0.00     0.041 C 
HETATM   17  C5  UNL     1      26.587   2.259  53.210  1.00  0.00     0.026 C 
HETATM   18  C4  UNL     1      26.874   1.032  54.054  1.00  0.00     0.089 C 
HETATM   19  C17 UNL     1      26.444  -0.150  53.200  1.00  0.00     0.133 C 
HETATM   20  C16 UNL     1      26.738   0.331  51.775  1.00  0.00     0.043 C 
BRANCH  18  21
HETATM   21  C3  UNL     1      28.333   0.881  54.301  1.00  0.00     0.155 C 
HETATM   22  O1  UNL     1      28.866   2.040  54.408  1.00  0.00    -0.293 OA
BRANCH  21  23
HETATM   23  C2  UNL     1      29.081  -0.357  54.413  1.00  0.00     0.040 C 
HETATM   24  C1  UNL     1      30.005  -0.798  53.581  1.00  0.00     0.015 C 
ENDBRANCH  21  23
ENDBRANCH  18  21
BRANCH  19  25
HETATM   25  O3  UNL     1      25.116  -0.453  53.363  1.00  0.00    -0.390 OA
HETATM   26  C18 UNL     1      24.771  -0.855  54.626  1.00  0.00     0.202 C 
ENDBRANCH  19  25
ENDBRANCH   1  16
BRANCH  14  27
HETATM   27  O2  UNL     1      24.310   5.656  48.237  1.00  0.00    -0.285 OA
HETATM   28  H17 UNL     1      24.415   6.486  48.766  1.00  0.00     0.245 HD
ENDBRANCH  14  27
TORSDOF 5
ENDMDL
MODEL 9
REMARK VINA RESULT:      -7.4      2.861      7.000
REMARK  5 active torsions:
REMARK  status: ('A' for Active; 'I' for Inactive)
REMARK    1  A    between atoms: C2_2  and  C3_3 
REMARK    2  A    between atoms: C3_3  and  C4_5 
REMARK    3  A    between atoms: C6_7  and  C7_8 
REMARK    4  A    between atoms: N5_21  and  O2_22 
REMARK    5  A    between atoms: C17_24  and  O3_25 
ROOT
HETATM    1  C7  UNL     1      23.926   2.967  51.883  1.00  0.00     0.045 C 
HETATM    2  N1  UNL     1      24.114   2.626  53.132  1.00  0.00    -0.287 NA
HETATM    3  C8  UNL     1      25.097   2.546  54.156  1.00  0.00     0.212 C 
HETATM    4  C9  UNL     1      26.382   1.924  53.760  1.00  0.00     0.096 A 
HETATM    5  N2  UNL     1      26.955   1.204  54.661  1.00  0.00    -0.269 NA
HETATM    6  C10 UNL     1      28.188   0.650  54.179  1.00  0.00     0.272 A 
HETATM    7  N3  UNL     1      28.310   1.143  52.825  1.00  0.00    -0.355 N 
HETATM    8  C11 UNL     1      27.180   1.947  52.534  1.00  0.00     0.153 A 
HETATM    9  N4  UNL     1      27.152   2.457  51.334  1.00  0.00    -0.209 NA
HETATM   10  C12 UNL     1      26.192   3.309  50.666  1.00  0.00     0.162 A 
HETATM   11  C13 UNL     1      24.882   3.492  50.917  1.00  0.00     0.039 A 
HETATM   12  C14 UNL     1      24.790   4.455  49.811  1.00  0.00     0.151 A 
HETATM   13  C15 UNL     1      24.006   4.081  48.603  1.00  0.00     0.040 C 
HETATM   14  N5  UNL     1      26.203   4.227  49.576  1.00  0.00    -0.233 N 
HETATM   15  H12 UNL     1      29.105   0.934  52.176  1.00  0.00     0.163 HD
ENDROOT
BRANCH   1  16
HETATM   16  C6  UNL     1      22.530   2.796  51.351  1.00  0.00     0.041 C 
HETATM   17  C5  UNL     1      22.402   1.646  50.399  1.00  0.00     0.026 C 
HETATM   18  C4  UNL     1      21.532   0.591  51.055  1.00  0.00     0.089 C 
HETATM   19  C17 UNL     1      21.491   0.966  52.528  1.00  0.00     0.133 C 
HETATM   20  C16 UNL     1      21.573   2.495  52.494  1.00  0.00     0.043 C 
BRANCH  18  21
HETATM   21  C3  UNL     1      20.135   0.657  50.550  1.00  0.00     0.155 C 
HETATM   22  O1  UNL     1      20.133   1.170  49.378  1.00  0.00    -0.293 OA
BRANCH  21  23
HETATM   23  C2  UNL     1      18.932   0.223  51.235  1.00  0.00     0.040 C 
HETATM   24  C1  UNL     1      17.728   0.095  50.710  1.00  0.00     0.015 C 
ENDBRANCH  21  23
ENDBRANCH  18  21
BRANCH  19  25
HETATM   25  O3  UNL     1      22.535   0.423  53.232  1.00  0.00    -0.390 OA
HETATM   26  C18 UNL     1      22.585  -0.946  53.219  1.00  0.00     0.202 C 
ENDBRANCH  19  25
ENDBRANCH   1  16
BRANCH  14  27
HETATM   27  O2  UNL     1      27.146   4.668  48.717  1.00  0.00    -0.285 OA
HETATM   28  H17 UNL     1      27.988   4.202  48.950  1.00  0.00     0.245 HD
ENDBRANCH  14  27
TORSDOF 5
ENDMDL
