MODEL 1
REMARK VINA RESULT:      -7.9      0.000      0.000
REMARK  7 active torsions:
REMARK  status: ('A' for Active; 'I' for Inactive)
REMARK    1  A    between atoms: C4_4  and  N1_5 
REMARK       I    between atoms: N1_5  and  C5_6 
REMARK    2  A    between atoms: C5_6  and  C6_8 
REMARK    3  A    between atoms: C7_9  and  C8_10 
REMARK    4  A    between atoms: C8_10  and  N2_12 
REMARK    5  A    between atoms: N2_12  and  C10_13 
REMARK    6  A    between atoms: N2_12  and  C12_15 
REMARK    7  A    between atoms: N3_20  and  C17_21 
ROOT
HETATM    1  C1  UNL     1      23.225  -0.845  54.263  1.00  0.00     0.038 C 
HETATM    2  C2  UNL     1      24.286  -0.091  53.573  1.00  0.00     0.001 C 
HETATM    3  C3  UNL     1      24.416   0.914  52.745  1.00  0.00     0.061 A 
HETATM    4  C4  UNL     1      23.295   1.669  52.215  1.00  0.00     0.062 A 
HETATM    5  C14 UNL     1      23.405   2.650  51.327  1.00  0.00     0.033 A 
HETATM    6  C15 UNL     1      24.731   3.001  50.848  1.00  0.00     0.020 A 
HETATM    7  C16 UNL     1      25.778   2.340  51.307  1.00  0.00     0.097 A 
HETATM    8  N3  UNL     1      25.696   1.287  52.253  1.00  0.00    -0.320 N 
ENDROOT
BRANCH   4   9
HETATM    9  N1  UNL     1      21.940   1.465  52.588  1.00  0.00    -0.322 N 
HETATM   10  C5  UNL     1      20.965   0.667  51.880  1.00  0.00     0.245 C 
HETATM   11  O1  UNL     1      21.336   0.084  50.832  1.00  0.00    -0.268 OA
HETATM   12  H5  UNL     1      21.680   1.950  53.447  1.00  0.00     0.169 HD
BRANCH  10  13
HETATM   13  C6  UNL     1      19.606   0.539  52.359  1.00  0.00     0.072 C 
HETATM   14  C7  UNL     1      18.712  -0.248  51.792  1.00  0.00     0.013 C 
BRANCH  14  15
HETATM   15  C8  UNL     1      17.316  -0.345  52.328  1.00  0.00     0.242 C 
HETATM   16  C9  UNL     1      17.068  -1.744  52.798  1.00  0.00     0.047 C 
BRANCH  15  17
HETATM   17  N2  UNL     1      16.372   0.140  51.364  1.00  0.00     0.095 N 
BRANCH  17  18
HETATM   18  C10 UNL     1      16.872  -0.077  50.006  1.00  0.00     0.268 C 
HETATM   19  C11 UNL     1      15.874  -0.922  49.232  1.00  0.00     0.037 C 
ENDBRANCH  17  18
BRANCH  17  20
HETATM   20  C12 UNL     1      16.047   1.523  51.491  1.00  0.00     0.268 C 
HETATM   21  C13 UNL     1      14.777   1.631  52.345  1.00  0.00     0.037 C 
ENDBRANCH  17  20
ENDBRANCH  15  17
ENDBRANCH  14  15
ENDBRANCH  10  13
ENDBRANCH   4   9
BRANCH   8  22
HETATM   22  C17 UNL     1      26.903   0.630  52.688  1.00  0.00     0.041 A 
HETATM   23  C18 UNL     1      27.908   1.453  53.208  1.00  0.00     0.033 A 
HETATM   24  C19 UNL     1      29.119   0.953  53.661  1.00  0.00     0.046 A 
HETATM   25  C20 UNL     1      29.324  -0.397  53.592  1.00  0.00     0.138 A 
HETATM   26  F1  UNL     1      30.496  -0.906  54.027  1.00  0.00    -0.204 F 
HETATM   27  C21 UNL     1      28.334  -1.238  53.078  1.00  0.00     0.074 A 
HETATM   28 CL1  UNL     1      28.608  -2.978  52.992  1.00  0.00    -0.081 Cl
HETATM   29  C22 UNL     1      27.120  -0.723  52.625  1.00  0.00     0.057 A 
ENDBRANCH   8  22
TORSDOF 7
ENDMDL
MODEL 2
REMARK VINA RESULT:      -7.8      1.625      2.331
REMARK  7 active torsions:
REMARK  status: ('A' for Active; 'I' for Inactive)
REMARK    1  A    between atoms: C4_4  and  N1_5 
REMARK       I    between atoms: N1_5  and  C5_6 
REMARK    2  A    between atoms: C5_6  and  C6_8 
REMARK    3  A    between atoms: C7_9  and  C8_10 
REMARK    4  A    between atoms: C8_10  and  N2_12 
REMARK    5  A    between atoms: N2_12  and  C10_13 
REMARK    6  A    between atoms: N2_12  and  C12_15 
REMARK    7  A    between atoms: N3_20  and  C17_21 
ROOT
HETATM    1  C1  UNL     1      22.632   0.399  52.852  1.00  0.00     0.038 C 
HETATM    2  C2  UNL     1      23.928   0.939  52.405  1.00  0.00     0.001 C 
HETATM    3  C3  UNL     1      24.403   1.817  51.559  1.00  0.00     0.061 A 
HETATM    4  C4  UNL     1      23.568   2.629  50.690  1.00  0.00     0.062 A 
HETATM    5  C14 UNL     1      24.036   3.479  49.783  1.00  0.00     0.033 A 
HETATM    6  C15 UNL     1      25.475   3.616  49.643  1.00  0.00     0.020 A 
HETATM    7  C16 UNL     1      26.269   2.897  50.416  1.00  0.00     0.097 A 
HETATM    8  N3  UNL     1      25.804   1.980  51.393  1.00  0.00    -0.320 N 
ENDROOT
BRANCH   4   9
HETATM    9  N1  UNL     1      22.148   2.627  50.708  1.00  0.00    -0.322 N 
HETATM   10  C5  UNL     1      21.300   3.424  51.564  1.00  0.00     0.245 C 
HETATM   11  O1  UNL     1      21.855   4.206  52.375  1.00  0.00    -0.268 OA
HETATM   12  H5  UNL     1      21.737   1.983  50.032  1.00  0.00     0.169 HD
BRANCH  10  13
HETATM   13  C6  UNL     1      19.858   3.329  51.493  1.00  0.00     0.072 C 
HETATM   14  C7  UNL     1      19.227   2.290  50.980  1.00  0.00     0.013 C 
BRANCH  14  15
HETATM   15  C8  UNL     1      17.730   2.241  50.931  1.00  0.00     0.242 C 
HETATM   16  C9  UNL     1      17.178   3.457  51.604  1.00  0.00     0.047 C 
BRANCH  15  17
HETATM   17  N2  UNL     1      17.250   0.996  51.453  1.00  0.00     0.095 N 
BRANCH  17  18
HETATM   18  C10 UNL     1      18.303  -0.019  51.407  1.00  0.00     0.268 C 
HETATM   19  C11 UNL     1      18.380  -0.725  52.751  1.00  0.00     0.037 C 
ENDBRANCH  17  18
BRANCH  17  20
HETATM   20  C12 UNL     1      16.109   0.466  50.780  1.00  0.00     0.268 C 
HETATM   21  C13 UNL     1      16.608  -0.346  49.577  1.00  0.00     0.037 C 
ENDBRANCH  17  20
ENDBRANCH  15  17
ENDBRANCH  14  15
ENDBRANCH  10  13
ENDBRANCH   4   9
BRANCH   8  22
HETATM   22  C17 UNL     1      26.758   1.244  52.184  1.00  0.00     0.041 A 
HETATM   23  C18 UNL     1      27.564   1.995  53.045  1.00  0.00     0.033 A 
HETATM   24  C19 UNL     1      28.523   1.416  53.862  1.00  0.00     0.046 A 
HETATM   25  C20 UNL     1      28.674   0.058  53.812  1.00  0.00     0.138 A 
HETATM   26  F1  UNL     1      29.602  -0.528  54.598  1.00  0.00    -0.204 F 
HETATM   27  C21 UNL     1      27.880  -0.713  52.961  1.00  0.00     0.074 A 
HETATM   28 CL1  UNL     1      28.083  -2.464  52.904  1.00  0.00    -0.081 Cl
HETATM   29  C22 UNL     1      26.919  -0.117  52.144  1.00  0.00     0.057 A 
ENDBRANCH   8  22
TORSDOF 7
ENDMDL
MODEL 3
REMARK VINA RESULT:      -7.7      2.534      3.828
REMARK  7 active torsions:
REMARK  status: ('A' for Active; 'I' for Inactive)
REMARK    1  A    between atoms: C4_4  and  N1_5 
REMARK       I    between atoms: N1_5  and  C5_6 
REMARK    2  A    between atoms: C5_6  and  C6_8 
REMARK    3  A    between atoms: C7_9  and  C8_10 
REMARK    4  A    between atoms: C8_10  and  N2_12 
REMARK    5  A    between atoms: N2_12  and  C10_13 
REMARK    6  A    between atoms: N2_12  and  C12_15 
REMARK    7  A    between atoms: N3_20  and  C17_21 
ROOT
HETATM    1  C1  UNL     1      23.063   2.269  50.504  1.00  0.00     0.038 C 
HETATM    2  C2  UNL     1      23.502   1.390  51.602  1.00  0.00     0.001 C 
HETATM    3  C3  UNL     1      22.990   0.652  52.553  1.00  0.00     0.061 A 
HETATM    4  C4  UNL     1      21.562   0.507  52.777  1.00  0.00     0.062 A 
HETATM    5  C14 UNL     1      21.027  -0.187  53.774  1.00  0.00     0.033 A 
HETATM    6  C15 UNL     1      21.919  -0.852  54.709  1.00  0.00     0.020 A 
HETATM    7  C16 UNL     1      23.225  -0.747  54.539  1.00  0.00     0.097 A 
HETATM    8  N3  UNL     1      23.829  -0.014  53.486  1.00  0.00    -0.320 N 
ENDROOT
BRANCH   4   9
HETATM    9  N1  UNL     1      20.557   1.078  51.952  1.00  0.00    -0.322 N 
HETATM   10  C5  UNL     1      19.954   2.381  52.110  1.00  0.00     0.245 C 
HETATM   11  O1  UNL     1      20.349   3.097  53.063  1.00  0.00    -0.268 OA
HETATM   12  H5  UNL     1      20.268   0.467  51.187  1.00  0.00     0.169 HD
BRANCH  10  13
HETATM   13  C6  UNL     1      18.929   2.851  51.203  1.00  0.00     0.072 C 
HETATM   14  C7  UNL     1      17.675   3.037  51.566  1.00  0.00     0.013 C 
BRANCH  14  15
HETATM   15  C8  UNL     1      16.651   3.527  50.587  1.00  0.00     0.242 C 
HETATM   16  C9  UNL     1      17.322   4.398  49.572  1.00  0.00     0.047 C 
BRANCH  15  17
HETATM   17  N2  UNL     1      15.553   4.143  51.273  1.00  0.00     0.095 N 
BRANCH  17  18
HETATM   18  C10 UNL     1      15.265   3.430  52.518  1.00  0.00     0.268 C 
HETATM   19  C11 UNL     1      14.572   4.374  53.488  1.00  0.00     0.037 C 
ENDBRANCH  17  18
BRANCH  17  20
HETATM   20  C12 UNL     1      14.342   4.209  50.522  1.00  0.00     0.268 C 
HETATM   21  C13 UNL     1      14.054   2.807  49.968  1.00  0.00     0.037 C 
ENDBRANCH  17  20
ENDBRANCH  15  17
ENDBRANCH  14  15
ENDBRANCH  10  13
ENDBRANCH   4   9
BRANCH   8  22
HETATM   22  C17 UNL     1      25.266   0.036  53.393  1.00  0.00     0.041 A 
HETATM   23  C18 UNL     1      25.910  -1.154  53.040  1.00  0.00     0.033 A 
HETATM   24  C19 UNL     1      27.287  -1.248  52.915  1.00  0.00     0.046 A 
HETATM   25  C20 UNL     1      28.031  -0.125  53.149  1.00  0.00     0.138 A 
HETATM   26  F1  UNL     1      29.375  -0.192  53.033  1.00  0.00    -0.204 F 
HETATM   27  C21 UNL     1      27.411   1.075  53.502  1.00  0.00     0.074 A 
HETATM   28 CL1  UNL     1      28.380   2.518  53.801  1.00  0.00    -0.081 Cl
HETATM   29  C22 UNL     1      26.024   1.156  53.624  1.00  0.00     0.057 A 
ENDBRANCH   8  22
TORSDOF 7
ENDMDL
MODEL 4
REMARK VINA RESULT:      -7.6      2.605      3.908
REMARK  7 active torsions:
REMARK  status: ('A' for Active; 'I' for Inactive)
REMARK    1  A    between atoms: C4_4  and  N1_5 
REMARK       I    between atoms: N1_5  and  C5_6 
REMARK    2  A    between atoms: C5_6  and  C6_8 
REMARK    3  A    between atoms: C7_9  and  C8_10 
REMARK    4  A    between atoms: C8_10  and  N2_12 
REMARK    5  A    between atoms: N2_12  and  C10_13 
REMARK    6  A    between atoms: N2_12  and  C12_15 
REMARK    7  A    between atoms: N3_20  and  C17_21 
ROOT
HETATM    1  C1  UNL     1      23.935   2.505  51.281  1.00  0.00     0.038 C 
HETATM    2  C2  UNL     1      24.315   1.441  52.226  1.00  0.00     0.001 C 
HETATM    3  C3  UNL     1      23.758   0.624  53.083  1.00  0.00     0.061 A 
HETATM    4  C4  UNL     1      22.329   0.579  53.339  1.00  0.00     0.062 A 
HETATM    5  C14 UNL     1      21.755  -0.199  54.248  1.00  0.00     0.033 A 
HETATM    6  C15 UNL     1      22.602  -1.070  55.045  1.00  0.00     0.020 A 
HETATM    7  C16 UNL     1      23.907  -1.062  54.841  1.00  0.00     0.097 A 
HETATM    8  N3  UNL     1      24.553  -0.243  53.880  1.00  0.00    -0.320 N 
ENDROOT
BRANCH   4   9
HETATM    9  N1  UNL     1      21.363   1.352  52.642  1.00  0.00    -0.322 N 
HETATM   10  C5  UNL     1      20.791   1.049  51.351  1.00  0.00     0.245 C 
HETATM   11  O1  UNL     1      21.167  -0.001  50.775  1.00  0.00    -0.268 OA
HETATM   12  H5  UNL     1      21.080   2.194  53.145  1.00  0.00     0.169 HD
BRANCH  10  13
HETATM   13  C6  UNL     1      19.813   1.922  50.737  1.00  0.00     0.072 C 
HETATM   14  C7  UNL     1      19.645   2.012  49.432  1.00  0.00     0.013 C 
BRANCH  14  15
HETATM   15  C8  UNL     1      18.618   2.932  48.846  1.00  0.00     0.242 C 
HETATM   16  C9  UNL     1      18.997   3.254  47.435  1.00  0.00     0.047 C 
BRANCH  15  17
HETATM   17  N2  UNL     1      18.425   4.074  49.691  1.00  0.00     0.095 N 
BRANCH  17  18
HETATM   18  C10 UNL     1      17.002   4.267  49.970  1.00  0.00     0.268 C 
HETATM   19  C11 UNL     1      16.759   4.127  51.464  1.00  0.00     0.037 C 
ENDBRANCH  17  18
BRANCH  17  20
HETATM   20  C12 UNL     1      18.933   5.299  49.165  1.00  0.00     0.268 C 
HETATM   21  C13 UNL     1      20.157   5.697  50.000  1.00  0.00     0.037 C 
ENDBRANCH  17  20
ENDBRANCH  15  17
ENDBRANCH  14  15
ENDBRANCH  10  13
ENDBRANCH   4   9
BRANCH   8  22
HETATM   22  C17 UNL     1      25.985  -0.312  53.740  1.00  0.00     0.041 A 
HETATM   23  C18 UNL     1      26.490  -1.408  53.033  1.00  0.00     0.033 A 
HETATM   24  C19 UNL     1      27.848  -1.598  52.824  1.00  0.00     0.046 A 
HETATM   25  C20 UNL     1      28.713  -0.670  53.334  1.00  0.00     0.138 A 
HETATM   26  F1  UNL     1      30.039  -0.835  53.144  1.00  0.00    -0.204 F 
HETATM   27  C21 UNL     1      28.232   0.433  54.043  1.00  0.00     0.074 A 
HETATM   28 CL1  UNL     1      29.356   1.624  54.697  1.00  0.00    -0.081 Cl
HETATM   29  C22 UNL     1      26.864   0.613  54.246  1.00  0.00     0.057 A 
ENDBRANCH   8  22
TORSDOF 7
ENDMDL
MODEL 5
REMARK VINA RESULT:      -7.5      4.063      6.932
REMARK  7 active torsions:
REMARK  status: ('A' for Active; 'I' for Inactive)
REMARK    1  A    between atoms: C4_4  and  N1_5 
REMARK       I    between atoms: N1_5  and  C5_6 
REMARK    2  A    between atoms: C5_6  and  C6_8 
REMARK    3  A    between atoms: C7_9  and  C8_10 
REMARK    4  A    between atoms: C8_10  and  N2_12 
REMARK    5  A    between atoms: N2_12  and  C10_13 
REMARK    6  A    between atoms: N2_12  and  C12_15 
REMARK    7  A    between atoms: N3_20  and  C17_21 
ROOT
HETATM    1  C1  UNL     1      26.689   3.549  49.903  1.00  0.00     0.038 C 
HETATM    2  C2  UNL     1      26.370   2.523  50.911  1.00  0.00     0.001 C 
HETATM    3  C3  UNL     1      25.332   2.021  51.529  1.00  0.00     0.061 A 
HETATM    4  C4  UNL     1      23.968   2.467  51.300  1.00  0.00     0.062 A 
HETATM    5  C14 UNL     1      22.911   2.013  51.963  1.00  0.00     0.033 A 
HETATM    6  C15 UNL     1      23.119   1.002  52.985  1.00  0.00     0.020 A 
HETATM    7  C16 UNL     1      24.344   0.568  53.222  1.00  0.00     0.097 A 
HETATM    8  N3  UNL     1      25.494   1.032  52.534  1.00  0.00    -0.320 N 
ENDROOT
BRANCH   4   9
HETATM    9  N1  UNL     1      23.591   3.434  50.332  1.00  0.00    -0.322 N 
HETATM   10  C5  UNL     1      23.445   4.855  50.548  1.00  0.00     0.245 C 
HETATM   11  O1  UNL     1      23.678   5.299  51.700  1.00  0.00    -0.268 OA
HETATM   12  H5  UNL     1      23.416   3.035  49.409  1.00  0.00     0.169 HD
BRANCH  10  13
HETATM   13  C6  UNL     1      23.047   5.743  49.477  1.00  0.00     0.072 C 
HETATM   14  C7  UNL     1      23.840   6.063  48.472  1.00  0.00     0.013 C 
BRANCH  14  15
HETATM   15  C8  UNL     1      23.379   6.987  47.387  1.00  0.00     0.242 C 
HETATM   16  C9  UNL     1      22.614   6.204  46.368  1.00  0.00     0.047 C 
BRANCH  15  17
HETATM   17  N2  UNL     1      24.482   7.738  46.863  1.00  0.00     0.095 N 
BRANCH  17  18
HETATM   18  C10 UNL     1      25.583   7.768  47.826  1.00  0.00     0.268 C 
HETATM   19  C11 UNL     1      26.897   7.945  47.082  1.00  0.00     0.037 C 
ENDBRANCH  17  18
BRANCH  17  20
HETATM   20  C12 UNL     1      24.174   9.088  46.516  1.00  0.00     0.268 C 
HETATM   21  C13 UNL     1      23.644   9.788  47.774  1.00  0.00     0.037 C 
ENDBRANCH  17  20
ENDBRANCH  15  17
ENDBRANCH  14  15
ENDBRANCH  10  13
ENDBRANCH   4   9
BRANCH   8  22
HETATM   22  C17 UNL     1      26.786   0.490  52.872  1.00  0.00     0.041 A 
HETATM   23  C18 UNL     1      27.748   1.403  53.318  1.00  0.00     0.033 A 
HETATM   24  C19 UNL     1      29.031   1.018  53.675  1.00  0.00     0.046 A 
HETATM   25  C20 UNL     1      29.354  -0.307  53.582  1.00  0.00     0.138 A 
HETATM   26  F1  UNL     1      30.598  -0.705  53.924  1.00  0.00    -0.204 F 
HETATM   27  C21 UNL     1      28.410  -1.237  53.140  1.00  0.00     0.074 A 
HETATM   28 CL1  UNL     1      28.837  -2.944  53.024  1.00  0.00    -0.081 Cl
HETATM   29  C22 UNL     1      27.122  -0.837  52.784  1.00  0.00     0.057 A 
ENDBRANCH   8  22
TORSDOF 7
ENDMDL
MODEL 6
REMARK VINA RESULT:      -7.5      2.547      3.727
REMARK  7 active torsions:
REMARK  status: ('A' for Active; 'I' for Inactive)
REMARK    1  A    between atoms: C4_4  and  N1_5 
REMARK       I    between atoms: N1_5  and  C5_6 
REMARK    2  A    between atoms: C5_6  and  C6_8 
REMARK    3  A    between atoms: C7_9  and  C8_10 
REMARK    4  A    between atoms: C8_10  and  N2_12 
REMARK    5  A    between atoms: N2_12  and  C10_13 
REMARK    6  A    between atoms: N2_12  and  C12_15 
REMARK    7  A    between atoms: N3_20  and  C17_21 
ROOT
HETATM    1  C1  UNL     1      23.106   2.010  50.602  1.00  0.00     0.038 C 
HETATM    2  C2  UNL     1      23.609   1.182  51.712  1.00  0.00     0.001 C 
HETATM    3  C3  UNL     1      23.153   0.448  52.695  1.00  0.00     0.061 A 
HETATM    4  C4  UNL     1      21.739   0.246  52.957  1.00  0.00     0.062 A 
HETATM    5  C14 UNL     1      21.259  -0.443  53.985  1.00  0.00     0.033 A 
HETATM    6  C15 UNL     1      22.201  -1.042  54.915  1.00  0.00     0.020 A 
HETATM    7  C16 UNL     1      23.496  -0.884  54.710  1.00  0.00     0.097 A 
HETATM    8  N3  UNL     1      24.042  -0.153  53.625  1.00  0.00    -0.320 N 
ENDROOT
BRANCH   4   9
HETATM    9  N1  UNL     1      20.690   0.748  52.142  1.00  0.00    -0.322 N 
HETATM   10  C5  UNL     1      20.022   2.020  52.289  1.00  0.00     0.245 C 
HETATM   11  O1  UNL     1      20.396   2.773  53.222  1.00  0.00    -0.268 OA
HETATM   12  H5  UNL     1      20.420   0.110  51.393  1.00  0.00     0.169 HD
BRANCH  10  13
HETATM   13  C6  UNL     1      18.958   2.420  51.394  1.00  0.00     0.072 C 
HETATM   14  C7  UNL     1      18.784   3.664  50.990  1.00  0.00     0.013 C 
BRANCH  14  15
HETATM   15  C8  UNL     1      17.665   4.026  50.061  1.00  0.00     0.242 C 
HETATM   16  C9  UNL     1      16.424   4.269  50.860  1.00  0.00     0.047 C 
BRANCH  15  17
HETATM   17  N2  UNL     1      17.530   3.041  49.028  1.00  0.00     0.095 N 
BRANCH  17  18
HETATM   18  C10 UNL     1      17.923   3.600  47.734  1.00  0.00     0.268 C 
HETATM   19  C11 UNL     1      19.337   3.150  47.402  1.00  0.00     0.037 C 
ENDBRANCH  17  18
BRANCH  17  20
HETATM   20  C12 UNL     1      16.216   2.502  48.885  1.00  0.00     0.268 C 
HETATM   21  C13 UNL     1      16.302   0.987  49.115  1.00  0.00     0.037 C 
ENDBRANCH  17  20
ENDBRANCH  15  17
ENDBRANCH  14  15
ENDBRANCH  10  13
ENDBRANCH   4   9
BRANCH   8  22
HETATM   22  C17 UNL     1      25.473  -0.042  53.495  1.00  0.00     0.041 A 
HETATM   23  C18 UNL     1      26.157  -1.202  53.116  1.00  0.00     0.033 A 
HETATM   24  C19 UNL     1      27.534  -1.236  52.956  1.00  0.00     0.046 A 
HETATM   25  C20 UNL     1      28.236  -0.084  53.179  1.00  0.00     0.138 A 
HETATM   26  F1  UNL     1      29.578  -0.094  53.029  1.00  0.00    -0.204 F 
HETATM   27  C21 UNL     1      27.575   1.086  53.557  1.00  0.00     0.074 A 
HETATM   28 CL1  UNL     1      28.489   2.567  53.844  1.00  0.00    -0.081 Cl
HETATM   29  C22 UNL     1      26.189   1.107  53.715  1.00  0.00     0.057 A 
ENDBRANCH   8  22
TORSDOF 7
ENDMDL
MODEL 7
REMARK VINA RESULT:      -7.5      3.952      5.930
REMARK  7 active torsions:
REMARK  status: ('A' for Active; 'I' for Inactive)
REMARK    1  A    between atoms: C4_4  and  N1_5 
REMARK       I    between atoms: N1_5  and  C5_6 
REMARK    2  A    between atoms: C5_6  and  C6_8 
REMARK    3  A    between atoms: C7_9  and  C8_10 
REMARK    4  A    between atoms: C8_10  and  N2_12 
REMARK    5  A    between atoms: N2_12  and  C10_13 
REMARK    6  A    between atoms: N2_12  and  C12_15 
REMARK    7  A    between atoms: N3_20  and  C17_21 
ROOT
HETATM    1  C1  UNL     1      26.190   3.483  50.021  1.00  0.00     0.038 C 
HETATM    2  C2  UNL     1      25.991   2.399  50.999  1.00  0.00     0.001 C 
HETATM    3  C3  UNL     1      25.018   1.708  51.536  1.00  0.00     0.061 A 
HETATM    4  C4  UNL     1      23.617   1.903  51.207  1.00  0.00     0.062 A 
HETATM    5  C14 UNL     1      22.614   1.255  51.787  1.00  0.00     0.033 A 
HETATM    6  C15 UNL     1      22.927   0.281  52.819  1.00  0.00     0.020 A 
HETATM    7  C16 UNL     1      24.190   0.072  53.146  1.00  0.00     0.097 A 
HETATM    8  N3  UNL     1      25.284   0.747  52.548  1.00  0.00    -0.320 N 
ENDROOT
BRANCH   4   9
HETATM    9  N1  UNL     1      23.141   2.802  50.216  1.00  0.00    -0.322 N 
HETATM   10  C5  UNL     1      22.721   4.168  50.426  1.00  0.00     0.245 C 
HETATM   11  O1  UNL     1      22.780   4.626  51.594  1.00  0.00    -0.268 OA
HETATM   12  H5  UNL     1      23.114   2.394  49.281  1.00  0.00     0.169 HD
BRANCH  10  13
HETATM   13  C6  UNL     1      22.248   4.987  49.331  1.00  0.00     0.072 C 
HETATM   14  C7  UNL     1      22.741   4.914  48.109  1.00  0.00     0.013 C 
BRANCH  14  15
HETATM   15  C8  UNL     1      22.215   5.785  47.010  1.00  0.00     0.242 C 
HETATM   16  C9  UNL     1      20.817   6.201  47.341  1.00  0.00     0.047 C 
BRANCH  15  17
HETATM   17  N2  UNL     1      22.363   5.137  45.739  1.00  0.00     0.095 N 
BRANCH  17  18
HETATM   18  C10 UNL     1      21.885   6.006  44.664  1.00  0.00     0.268 C 
HETATM   19  C11 UNL     1      22.961   7.024  44.324  1.00  0.00     0.037 C 
ENDBRANCH  17  18
BRANCH  17  20
HETATM   20  C12 UNL     1      21.682   3.889  45.623  1.00  0.00     0.268 C 
HETATM   21  C13 UNL     1      20.852   3.925  44.333  1.00  0.00     0.037 C 
ENDBRANCH  17  20
ENDBRANCH  15  17
ENDBRANCH  14  15
ENDBRANCH  10  13
ENDBRANCH   4   9
BRANCH   8  22
HETATM   22  C17 UNL     1      26.625   0.443  52.980  1.00  0.00     0.041 A 
HETATM   23  C18 UNL     1      27.081  -0.855  52.728  1.00  0.00     0.033 A 
HETATM   24  C19 UNL     1      28.349  -1.282  53.092  1.00  0.00     0.046 A 
HETATM   25  C20 UNL     1      29.173  -0.388  53.718  1.00  0.00     0.138 A 
HETATM   26  F1  UNL     1      30.413  -0.782  54.081  1.00  0.00    -0.204 F 
HETATM   27  C21 UNL     1      28.740   0.914  53.978  1.00  0.00     0.074 A 
HETATM   28 CL1  UNL     1      29.810   2.058  54.787  1.00  0.00    -0.081 Cl
HETATM   29  C22 UNL     1      27.461   1.330  53.608  1.00  0.00     0.057 A 
ENDBRANCH   8  22
TORSDOF 7
ENDMDL
MODEL 8
REMARK VINA RESULT:      -7.4      6.586     11.562
REMARK  7 active torsions:
REMARK  status: ('A' for Active; 'I' for Inactive)
REMARK    1  A    between atoms: C4_4  and  N1_5 
REMARK       I    between atoms: N1_5  and  C5_6 
REMARK    2  A    between atoms: C5_6  and  C6_8 
REMARK    3  A    between atoms: C7_9  and  C8_10 
REMARK    4  A    between atoms: C8_10  and  N2_12 
REMARK    5  A    between atoms: N2_12  and  C10_13 
REMARK    6  A    between atoms: N2_12  and  C12_15 
REMARK    7  A    between atoms: N3_20  and  C17_21 
ROOT
HETATM    1  C1  UNL     1      27.395   4.434  48.917  1.00  0.00     0.038 C 
HETATM    2  C2  UNL     1      25.977   4.654  49.250  1.00  0.00     0.001 C 
HETATM    3  C3  UNL     1      25.191   5.610  49.676  1.00  0.00     0.061 A 
HETATM    4  C4  UNL     1      25.650   6.956  49.973  1.00  0.00     0.062 A 
HETATM    5  C14 UNL     1      24.879   7.919  50.464  1.00  0.00     0.033 A 
HETATM    6  C15 UNL     1      23.481   7.619  50.723  1.00  0.00     0.020 A 
HETATM    7  C16 UNL     1      23.023   6.407  50.464  1.00  0.00     0.097 A 
HETATM    8  N3  UNL     1      23.819   5.356  49.941  1.00  0.00    -0.320 N 
ENDROOT
BRANCH   4   9
HETATM    9  N1  UNL     1      26.976   7.417  49.764  1.00  0.00    -0.322 N 
HETATM   10  C5  UNL     1      27.522   7.935  48.531  1.00  0.00     0.245 C 
HETATM   11  O1  UNL     1      26.760   7.996  47.535  1.00  0.00    -0.268 OA
HETATM   12  H5  UNL     1      27.561   7.355  50.599  1.00  0.00     0.169 HD
BRANCH  10  13
HETATM   13  C6  UNL     1      28.898   8.371  48.441  1.00  0.00     0.072 C 
HETATM   14  C7  UNL     1      29.924   7.545  48.522  1.00  0.00     0.013 C 
BRANCH  14  15
HETATM   15  C8  UNL     1      31.332   8.048  48.421  1.00  0.00     0.242 C 
HETATM   16  C9  UNL     1      31.312   9.468  47.952  1.00  0.00     0.047 C 
BRANCH  15  17
HETATM   17  N2  UNL     1      32.127   7.162  47.622  1.00  0.00     0.095 N 
BRANCH  17  18
HETATM   18  C10 UNL     1      32.294   5.875  48.297  1.00  0.00     0.268 C 
HETATM   19  C11 UNL     1      31.949   4.752  47.332  1.00  0.00     0.037 C 
ENDBRANCH  17  18
BRANCH  17  20
HETATM   20  C12 UNL     1      33.427   7.654  47.299  1.00  0.00     0.268 C 
HETATM   21  C13 UNL     1      34.337   7.406  48.510  1.00  0.00     0.037 C 
ENDBRANCH  17  20
ENDBRANCH  15  17
ENDBRANCH  14  15
ENDBRANCH  10  13
ENDBRANCH   4   9
BRANCH   8  22
HETATM   22  C17 UNL     1      23.219   4.069  49.695  1.00  0.00     0.041 A 
HETATM   23  C18 UNL     1      22.846   3.797  48.375  1.00  0.00     0.033 A 
HETATM   24  C19 UNL     1      22.257   2.600  47.998  1.00  0.00     0.046 A 
HETATM   25  C20 UNL     1      22.040   1.658  48.966  1.00  0.00     0.138 A 
HETATM   26  F1  UNL     1      21.468   0.485  48.623  1.00  0.00    -0.204 F 
HETATM   27  C21 UNL     1      22.404   1.907  50.291  1.00  0.00     0.074 A 
HETATM   28 CL1  UNL     1      22.120   0.686  51.532  1.00  0.00    -0.081 Cl
HETATM   29  C22 UNL     1      22.996   3.116  50.657  1.00  0.00     0.057 A 
ENDBRANCH   8  22
TORSDOF 7
ENDMDL
MODEL 9
REMARK VINA RESULT:      -7.3      6.773     11.533
REMARK  7 active torsions:
REMARK  status: ('A' for Active; 'I' for Inactive)
REMARK    1  A    between atoms: C4_4  and  N1_5 
REMARK       I    between atoms: N1_5  and  C5_6 
REMARK    2  A    between atoms: C5_6  and  C6_8 
REMARK    3  A    between atoms: C7_9  and  C8_10 
REMARK    4  A    between atoms: C8_10  and  N2_12 
REMARK    5  A    between atoms: N2_12  and  C10_13 
REMARK    6  A    between atoms: N2_12  and  C12_15 
REMARK    7  A    between atoms: N3_20  and  C17_21 
ROOT
HETATM    1  C1  UNL     1      27.417   4.396  48.916  1.00  0.00     0.038 C 
HETATM    2  C2  UNL     1      26.032   4.606  49.372  1.00  0.00     0.001 C 
HETATM    3  C3  UNL     1      25.258   5.572  49.795  1.00  0.00     0.061 A 
HETATM    4  C4  UNL     1      25.696   6.950  49.933  1.00  0.00     0.062 A 
HETATM    5  C14 UNL     1      24.943   7.930  50.419  1.00  0.00     0.033 A 
HETATM    6  C15 UNL     1      23.589   7.616  50.842  1.00  0.00     0.020 A 
HETATM    7  C16 UNL     1      23.151   6.374  50.731  1.00  0.00     0.097 A 
HETATM    8  N3  UNL     1      23.929   5.305  50.218  1.00  0.00    -0.320 N 
ENDROOT
BRANCH   4   9
HETATM    9  N1  UNL     1      26.978   7.428  49.555  1.00  0.00    -0.322 N 
HETATM   10  C5  UNL     1      27.383   7.846  48.233  1.00  0.00     0.245 C 
HETATM   11  O1  UNL     1      26.527   7.796  47.315  1.00  0.00    -0.268 OA
HETATM   12  H5  UNL     1      27.642   7.459  50.329  1.00  0.00     0.169 HD
BRANCH  10  13
HETATM   13  C6  UNL     1      28.728   8.311  47.969  1.00  0.00     0.072 C 
HETATM   14  C7  UNL     1      29.282   8.274  46.772  1.00  0.00     0.013 C 
BRANCH  14  15
HETATM   15  C8  UNL     1      30.679   8.769  46.552  1.00  0.00     0.242 C 
HETATM   16  C9  UNL     1      31.457   7.726  45.813  1.00  0.00     0.047 C 
BRANCH  15  17
HETATM   17  N2  UNL     1      31.266   9.189  47.790  1.00  0.00     0.095 N 
BRANCH  17  18
HETATM   18  C10 UNL     1      31.740  10.570  47.688  1.00  0.00     0.268 C 
HETATM   19  C11 UNL     1      30.907  11.456  48.600  1.00  0.00     0.037 C 
ENDBRANCH  17  18
BRANCH  17  20
HETATM   20  C12 UNL     1      32.359   8.388  48.236  1.00  0.00     0.268 C 
HETATM   21  C13 UNL     1      31.990   7.812  49.610  1.00  0.00     0.037 C 
ENDBRANCH  17  20
ENDBRANCH  15  17
ENDBRANCH  14  15
ENDBRANCH  10  13
ENDBRANCH   4   9
BRANCH   8  22
HETATM   22  C17 UNL     1      23.353   3.986  50.140  1.00  0.00     0.041 A 
HETATM   23  C18 UNL     1      22.718   3.653  48.939  1.00  0.00     0.033 A 
HETATM   24  C19 UNL     1      22.121   2.419  48.729  1.00  0.00     0.046 A 
HETATM   25  C20 UNL     1      22.164   1.503  49.744  1.00  0.00     0.138 A 
HETATM   26  F1  UNL     1      21.589   0.295  49.562  1.00  0.00    -0.204 F 
HETATM   27  C21 UNL     1      22.793   1.813  50.951  1.00  0.00     0.074 A 
HETATM   28 CL1  UNL     1      22.843   0.625  52.254  1.00  0.00    -0.081 Cl
HETATM   29  C22 UNL     1      23.390   3.058  51.150  1.00  0.00     0.057 A 
ENDBRANCH   8  22
TORSDOF 7
ENDMDL
