MODEL 1
REMARK VINA RESULT:     -10.3      0.000      0.000
REMARK  0 active torsions:
REMARK  status: ('A' for Active; 'I' for Inactive)
ROOT
HETATM    1  C1  UNL     1      21.235   0.992  49.214  1.00  0.00     0.039 C 
HETATM    2  C2  UNL     1      22.305   1.951  49.633  1.00  0.00     0.007 C 
HETATM    3  C3  UNL     1      23.254   2.338  50.468  1.00  0.00     0.083 C 
HETATM    4  O1  UNL     1      24.137   3.352  50.593  1.00  0.00    -0.309 OA
HETATM    5  C4  UNL     1      24.280   4.524  49.940  1.00  0.00     0.087 A 
HETATM    6  C5  UNL     1      23.151   5.283  49.881  1.00  0.00     0.038 A 
HETATM    7  C6  UNL     1      23.044   6.525  49.269  1.00  0.00     0.004 A 
HETATM    8  C7  UNL     1      24.195   7.034  48.664  1.00  0.00     0.012 A 
HETATM    9  C8  UNL     1      25.350   6.260  48.722  1.00  0.00    -0.023 A 
HETATM   10  C9  UNL     1      26.428   6.855  48.096  1.00  0.00     0.012 A 
HETATM   11  C10 UNL     1      27.654   6.225  48.059  1.00  0.00     0.002 A 
HETATM   12  C11 UNL     1      27.708   4.996  48.679  1.00  0.00     0.009 A 
HETATM   13  C12 UNL     1      26.667   4.393  49.299  1.00  0.00    -0.031 A 
HETATM   14  C13 UNL     1      25.432   5.028  49.336  1.00  0.00     0.015 A 
HETATM   15  C14 UNL     1      26.748   3.078  49.929  1.00  0.00     0.131 C 
HETATM   16  N1  UNL     1      26.624   3.141  51.389  1.00  0.00    -0.295 NA
HETATM   17  P1  UNL     1      26.406   1.495  51.939  1.00  0.00    -0.040 P 
HETATM   18  C15 UNL     1      26.807   1.439  53.513  1.00  0.00    -0.004 C 
HETATM   19  C16 UNL     1      26.136   0.096  53.615  1.00  0.00     0.064 C 
HETATM   20  C17 UNL     1      24.726   0.279  53.181  1.00  0.00    -0.060 A 
HETATM   21  C18 UNL     1      24.702   1.098  52.174  1.00  0.00    -0.005 A 
HETATM   22  C19 UNL     1      23.426   1.421  51.602  1.00  0.00     0.006 A 
HETATM   23  C20 UNL     1      22.572   0.707  52.359  1.00  0.00    -0.007 A 
HETATM   24  C21 UNL     1      23.297  -0.089  53.418  1.00  0.00     0.063 A 
HETATM   25  H13 UNL     1      27.458   3.609  51.788  1.00  0.00     0.127 HD
HETATM   26  H14 UNL     1      27.063   0.553  51.160  1.00  0.00     0.077 HD
ENDROOT
TORSDOF 0
ENDMDL
MODEL 2
REMARK VINA RESULT:      -9.5      1.695      3.860
REMARK  0 active torsions:
REMARK  status: ('A' for Active; 'I' for Inactive)
ROOT
HETATM    1  C1  UNL     1      28.787   2.076  53.669  1.00  0.00     0.039 C 
HETATM    2  C2  UNL     1      27.687   2.450  52.726  1.00  0.00     0.007 C 
HETATM    3  C3  UNL     1      26.526   2.206  52.142  1.00  0.00     0.083 C 
HETATM    4  O1  UNL     1      25.706   2.789  51.242  1.00  0.00    -0.309 OA
HETATM    5  C4  UNL     1      25.858   3.847  50.420  1.00  0.00     0.087 A 
HETATM    6  C5  UNL     1      26.973   3.805  49.639  1.00  0.00     0.038 A 
HETATM    7  C6  UNL     1      27.348   4.771  48.714  1.00  0.00     0.004 A 
HETATM    8  C7  UNL     1      26.508   5.878  48.579  1.00  0.00     0.012 A 
HETATM    9  C8  UNL     1      25.369   5.924  49.376  1.00  0.00    -0.023 A 
HETATM   10  C9  UNL     1      24.609   7.058  49.163  1.00  0.00     0.012 A 
HETATM   11  C10 UNL     1      23.444   7.266  49.870  1.00  0.00     0.002 A 
HETATM   12  C11 UNL     1      23.116   6.280  50.775  1.00  0.00     0.009 A 
HETATM   13  C12 UNL     1      23.843   5.162  51.002  1.00  0.00    -0.031 A 
HETATM   14  C13 UNL     1      25.017   4.953  50.289  1.00  0.00     0.015 A 
HETATM   15  C14 UNL     1      23.482   4.143  51.985  1.00  0.00     0.131 C 
HETATM   16  N1  UNL     1      23.091   2.872  51.366  1.00  0.00    -0.295 NA
HETATM   17  P1  UNL     1      23.021   1.694  52.656  1.00  0.00    -0.040 P 
HETATM   18  C15 UNL     1      22.093   0.459  52.153  1.00  0.00    -0.004 C 
HETATM   19  C16 UNL     1      22.619  -0.373  53.291  1.00  0.00     0.064 C 
HETATM   20  C17 UNL     1      24.098  -0.412  53.156  1.00  0.00    -0.060 A 
HETATM   21  C18 UNL     1      24.514   0.758  52.778  1.00  0.00    -0.005 A 
HETATM   22  C19 UNL     1      25.923   0.939  52.577  1.00  0.00     0.006 A 
HETATM   23  C20 UNL     1      26.423  -0.276  52.872  1.00  0.00    -0.007 A 
HETATM   24  C21 UNL     1      25.334  -1.244  53.275  1.00  0.00     0.063 A 
HETATM   25  H13 UNL     1      22.194   2.994  50.861  1.00  0.00     0.127 HD
HETATM   26  H14 UNL     1      22.633   2.225  53.879  1.00  0.00     0.077 HD
ENDROOT
TORSDOF 0
ENDMDL
MODEL 3
REMARK VINA RESULT:      -9.2      2.826      6.424
REMARK  0 active torsions:
REMARK  status: ('A' for Active; 'I' for Inactive)
ROOT
HETATM    1  C1  UNL     1      23.390   5.278  51.773  1.00  0.00     0.039 C 
HETATM    2  C2  UNL     1      22.952   3.849  51.695  1.00  0.00     0.007 C 
HETATM    3  C3  UNL     1      23.216   2.554  51.687  1.00  0.00     0.083 C 
HETATM    4  O1  UNL     1      22.544   1.386  51.592  1.00  0.00    -0.309 OA
HETATM    5  C4  UNL     1      21.263   1.094  51.287  1.00  0.00     0.087 A 
HETATM    6  C5  UNL     1      20.814   1.648  50.126  1.00  0.00     0.038 A 
HETATM    7  C6  UNL     1      19.540   1.493  49.597  1.00  0.00     0.004 A 
HETATM    8  C7  UNL     1      18.646   0.701  50.322  1.00  0.00     0.012 A 
HETATM    9  C8  UNL     1      19.101   0.134  51.507  1.00  0.00    -0.023 A 
HETATM   10  C9  UNL     1      18.140  -0.629  52.143  1.00  0.00     0.012 A 
HETATM   11  C10 UNL     1      18.422  -1.265  53.333  1.00  0.00     0.002 A 
HETATM   12  C11 UNL     1      19.699  -1.079  53.816  1.00  0.00     0.009 A 
HETATM   13  C12 UNL     1      20.657  -0.338  53.213  1.00  0.00    -0.031 A 
HETATM   14  C13 UNL     1      20.373   0.302  52.014  1.00  0.00     0.015 A 
HETATM   15  C14 UNL     1      21.997  -0.140  53.760  1.00  0.00     0.131 C 
HETATM   16  N1  UNL     1      23.038  -0.793  52.959  1.00  0.00    -0.295 NA
HETATM   17  P1  UNL     1      24.569  -0.188  53.548  1.00  0.00    -0.040 P 
HETATM   18  C15 UNL     1      25.724  -1.241  53.106  1.00  0.00    -0.004 C 
HETATM   19  C16 UNL     1      26.765  -0.204  53.430  1.00  0.00     0.064 C 
HETATM   20  C17 UNL     1      26.456   0.996  52.609  1.00  0.00    -0.060 A 
HETATM   21  C18 UNL     1      25.168   1.156  52.572  1.00  0.00    -0.005 A 
HETATM   22  C19 UNL     1      24.650   2.262  51.819  1.00  0.00     0.006 A 
HETATM   23  C20 UNL     1      25.765   2.843  51.339  1.00  0.00    -0.007 A 
HETATM   24  C21 UNL     1      27.011   2.118  51.792  1.00  0.00     0.063 A 
HETATM   25  H13 UNL     1      22.937  -1.822  53.032  1.00  0.00     0.127 HD
HETATM   26  H14 UNL     1      24.569   0.107  54.905  1.00  0.00     0.077 HD
ENDROOT
TORSDOF 0
ENDMDL
MODEL 4
REMARK VINA RESULT:      -8.8      2.231      6.802
REMARK  0 active torsions:
REMARK  status: ('A' for Active; 'I' for Inactive)
ROOT
HETATM    1  C1  UNL     1      27.399   4.413  48.957  1.00  0.00     0.039 C 
HETATM    2  C2  UNL     1      26.200   4.151  49.814  1.00  0.00     0.007 C 
HETATM    3  C3  UNL     1      25.113   4.560  50.445  1.00  0.00     0.083 C 
HETATM    4  O1  UNL     1      24.134   4.037  51.215  1.00  0.00    -0.309 OA
HETATM    5  C4  UNL     1      23.981   2.831  51.800  1.00  0.00     0.087 A 
HETATM    6  C5  UNL     1      25.035   2.431  52.564  1.00  0.00     0.038 A 
HETATM    7  C6  UNL     1      25.115   1.237  53.268  1.00  0.00     0.004 A 
HETATM    8  C7  UNL     1      24.019   0.376  53.181  1.00  0.00     0.012 A 
HETATM    9  C8  UNL     1      22.941   0.781  52.401  1.00  0.00    -0.023 A 
HETATM   10  C9  UNL     1      21.912  -0.140  52.384  1.00  0.00     0.012 A 
HETATM   11  C10 UNL     1      20.764   0.101  51.660  1.00  0.00     0.002 A 
HETATM   12  C11 UNL     1      20.734   1.298  50.979  1.00  0.00     0.009 A 
HETATM   13  C12 UNL     1      21.727   2.217  50.980  1.00  0.00    -0.031 A 
HETATM   14  C13 UNL     1      22.884   1.974  51.710  1.00  0.00     0.015 A 
HETATM   15  C14 UNL     1      21.677   3.470  50.230  1.00  0.00     0.131 C 
HETATM   16  N1  UNL     1      21.590   4.648  51.100  1.00  0.00    -0.295 NA
HETATM   17  P1  UNL     1      21.874   6.039  50.079  1.00  0.00    -0.040 P 
HETATM   18  C15 UNL     1      21.265   7.343  50.833  1.00  0.00    -0.004 C 
HETATM   19  C16 UNL     1      22.031   8.224  49.885  1.00  0.00     0.064 C 
HETATM   20  C17 UNL     1      23.466   7.857  50.012  1.00  0.00    -0.060 A 
HETATM   21  C18 UNL     1      23.558   6.569  50.139  1.00  0.00    -0.005 A 
HETATM   22  C19 UNL     1      24.867   5.999  50.285  1.00  0.00     0.006 A 
HETATM   23  C20 UNL     1      25.668   7.081  50.241  1.00  0.00    -0.007 A 
HETATM   24  C21 UNL     1      24.875   8.354  50.055  1.00  0.00     0.063 A 
HETATM   25  H13 UNL     1      20.670   4.659  51.577  1.00  0.00     0.127 HD
HETATM   26  H14 UNL     1      21.419   5.880  48.777  1.00  0.00     0.077 HD
ENDROOT
TORSDOF 0
ENDMDL
MODEL 5
REMARK VINA RESULT:      -8.4      5.254      8.925
REMARK  0 active torsions:
REMARK  status: ('A' for Active; 'I' for Inactive)
ROOT
HETATM    1  C1  UNL     1      27.071   4.495  49.127  1.00  0.00     0.039 C 
HETATM    2  C2  UNL     1      28.395   4.940  48.591  1.00  0.00     0.007 C 
HETATM    3  C3  UNL     1      29.172   5.848  48.024  1.00  0.00     0.083 C 
HETATM    4  O1  UNL     1      30.456   5.970  47.623  1.00  0.00    -0.309 OA
HETATM    5  C4  UNL     1      31.461   5.080  47.498  1.00  0.00     0.087 A 
HETATM    6  C5  UNL     1      31.155   3.973  46.765  1.00  0.00     0.038 A 
HETATM    7  C6  UNL     1      32.017   2.920  46.493  1.00  0.00     0.004 A 
HETATM    8  C7  UNL     1      33.308   3.007  47.018  1.00  0.00     0.012 A 
HETATM    9  C8  UNL     1      33.624   4.135  47.768  1.00  0.00    -0.023 A 
HETATM   10  C9  UNL     1      34.923   4.121  48.239  1.00  0.00     0.012 A 
HETATM   11  C10 UNL     1      35.405   5.164  49.001  1.00  0.00     0.002 A 
HETATM   12  C11 UNL     1      34.511   6.183  49.244  1.00  0.00     0.009 A 
HETATM   13  C12 UNL     1      33.235   6.220  48.795  1.00  0.00    -0.031 A 
HETATM   14  C13 UNL     1      32.750   5.170  48.026  1.00  0.00     0.015 A 
HETATM   15  C14 UNL     1      32.301   7.305  49.087  1.00  0.00     0.131 C 
HETATM   16  N1  UNL     1      31.962   8.095  47.899  1.00  0.00    -0.295 NA
HETATM   17  P1  UNL     1      30.609   9.109  48.348  1.00  0.00    -0.040 P 
HETATM   18  C15 UNL     1      30.549  10.352  47.303  1.00  0.00    -0.004 C 
HETATM   19  C16 UNL     1      29.158  10.662  47.783  1.00  0.00     0.064 C 
HETATM   20  C17 UNL     1      28.342   9.437  47.577  1.00  0.00    -0.060 A 
HETATM   21  C18 UNL     1      29.065   8.400  47.872  1.00  0.00    -0.005 A 
HETATM   22  C19 UNL     1      28.467   7.102  47.734  1.00  0.00     0.006 A 
HETATM   23  C20 UNL     1      27.225   7.393  47.300  1.00  0.00    -0.007 A 
HETATM   24  C21 UNL     1      27.015   8.883  47.168  1.00  0.00     0.063 A 
HETATM   25  H13 UNL     1      32.795   8.624  47.584  1.00  0.00     0.127 HD
HETATM   26  H14 UNL     1      30.621   9.498  49.681  1.00  0.00     0.077 HD
ENDROOT
TORSDOF 0
ENDMDL
MODEL 6
REMARK VINA RESULT:      -8.2      2.224      4.365
REMARK  0 active torsions:
REMARK  status: ('A' for Active; 'I' for Inactive)
ROOT
HETATM    1  C1  UNL     1      24.684   2.637  53.366  1.00  0.00     0.039 C 
HETATM    2  C2  UNL     1      24.633   3.180  51.972  1.00  0.00     0.007 C 
HETATM    3  C3  UNL     1      24.098   3.228  50.764  1.00  0.00     0.083 C 
HETATM    4  O1  UNL     1      24.291   3.883  49.599  1.00  0.00    -0.309 OA
HETATM    5  C4  UNL     1      25.282   4.681  49.155  1.00  0.00     0.087 A 
HETATM    6  C5  UNL     1      26.532   4.152  49.265  1.00  0.00     0.038 A 
HETATM    7  C6  UNL     1      27.711   4.775  48.877  1.00  0.00     0.004 A 
HETATM    8  C7  UNL     1      27.599   6.054  48.327  1.00  0.00     0.012 A 
HETATM    9  C8  UNL     1      26.324   6.598  48.214  1.00  0.00    -0.023 A 
HETATM   10  C9  UNL     1      26.327   7.863  47.658  1.00  0.00     0.012 A 
HETATM   11  C10 UNL     1      25.146   8.550  47.472  1.00  0.00     0.002 A 
HETATM   12  C11 UNL     1      24.006   7.890  47.874  1.00  0.00     0.009 A 
HETATM   13  C12 UNL     1      23.977   6.652  48.420  1.00  0.00    -0.031 A 
HETATM   14  C13 UNL     1      25.167   5.960  48.607  1.00  0.00     0.015 A 
HETATM   15  C14 UNL     1      22.754   5.985  48.858  1.00  0.00     0.131 C 
HETATM   16  N1  UNL     1      22.415   4.822  48.031  1.00  0.00    -0.295 NA
HETATM   17  P1  UNL     1      21.148   3.964  48.877  1.00  0.00    -0.040 P 
HETATM   18  C15 UNL     1      20.375   3.028  47.798  1.00  0.00    -0.004 C 
HETATM   19  C16 UNL     1      19.741   2.275  48.936  1.00  0.00     0.064 C 
HETATM   20  C17 UNL     1      20.845   1.740  49.774  1.00  0.00    -0.060 A 
HETATM   21  C18 UNL     1      21.784   2.633  49.846  1.00  0.00    -0.005 A 
HETATM   22  C19 UNL     1      22.958   2.314  50.608  1.00  0.00     0.006 A 
HETATM   23  C20 UNL     1      22.694   1.071  51.053  1.00  0.00    -0.007 A 
HETATM   24  C21 UNL     1      21.341   0.588  50.587  1.00  0.00     0.063 A 
HETATM   25  H13 UNL     1      22.146   5.139  47.082  1.00  0.00     0.127 HD
HETATM   26  H14 UNL     1      20.304   4.791  49.607  1.00  0.00     0.077 HD
ENDROOT
TORSDOF 0
ENDMDL
MODEL 7
REMARK VINA RESULT:      -8.2      2.072      6.371
REMARK  0 active torsions:
REMARK  status: ('A' for Active; 'I' for Inactive)
ROOT
HETATM    1  C1  UNL     1      20.845   6.264  50.500  1.00  0.00     0.039 C 
HETATM    2  C2  UNL     1      21.181   4.818  50.687  1.00  0.00     0.007 C 
HETATM    3  C3  UNL     1      22.020   3.800  50.595  1.00  0.00     0.083 C 
HETATM    4  O1  UNL     1      22.039   2.479  50.872  1.00  0.00    -0.309 OA
HETATM    5  C4  UNL     1      21.073   1.607  51.226  1.00  0.00     0.087 A 
HETATM    6  C5  UNL     1      19.986   1.597  50.406  1.00  0.00     0.038 A 
HETATM    7  C6  UNL     1      18.867   0.790  50.557  1.00  0.00     0.004 A 
HETATM    8  C7  UNL     1      18.860  -0.085  51.646  1.00  0.00     0.012 A 
HETATM    9  C8  UNL     1      19.968  -0.077  52.486  1.00  0.00    -0.023 A 
HETATM   10  C9  UNL     1      19.860  -0.978  53.528  1.00  0.00     0.012 A 
HETATM   11  C10 UNL     1      20.871  -1.102  54.458  1.00  0.00     0.002 A 
HETATM   12  C11 UNL     1      21.958  -0.278  54.264  1.00  0.00     0.009 A 
HETATM   13  C12 UNL     1      22.088   0.611  53.253  1.00  0.00    -0.031 A 
HETATM   14  C13 UNL     1      21.070   0.735  52.316  1.00  0.00     0.015 A 
HETATM   15  C14 UNL     1      23.244   1.488  53.084  1.00  0.00     0.131 C 
HETATM   16  N1  UNL     1      24.046   1.148  51.904  1.00  0.00    -0.295 NA
HETATM   17  P1  UNL     1      25.165   2.471  51.668  1.00  0.00    -0.040 P 
HETATM   18  C15 UNL     1      26.397   1.925  50.761  1.00  0.00    -0.004 C 
HETATM   19  C16 UNL     1      26.819   3.348  50.513  1.00  0.00     0.064 C 
HETATM   20  C17 UNL     1      25.657   4.047  49.902  1.00  0.00    -0.060 A 
HETATM   21  C18 UNL     1      24.571   3.636  50.482  1.00  0.00    -0.005 A 
HETATM   22  C19 UNL     1      23.322   4.183  50.034  1.00  0.00     0.006 A 
HETATM   23  C20 UNL     1      23.702   5.032  49.060  1.00  0.00    -0.007 A 
HETATM   24  C21 UNL     1      25.203   5.042  48.884  1.00  0.00     0.063 A 
HETATM   25  H13 UNL     1      24.505   0.231  52.049  1.00  0.00     0.127 HD
HETATM   26  H14 UNL     1      25.566   3.081  52.849  1.00  0.00     0.077 HD
ENDROOT
TORSDOF 0
ENDMDL
MODEL 8
REMARK VINA RESULT:      -8.1      7.421     10.475
REMARK  0 active torsions:
REMARK  status: ('A' for Active; 'I' for Inactive)
ROOT
HETATM    1  C1  UNL     1      32.907  11.785  45.649  1.00  0.00     0.039 C 
HETATM    2  C2  UNL     1      32.663  10.596  46.523  1.00  0.00     0.007 C 
HETATM    3  C3  UNL     1      31.985   9.972  47.472  1.00  0.00     0.083 C 
HETATM    4  O1  UNL     1      32.005   8.784  48.113  1.00  0.00    -0.309 OA
HETATM    5  C4  UNL     1      32.897   7.772  48.131  1.00  0.00     0.087 A 
HETATM    6  C5  UNL     1      34.175   8.145  48.418  1.00  0.00     0.038 A 
HETATM    7  C6  UNL     1      35.267   7.291  48.498  1.00  0.00     0.004 A 
HETATM    8  C7  UNL     1      35.028   5.935  48.263  1.00  0.00     0.012 A 
HETATM    9  C8  UNL     1      33.724   5.551  47.970  1.00  0.00    -0.023 A 
HETATM   10  C9  UNL     1      33.598   4.192  47.757  1.00  0.00     0.012 A 
HETATM   11  C10 UNL     1      32.372   3.638  47.454  1.00  0.00     0.002 A 
HETATM   12  C11 UNL     1      31.322   4.527  47.385  1.00  0.00     0.009 A 
HETATM   13  C12 UNL     1      31.419   5.861  47.590  1.00  0.00    -0.031 A 
HETATM   14  C13 UNL     1      32.654   6.418  47.895  1.00  0.00     0.015 A 
HETATM   15  C14 UNL     1      30.291   6.783  47.489  1.00  0.00     0.131 C 
HETATM   16  N1  UNL     1      29.912   7.359  48.783  1.00  0.00    -0.295 NA
HETATM   17  P1  UNL     1      28.798   8.663  48.438  1.00  0.00    -0.040 P 
HETATM   18  C15 UNL     1      27.947   8.962  49.790  1.00  0.00    -0.004 C 
HETATM   19  C16 UNL     1      27.491  10.264  49.190  1.00  0.00     0.064 C 
HETATM   20  C17 UNL     1      28.713  11.042  48.857  1.00  0.00    -0.060 A 
HETATM   21  C18 UNL     1      29.610  10.230  48.388  1.00  0.00    -0.005 A 
HETATM   22  C19 UNL     1      30.881  10.778  48.008  1.00  0.00     0.006 A 
HETATM   23  C20 UNL     1      30.732  12.088  48.283  1.00  0.00    -0.007 A 
HETATM   24  C21 UNL     1      29.358  12.390  48.832  1.00  0.00     0.063 A 
HETATM   25  H13 UNL     1      29.515   6.618  49.389  1.00  0.00     0.127 HD
HETATM   26  H14 UNL     1      28.009   8.443  47.317  1.00  0.00     0.077 HD
ENDROOT
TORSDOF 0
ENDMDL
MODEL 9
REMARK VINA RESULT:      -8.1      4.146      7.703
REMARK  0 active torsions:
REMARK  status: ('A' for Active; 'I' for Inactive)
ROOT
HETATM    1  C1  UNL     1      16.723   4.107  51.258  1.00  0.00     0.039 C 
HETATM    2  C2  UNL     1      17.717   2.988  51.234  1.00  0.00     0.007 C 
HETATM    3  C3  UNL     1      18.667   2.293  50.633  1.00  0.00     0.083 C 
HETATM    4  O1  UNL     1      19.454   1.226  50.890  1.00  0.00    -0.309 OA
HETATM    5  C4  UNL     1      19.448   0.304  51.874  1.00  0.00     0.087 A 
HETATM    6  C5  UNL     1      18.250  -0.313  52.070  1.00  0.00     0.038 A 
HETATM    7  C6  UNL     1      17.992  -1.295  53.017  1.00  0.00     0.004 A 
HETATM    8  C7  UNL     1      19.055  -1.678  53.837  1.00  0.00     0.012 A 
HETATM    9  C8  UNL     1      20.280  -1.050  53.640  1.00  0.00    -0.023 A 
HETATM   10  C9  UNL     1      21.261  -1.503  54.501  1.00  0.00     0.012 A 
HETATM   11  C10 UNL     1      22.539  -0.987  54.443  1.00  0.00     0.002 A 
HETATM   12  C11 UNL     1      22.744  -0.015  53.488  1.00  0.00     0.009 A 
HETATM   13  C12 UNL     1      21.800   0.445  52.635  1.00  0.00    -0.031 A 
HETATM   14  C13 UNL     1      20.513  -0.076  52.692  1.00  0.00     0.015 A 
HETATM   15  C14 UNL     1      22.040   1.493  51.646  1.00  0.00     0.131 C 
HETATM   16  N1  UNL     1      21.987   0.994  50.267  1.00  0.00    -0.295 NA
HETATM   17  P1  UNL     1      21.958   2.402  49.232  1.00  0.00    -0.040 P 
HETATM   18  C15 UNL     1      22.445   1.942  47.752  1.00  0.00    -0.004 C 
HETATM   19  C16 UNL     1      21.913   3.236  47.196  1.00  0.00     0.064 C 
HETATM   20  C17 UNL     1      20.471   3.302  47.551  1.00  0.00    -0.060 A 
HETATM   21  C18 UNL     1      20.315   2.836  48.753  1.00  0.00    -0.005 A 
HETATM   22  C19 UNL     1      18.986   2.802  49.293  1.00  0.00     0.006 A 
HETATM   23  C20 UNL     1      18.245   3.311  48.290  1.00  0.00    -0.007 A 
HETATM   24  C21 UNL     1      19.098   3.686  47.101  1.00  0.00     0.063 A 
HETATM   25  H13 UNL     1      22.792   0.364  50.096  1.00  0.00     0.127 HD
HETATM   26  H14 UNL     1      22.661   3.486  49.741  1.00  0.00     0.077 HD
ENDROOT
TORSDOF 0
ENDMDL
