MODEL 1
REMARK VINA RESULT:      -8.2      0.000      0.000
REMARK  6 active torsions:
REMARK  status: ('A' for Active; 'I' for Inactive)
REMARK    1  A    between atoms: N1_2  and  C3_4 
REMARK    2  A    between atoms: C3_4  and  C4_5 
REMARK    3  A    between atoms: C5_6  and  C6_7 
REMARK       I    between atoms: C6_7  and  N2_9 
REMARK    4  A    between atoms: N2_9  and  C7_10 
REMARK    5  A    between atoms: C19_25  and  O2_26 
REMARK    6  A    between atoms: O2_26  and  C20_27 
ROOT
HETATM    1  C7  UNL     1      25.072   1.541  52.339  1.00  0.00     0.065 C 
HETATM    2  C8  UNL     1      23.899   2.052  52.041  1.00  0.00     0.018 C 
HETATM    3  C9  UNL     1      23.905   2.855  50.842  1.00  0.00     0.079 C 
HETATM    4  C10 UNL     1      25.289   3.486  50.658  1.00  0.00     0.047 C 
HETATM    5  N3  UNL     1      25.648   4.650  50.288  1.00  0.00    -0.246 NA
HETATM    6  C11 UNL     1      25.034   5.839  49.905  1.00  0.00     0.228 C 
HETATM    7  N4  UNL     1      23.780   6.344  49.613  1.00  0.00    -0.267 NA
HETATM    8  C12 UNL     1      22.879   5.180  49.788  1.00  0.00     0.089 A 
HETATM    9  C13 UNL     1      22.816   5.410  51.139  1.00  0.00     0.057 A 
HETATM   10  C14 UNL     1      22.858   4.330  51.964  1.00  0.00    -0.029 A 
HETATM   11  C15 UNL     1      22.935   3.954  50.673  1.00  0.00     0.039 A 
HETATM   12  C16 UNL     1      22.990   3.847  49.323  1.00  0.00     0.097 A 
HETATM   13 CL1  UNL     1      23.098   2.623  48.125  1.00  0.00    -0.111 Cl
HETATM   14  C17 UNL     1      22.944   4.901  48.476  1.00  0.00     0.010 A 
HETATM   15  C18 UNL     1      26.541   2.769  51.031  1.00  0.00     0.067 C 
HETATM   16  C19 UNL     1      26.437   1.746  51.933  1.00  0.00     0.097 C 
ENDROOT
BRANCH   1  17
HETATM   17  N2  UNL     1      24.923   0.752  53.530  1.00  0.00    -0.321 N 
HETATM   18  C6  UNL     1      25.174  -0.615  53.913  1.00  0.00     0.245 C 
HETATM   19  O1  UNL     1      25.669  -1.333  53.031  1.00  0.00    -0.268 OA
HETATM   20  H11 UNL     1      24.484   1.239  54.343  1.00  0.00     0.169 HD
BRANCH  18  21
HETATM   21  C5  UNL     1      24.842  -1.036  55.270  1.00  0.00     0.072 C 
HETATM   22  C4  UNL     1      23.578  -1.265  55.552  1.00  0.00     0.008 C 
BRANCH  22  23
HETATM   23  C3  UNL     1      22.234  -1.278  55.011  1.00  0.00     0.299 C 
BRANCH  23  24
HETATM   24  N1  UNL     1      21.880  -0.229  54.105  1.00  0.00     0.083 NA
HETATM   25  C1  UNL     1      21.631  -0.653  52.755  1.00  0.00     0.309 C 
HETATM   26  C2  UNL     1      20.681   0.389  54.635  1.00  0.00     0.309 C 
ENDBRANCH  23  24
ENDBRANCH  22  23
ENDBRANCH  18  21
ENDBRANCH   1  17
BRANCH  16  27
HETATM   27  O2  UNL     1      27.571   1.115  52.283  1.00  0.00    -0.341 OA
BRANCH  27  28
HETATM   28  C20 UNL     1      28.752   1.389  52.883  1.00  0.00     0.154 C 
HETATM   29  C21 UNL     1      29.364   0.113  53.540  1.00  0.00     0.061 C 
HETATM   30  C22 UNL     1      28.548  -0.009  54.823  1.00  0.00     0.170 C 
HETATM   31  O3  UNL     1      27.895   1.199  54.980  1.00  0.00    -0.389 OA
HETATM   32  C23 UNL     1      28.518   2.154  54.184  1.00  0.00     0.200 C 
ENDBRANCH  27  28
ENDBRANCH  16  27
TORSDOF 6
ENDMDL
MODEL 2
REMARK VINA RESULT:      -8.0      2.916      7.406
REMARK  6 active torsions:
REMARK  status: ('A' for Active; 'I' for Inactive)
REMARK    1  A    between atoms: N1_2  and  C3_4 
REMARK    2  A    between atoms: C3_4  and  C4_5 
REMARK    3  A    between atoms: C5_6  and  C6_7 
REMARK       I    between atoms: C6_7  and  N2_9 
REMARK    4  A    between atoms: N2_9  and  C7_10 
REMARK    5  A    between atoms: C19_25  and  O2_26 
REMARK    6  A    between atoms: O2_26  and  C20_27 
ROOT
HETATM    1  C7  UNL     1      24.220   2.202  51.526  1.00  0.00     0.065 C 
HETATM    2  C8  UNL     1      25.498   1.960  51.344  1.00  0.00     0.018 C 
HETATM    3  C9  UNL     1      25.983   0.820  52.085  1.00  0.00     0.079 C 
HETATM    4  C10 UNL     1      25.161   0.658  53.367  1.00  0.00     0.047 C 
HETATM    5  N3  UNL     1      25.497   0.367  54.560  1.00  0.00    -0.246 NA
HETATM    6  C11 UNL     1      26.671   0.078  55.252  1.00  0.00     0.228 C 
HETATM    7  N4  UNL     1      28.014  -0.158  55.021  1.00  0.00    -0.267 NA
HETATM    8  C12 UNL     1      28.144  -0.051  53.548  1.00  0.00     0.089 A 
HETATM    9  C13 UNL     1      28.251   1.314  53.639  1.00  0.00     0.057 A 
HETATM   10  C14 UNL     1      27.596   2.059  52.709  1.00  0.00    -0.029 A 
HETATM   11  C15 UNL     1      27.397   0.745  52.500  1.00  0.00     0.039 A 
HETATM   12  C16 UNL     1      27.362  -0.610  52.508  1.00  0.00     0.097 A 
HETATM   13 CL1  UNL     1      26.679  -1.893  51.596  1.00  0.00    -0.111 Cl
HETATM   14  C17 UNL     1      28.007  -1.380  53.415  1.00  0.00     0.010 A 
HETATM   15  C18 UNL     1      23.703   0.961  53.416  1.00  0.00     0.067 C 
HETATM   16  C19 UNL     1      23.198   1.790  52.452  1.00  0.00     0.097 C 
ENDROOT
BRANCH   1  17
HETATM   17  N2  UNL     1      23.863   3.337  50.721  1.00  0.00    -0.321 N 
HETATM   18  C6  UNL     1      23.469   3.562  49.354  1.00  0.00     0.245 C 
HETATM   19  O1  UNL     1      23.373   2.543  48.652  1.00  0.00    -0.268 OA
HETATM   20  H11 UNL     1      23.935   4.267  51.193  1.00  0.00     0.169 HD
BRANCH  18  21
HETATM   21  C5  UNL     1      23.214   4.929  48.912  1.00  0.00     0.072 C 
HETATM   22  C4  UNL     1      24.186   5.808  49.036  1.00  0.00     0.008 C 
BRANCH  22  23
HETATM   23  C3  UNL     1      25.554   5.996  49.473  1.00  0.00     0.299 C 
BRANCH  23  24
HETATM   24  N1  UNL     1      26.592   5.642  48.554  1.00  0.00     0.083 NA
HETATM   25  C1  UNL     1      27.648   6.609  48.432  1.00  0.00     0.309 C 
HETATM   26  C2  UNL     1      27.151   4.389  49.023  1.00  0.00     0.309 C 
ENDBRANCH  23  24
ENDBRANCH  22  23
ENDBRANCH  18  21
ENDBRANCH   1  17
BRANCH  16  27
HETATM   27  O2  UNL     1      21.887   2.076  52.510  1.00  0.00    -0.341 OA
BRANCH  27  28
HETATM   28  C20 UNL     1      20.695   1.438  52.446  1.00  0.00     0.154 C 
HETATM   29  C21 UNL     1      20.657   0.426  51.258  1.00  0.00     0.061 C 
HETATM   30  C22 UNL     1      20.420   1.345  50.063  1.00  0.00     0.170 C 
HETATM   31  O3  UNL     1      20.030   2.563  50.586  1.00  0.00    -0.389 OA
HETATM   32  C23 UNL     1      19.621   2.378  51.902  1.00  0.00     0.200 C 
ENDBRANCH  27  28
ENDBRANCH  16  27
TORSDOF 6
ENDMDL
MODEL 3
REMARK VINA RESULT:      -8.0      2.648      5.655
REMARK  6 active torsions:
REMARK  status: ('A' for Active; 'I' for Inactive)
REMARK    1  A    between atoms: N1_2  and  C3_4 
REMARK    2  A    between atoms: C3_4  and  C4_5 
REMARK    3  A    between atoms: C5_6  and  C6_7 
REMARK       I    between atoms: C6_7  and  N2_9 
REMARK    4  A    between atoms: N2_9  and  C7_10 
REMARK    5  A    between atoms: C19_25  and  O2_26 
REMARK    6  A    between atoms: O2_26  and  C20_27 
ROOT
HETATM    1  C7  UNL     1      24.776   2.758  51.457  1.00  0.00     0.065 C 
HETATM    2  C8  UNL     1      24.179   1.601  51.627  1.00  0.00     0.018 C 
HETATM    3  C9  UNL     1      22.809   1.583  51.171  1.00  0.00     0.079 C 
HETATM    4  C10 UNL     1      22.211   2.987  51.301  1.00  0.00     0.047 C 
HETATM    5  N3  UNL     1      21.068   3.389  51.692  1.00  0.00    -0.246 NA
HETATM    6  C11 UNL     1      19.888   2.820  52.164  1.00  0.00     0.228 C 
HETATM    7  N4  UNL     1      19.298   1.582  52.341  1.00  0.00    -0.267 NA
HETATM    8  C12 UNL     1      20.317   0.629  51.839  1.00  0.00     0.089 A 
HETATM    9  C13 UNL     1      20.962   0.655  53.050  1.00  0.00     0.057 A 
HETATM   10  C14 UNL     1      22.322   0.684  53.037  1.00  0.00    -0.029 A 
HETATM   11  C15 UNL     1      21.829   0.667  51.784  1.00  0.00     0.039 A 
HETATM   12  C16 UNL     1      21.087   0.640  50.650  1.00  0.00     0.097 A 
HETATM   13 CL1  UNL     1      21.321   0.613  48.951  1.00  0.00    -0.111 Cl
HETATM   14  C17 UNL     1      19.734   0.604  50.630  1.00  0.00     0.010 A 
HETATM   15  C18 UNL     1      23.018   4.216  51.061  1.00  0.00     0.067 C 
HETATM   16  C19 UNL     1      24.378   4.108  51.155  1.00  0.00     0.097 C 
ENDROOT
BRANCH   1  17
HETATM   17  N2  UNL     1      26.128   2.634  51.926  1.00  0.00    -0.321 N 
HETATM   18  C6  UNL     1      26.776   2.452  53.201  1.00  0.00     0.245 C 
HETATM   19  O1  UNL     1      26.017   2.346  54.175  1.00  0.00    -0.268 OA
HETATM   20  H11 UNL     1      26.871   2.739  51.199  1.00  0.00     0.169 HD
BRANCH  18  21
HETATM   21  C5  UNL     1      28.234   2.405  53.246  1.00  0.00     0.072 C 
HETATM   22  C4  UNL     1      28.798   1.420  53.912  1.00  0.00     0.008 C 
BRANCH  22  23
HETATM   23  C3  UNL     1      28.541   0.232  54.700  1.00  0.00     0.299 C 
BRANCH  23  24
HETATM   24  N1  UNL     1      28.458  -1.014  54.002  1.00  0.00     0.083 NA
HETATM   25  C1  UNL     1      27.444  -1.073  52.986  1.00  0.00     0.309 C 
HETATM   26  C2  UNL     1      29.753  -1.233  53.389  1.00  0.00     0.309 C 
ENDBRANCH  23  24
ENDBRANCH  22  23
ENDBRANCH  18  21
ENDBRANCH   1  17
BRANCH  16  27
HETATM   27  O2  UNL     1      25.101   5.222  50.957  1.00  0.00    -0.341 OA
BRANCH  27  28
HETATM   28  C20 UNL     1      25.722   5.874  49.947  1.00  0.00     0.154 C 
HETATM   29  C21 UNL     1      25.846   7.400  50.248  1.00  0.00     0.061 C 
HETATM   30  C22 UNL     1      24.440   7.903  49.932  1.00  0.00     0.170 C 
HETATM   31  O3  UNL     1      23.815   6.887  49.235  1.00  0.00    -0.389 OA
HETATM   32  C23 UNL     1      24.781   6.012  48.751  1.00  0.00     0.200 C 
ENDBRANCH  27  28
ENDBRANCH  16  27
TORSDOF 6
ENDMDL
MODEL 4
REMARK VINA RESULT:      -7.8      2.927      7.221
REMARK  6 active torsions:
REMARK  status: ('A' for Active; 'I' for Inactive)
REMARK    1  A    between atoms: N1_2  and  C3_4 
REMARK    2  A    between atoms: C3_4  and  C4_5 
REMARK    3  A    between atoms: C5_6  and  C6_7 
REMARK       I    between atoms: C6_7  and  N2_9 
REMARK    4  A    between atoms: N2_9  and  C7_10 
REMARK    5  A    between atoms: C19_25  and  O2_26 
REMARK    6  A    between atoms: O2_26  and  C20_27 
ROOT
HETATM    1  C7  UNL     1      23.267   1.232  51.510  1.00  0.00     0.065 C 
HETATM    2  C8  UNL     1      24.554   1.480  51.430  1.00  0.00     0.018 C 
HETATM    3  C9  UNL     1      25.372   0.536  52.153  1.00  0.00     0.079 C 
HETATM    4  C10 UNL     1      24.585  -0.011  53.347  1.00  0.00     0.047 C 
HETATM    5  N3  UNL     1      24.927  -0.256  54.549  1.00  0.00    -0.246 NA
HETATM    6  C11 UNL     1      26.077  -0.158  55.327  1.00  0.00     0.228 C 
HETATM    7  N4  UNL     1      27.426   0.123  55.204  1.00  0.00    -0.267 NA
HETATM    8  C12 UNL     1      27.603   0.386  53.756  1.00  0.00     0.089 A 
HETATM    9  C13 UNL     1      27.199   1.687  53.925  1.00  0.00     0.057 A 
HETATM   10  C14 UNL     1      26.379   2.219  52.979  1.00  0.00    -0.029 A 
HETATM   11  C15 UNL     1      26.686   0.941  52.687  1.00  0.00     0.039 A 
HETATM   12  C16 UNL     1      27.147  -0.332  52.624  1.00  0.00     0.097 A 
HETATM   13 CL1  UNL     1      27.038  -1.699  51.591  1.00  0.00    -0.111 Cl
HETATM   14  C17 UNL     1      27.969  -0.888  53.544  1.00  0.00     0.010 A 
HETATM   15  C18 UNL     1      23.116  -0.257  53.281  1.00  0.00     0.067 C 
HETATM   16  C19 UNL     1      22.407   0.409  52.319  1.00  0.00     0.097 C 
ENDROOT
BRANCH   1  17
HETATM   17  N2  UNL     1      22.574   2.223  50.735  1.00  0.00    -0.321 N 
HETATM   18  C6  UNL     1      21.906   2.268  49.458  1.00  0.00     0.245 C 
HETATM   19  O1  UNL     1      21.870   1.195  48.838  1.00  0.00    -0.268 OA
HETATM   20  H11 UNL     1      22.562   3.187  51.139  1.00  0.00     0.169 HD
BRANCH  18  21
HETATM   21  C5  UNL     1      21.336   3.534  49.009  1.00  0.00     0.072 C 
HETATM   22  C4  UNL     1      22.162   4.523  48.743  1.00  0.00     0.008 C 
BRANCH  22  23
HETATM   23  C3  UNL     1      23.557   4.914  48.705  1.00  0.00     0.299 C 
BRANCH  23  24
HETATM   24  N1  UNL     1      24.325   4.726  49.897  1.00  0.00     0.083 NA
HETATM   25  C1  UNL     1      25.741   4.921  49.742  1.00  0.00     0.309 C 
HETATM   26  C2  UNL     1      23.822   5.677  50.868  1.00  0.00     0.309 C 
ENDBRANCH  23  24
ENDBRANCH  22  23
ENDBRANCH  18  21
ENDBRANCH   1  17
BRANCH  16  27
HETATM   27  O2  UNL     1      21.081   0.200  52.275  1.00  0.00    -0.341 OA
BRANCH  27  28
HETATM   28  C20 UNL     1      19.953   0.651  52.871  1.00  0.00     0.154 C 
HETATM   29  C21 UNL     1      18.793  -0.387  52.749  1.00  0.00     0.061 C 
HETATM   30  C22 UNL     1      18.323  -0.173  51.313  1.00  0.00     0.170 C 
HETATM   31  O3  UNL     1      18.886   1.018  50.897  1.00  0.00    -0.389 OA
HETATM   32  C23 UNL     1      19.301   1.735  52.014  1.00  0.00     0.200 C 
ENDBRANCH  27  28
ENDBRANCH  16  27
TORSDOF 6
ENDMDL
MODEL 5
REMARK VINA RESULT:      -7.6      2.919      7.120
REMARK  6 active torsions:
REMARK  status: ('A' for Active; 'I' for Inactive)
REMARK    1  A    between atoms: N1_2  and  C3_4 
REMARK    2  A    between atoms: C3_4  and  C4_5 
REMARK    3  A    between atoms: C5_6  and  C6_7 
REMARK       I    between atoms: C6_7  and  N2_9 
REMARK    4  A    between atoms: N2_9  and  C7_10 
REMARK    5  A    between atoms: C19_25  and  O2_26 
REMARK    6  A    between atoms: O2_26  and  C20_27 
ROOT
HETATM    1  C7  UNL     1      24.249   1.941  51.165  1.00  0.00     0.065 C 
HETATM    2  C8  UNL     1      25.549   1.762  51.123  1.00  0.00     0.018 C 
HETATM    3  C9  UNL     1      26.014   0.685  51.963  1.00  0.00     0.079 C 
HETATM    4  C10 UNL     1      25.074   0.535  53.164  1.00  0.00     0.047 C 
HETATM    5  N3  UNL     1      25.302   0.315  54.397  1.00  0.00    -0.246 NA
HETATM    6  C11 UNL     1      26.412   0.123  55.216  1.00  0.00     0.228 C 
HETATM    7  N4  UNL     1      27.782  -0.048  55.131  1.00  0.00    -0.267 NA
HETATM    8  C12 UNL     1      28.056   0.001  53.675  1.00  0.00     0.089 A 
HETATM    9  C13 UNL     1      28.083   1.373  53.709  1.00  0.00     0.057 A 
HETATM   10  C14 UNL     1      27.489   2.039  52.683  1.00  0.00    -0.029 A 
HETATM   11  C15 UNL     1      27.380   0.707  52.520  1.00  0.00     0.039 A 
HETATM   12  C16 UNL     1      27.414  -0.646  52.591  1.00  0.00     0.097 A 
HETATM   13 CL1  UNL     1      26.893  -2.004  51.681  1.00  0.00    -0.111 Cl
HETATM   14  C17 UNL     1      28.002  -1.338  53.595  1.00  0.00     0.010 A 
HETATM   15  C18 UNL     1      23.605   0.758  53.052  1.00  0.00     0.067 C 
HETATM   16  C19 UNL     1      23.159   1.514  52.003  1.00  0.00     0.097 C 
ENDROOT
BRANCH   1  17
HETATM   17  N2  UNL     1      23.918   3.017  50.273  1.00  0.00    -0.321 N 
HETATM   18  C6  UNL     1      23.209   3.157  49.026  1.00  0.00     0.245 C 
HETATM   19  O1  UNL     1      22.715   2.114  48.573  1.00  0.00    -0.268 OA
HETATM   20  H11 UNL     1      24.307   3.953  50.529  1.00  0.00     0.169 HD
BRANCH  18  21
HETATM   21  C5  UNL     1      23.124   4.478  48.411  1.00  0.00     0.072 C 
HETATM   22  C4  UNL     1      22.137   5.267  48.780  1.00  0.00     0.008 C 
BRANCH  22  23
HETATM   23  C3  UNL     1      20.978   5.379  49.642  1.00  0.00     0.299 C 
BRANCH  23  24
HETATM   24  N1  UNL     1      21.162   6.012  50.912  1.00  0.00     0.083 NA
HETATM   25  C1  UNL     1      22.061   5.332  51.803  1.00  0.00     0.309 C 
HETATM   26  C2  UNL     1      21.679   7.339  50.642  1.00  0.00     0.309 C 
ENDBRANCH  23  24
ENDBRANCH  22  23
ENDBRANCH  18  21
ENDBRANCH   1  17
BRANCH  16  27
HETATM   27  O2  UNL     1      21.836   1.729  51.917  1.00  0.00    -0.341 OA
BRANCH  27  28
HETATM   28  C20 UNL     1      20.736   1.668  52.701  1.00  0.00     0.154 C 
HETATM   29  C21 UNL     1      19.996   0.304  52.538  1.00  0.00     0.061 C 
HETATM   30  C22 UNL     1      19.253   0.499  51.220  1.00  0.00     0.170 C 
HETATM   31  O3  UNL     1      19.300   1.853  50.949  1.00  0.00    -0.389 OA
HETATM   32  C23 UNL     1      19.622   2.535  52.116  1.00  0.00     0.200 C 
ENDBRANCH  27  28
ENDBRANCH  16  27
TORSDOF 6
ENDMDL
MODEL 6
REMARK VINA RESULT:      -7.5      2.247      4.961
REMARK  6 active torsions:
REMARK  status: ('A' for Active; 'I' for Inactive)
REMARK    1  A    between atoms: N1_2  and  C3_4 
REMARK    2  A    between atoms: C3_4  and  C4_5 
REMARK    3  A    between atoms: C5_6  and  C6_7 
REMARK       I    between atoms: C6_7  and  N2_9 
REMARK    4  A    between atoms: N2_9  and  C7_10 
REMARK    5  A    between atoms: C19_25  and  O2_26 
REMARK    6  A    between atoms: O2_26  and  C20_27 
ROOT
HETATM    1  C7  UNL     1      23.472   2.514  51.490  1.00  0.00     0.065 C 
HETATM    2  C8  UNL     1      23.892   3.303  50.529  1.00  0.00     0.018 C 
HETATM    3  C9  UNL     1      23.045   4.451  50.309  1.00  0.00     0.079 C 
HETATM    4  C10 UNL     1      21.602   4.098  50.684  1.00  0.00     0.047 C 
HETATM    5  N3  UNL     1      20.490   4.373  50.128  1.00  0.00    -0.246 NA
HETATM    6  C11 UNL     1      20.050   5.062  49.001  1.00  0.00     0.228 C 
HETATM    7  N4  UNL     1      20.534   5.879  47.996  1.00  0.00    -0.267 NA
HETATM    8  C12 UNL     1      21.978   6.002  48.303  1.00  0.00     0.089 A 
HETATM    9  C13 UNL     1      22.234   4.817  47.661  1.00  0.00     0.057 A 
HETATM   10  C14 UNL     1      23.128   3.969  48.238  1.00  0.00    -0.029 A 
HETATM   11  C15 UNL     1      22.973   5.083  48.978  1.00  0.00     0.039 A 
HETATM   12  C16 UNL     1      22.644   6.280  49.522  1.00  0.00     0.097 A 
HETATM   13 CL1  UNL     1      23.044   7.234  50.892  1.00  0.00    -0.111 Cl
HETATM   14  C17 UNL     1      21.764   7.148  48.971  1.00  0.00     0.010 A 
HETATM   15  C18 UNL     1      21.279   3.191  51.821  1.00  0.00     0.067 C 
HETATM   16  C19 UNL     1      22.260   2.338  52.247  1.00  0.00     0.097 C 
ENDROOT
BRANCH   1  17
HETATM   17  N2  UNL     1      24.409   1.433  51.620  1.00  0.00    -0.321 N 
HETATM   18  C6  UNL     1      25.767   1.280  52.079  1.00  0.00     0.245 C 
HETATM   19  O1  UNL     1      26.305   2.313  52.504  1.00  0.00    -0.268 OA
HETATM   20  H11 UNL     1      24.083   0.506  51.264  1.00  0.00     0.169 HD
BRANCH  18  21
HETATM   21  C5  UNL     1      26.386  -0.040  52.014  1.00  0.00     0.072 C 
HETATM   22  C4  UNL     1      27.067  -0.454  53.061  1.00  0.00     0.008 C 
BRANCH  22  23
HETATM   23  C3  UNL     1      27.497  -0.103  54.399  1.00  0.00     0.299 C 
BRANCH  23  24
HETATM   24  N1  UNL     1      28.903   0.048  54.619  1.00  0.00     0.083 NA
HETATM   25  C1  UNL     1      29.737  -0.785  53.798  1.00  0.00     0.309 C 
HETATM   26  C2  UNL     1      29.217   1.438  54.353  1.00  0.00     0.309 C 
ENDBRANCH  23  24
ENDBRANCH  22  23
ENDBRANCH  18  21
ENDBRANCH   1  17
BRANCH  16  27
HETATM   27  O2  UNL     1      21.959   1.509  53.259  1.00  0.00    -0.341 OA
BRANCH  27  28
HETATM   28  C20 UNL     1      21.274   0.362  53.475  1.00  0.00     0.154 C 
HETATM   29  C21 UNL     1      21.652  -0.275  54.849  1.00  0.00     0.061 C 
HETATM   30  C22 UNL     1      22.992  -0.935  54.538  1.00  0.00     0.170 C 
HETATM   31  O3  UNL     1      23.100  -0.956  53.161  1.00  0.00    -0.389 OA
HETATM   32  C23 UNL     1      21.839  -0.761  52.607  1.00  0.00     0.200 C 
ENDBRANCH  27  28
ENDBRANCH  16  27
TORSDOF 6
ENDMDL
MODEL 7
REMARK VINA RESULT:      -7.4      2.988      7.163
REMARK  6 active torsions:
REMARK  status: ('A' for Active; 'I' for Inactive)
REMARK    1  A    between atoms: N1_2  and  C3_4 
REMARK    2  A    between atoms: C3_4  and  C4_5 
REMARK    3  A    between atoms: C5_6  and  C6_7 
REMARK       I    between atoms: C6_7  and  N2_9 
REMARK    4  A    between atoms: N2_9  and  C7_10 
REMARK    5  A    between atoms: C19_25  and  O2_26 
REMARK    6  A    between atoms: O2_26  and  C20_27 
ROOT
HETATM    1  C7  UNL     1      24.494   2.106  51.153  1.00  0.00     0.065 C 
HETATM    2  C8  UNL     1      25.787   1.878  51.138  1.00  0.00     0.018 C 
HETATM    3  C9  UNL     1      26.195   0.799  52.005  1.00  0.00     0.079 C 
HETATM    4  C10 UNL     1      25.230   0.705  53.190  1.00  0.00     0.047 C 
HETATM    5  N3  UNL     1      25.427   0.497  54.431  1.00  0.00    -0.246 NA
HETATM    6  C11 UNL     1      26.514   0.278  55.272  1.00  0.00     0.228 C 
HETATM    7  N4  UNL     1      27.878   0.054  55.216  1.00  0.00    -0.267 NA
HETATM    8  C12 UNL     1      28.179   0.068  53.765  1.00  0.00     0.089 A 
HETATM    9  C13 UNL     1      28.258   1.437  53.776  1.00  0.00     0.057 A 
HETATM   10  C14 UNL     1      27.708   2.108  52.728  1.00  0.00    -0.029 A 
HETATM   11  C15 UNL     1      27.551   0.779  52.585  1.00  0.00     0.039 A 
HETATM   12  C16 UNL     1      27.532  -0.574  52.680  1.00  0.00     0.097 A 
HETATM   13 CL1  UNL     1      26.976  -1.926  51.782  1.00  0.00    -0.111 Cl
HETATM   14  C17 UNL     1      28.075  -1.270  53.705  1.00  0.00     0.010 A 
HETATM   15  C18 UNL     1      23.773   0.981  53.048  1.00  0.00     0.067 C 
HETATM   16  C19 UNL     1      23.374   1.735  51.978  1.00  0.00     0.097 C 
ENDROOT
BRANCH   1  17
HETATM   17  N2  UNL     1      24.220   3.179  50.238  1.00  0.00    -0.321 N 
HETATM   18  C6  UNL     1      23.928   4.587  50.339  1.00  0.00     0.245 C 
HETATM   19  O1  UNL     1      23.924   5.048  51.490  1.00  0.00    -0.268 OA
HETATM   20  H11 UNL     1      24.165   2.911  49.229  1.00  0.00     0.169 HD
BRANCH  18  21
HETATM   21  C5  UNL     1      23.673   5.341  49.116  1.00  0.00     0.072 C 
HETATM   22  C4  UNL     1      22.590   5.050  48.427  1.00  0.00     0.008 C 
BRANCH  22  23
HETATM   23  C3  UNL     1      21.418   4.201  48.380  1.00  0.00     0.299 C 
BRANCH  23  24
HETATM   24  N1  UNL     1      21.348   3.234  47.328  1.00  0.00     0.083 NA
HETATM   25  C1  UNL     1      21.849   3.683  46.059  1.00  0.00     0.309 C 
HETATM   26  C2  UNL     1      22.124   2.090  47.764  1.00  0.00     0.309 C 
ENDBRANCH  23  24
ENDBRANCH  22  23
ENDBRANCH  18  21
ENDBRANCH   1  17
BRANCH  16  27
HETATM   27  O2  UNL     1      22.062   1.998  51.864  1.00  0.00    -0.341 OA
BRANCH  27  28
HETATM   28  C20 UNL     1      20.889   1.616  52.419  1.00  0.00     0.154 C 
HETATM   29  C21 UNL     1      20.292   0.374  51.686  1.00  0.00     0.061 C 
HETATM   30  C22 UNL     1      19.688   1.002  50.434  1.00  0.00     0.170 C 
HETATM   31  O3  UNL     1      19.650   2.364  50.666  1.00  0.00    -0.389 OA
HETATM   32  C23 UNL     1      19.779   2.592  52.032  1.00  0.00     0.200 C 
ENDBRANCH  27  28
ENDBRANCH  16  27
TORSDOF 6
ENDMDL
MODEL 8
REMARK VINA RESULT:      -7.3      3.495      6.461
REMARK  6 active torsions:
REMARK  status: ('A' for Active; 'I' for Inactive)
REMARK    1  A    between atoms: N1_2  and  C3_4 
REMARK    2  A    between atoms: C3_4  and  C4_5 
REMARK    3  A    between atoms: C5_6  and  C6_7 
REMARK       I    between atoms: C6_7  and  N2_9 
REMARK    4  A    between atoms: N2_9  and  C7_10 
REMARK    5  A    between atoms: C19_25  and  O2_26 
REMARK    6  A    between atoms: O2_26  and  C20_27 
ROOT
HETATM    1  C7  UNL     1      23.651   1.651  52.203  1.00  0.00     0.065 C 
HETATM    2  C8  UNL     1      24.366   0.557  52.325  1.00  0.00     0.018 C 
HETATM    3  C9  UNL     1      25.363   0.629  53.367  1.00  0.00     0.079 C 
HETATM    4  C10 UNL     1      25.816   2.083  53.537  1.00  0.00     0.047 C 
HETATM    5  N3  UNL     1      26.965   2.596  53.726  1.00  0.00    -0.246 NA
HETATM    6  C11 UNL     1      28.278   2.150  53.856  1.00  0.00     0.228 C 
HETATM    7  N4  UNL     1      28.998   0.975  53.968  1.00  0.00    -0.267 NA
HETATM    8  C12 UNL     1      27.960  -0.081  53.933  1.00  0.00     0.089 A 
HETATM    9  C13 UNL     1      27.950  -0.050  52.561  1.00  0.00     0.057 A 
HETATM   10  C14 UNL     1      26.743  -0.133  51.938  1.00  0.00    -0.029 A 
HETATM   11  C15 UNL     1      26.599  -0.171  53.276  1.00  0.00     0.039 A 
HETATM   12  C16 UNL     1      26.729  -0.192  54.626  1.00  0.00     0.097 A 
HETATM   13 CL1  UNL     1      25.738  -0.322  56.020  1.00  0.00    -0.111 Cl
HETATM   14  C17 UNL     1      27.914  -0.117  55.274  1.00  0.00     0.010 A 
HETATM   15  C18 UNL     1      24.876   3.228  53.380  1.00  0.00     0.067 C 
HETATM   16  C19 UNL     1      23.732   3.012  52.661  1.00  0.00     0.097 C 
ENDROOT
BRANCH   1  17
HETATM   17  N2  UNL     1      22.689   1.438  51.156  1.00  0.00    -0.321 N 
HETATM   18  C6  UNL     1      21.451   0.715  51.010  1.00  0.00     0.245 C 
HETATM   19  O1  UNL     1      21.055   0.125  52.026  1.00  0.00    -0.268 OA
HETATM   20  H11 UNL     1      22.926   1.862  50.231  1.00  0.00     0.169 HD
BRANCH  18  21
HETATM   21  C5  UNL     1      20.776   0.735  49.717  1.00  0.00     0.072 C 
HETATM   22  C4  UNL     1      19.545   1.199  49.671  1.00  0.00     0.008 C 
BRANCH  22  23
HETATM   23  C3  UNL     1      18.470   1.765  50.461  1.00  0.00     0.299 C 
BRANCH  23  24
HETATM   24  N1  UNL     1      17.327   0.940  50.702  1.00  0.00     0.083 NA
HETATM   25  C1  UNL     1      17.588  -0.249  51.465  1.00  0.00     0.309 C 
HETATM   26  C2  UNL     1      16.368   1.759  51.418  1.00  0.00     0.309 C 
ENDBRANCH  23  24
ENDBRANCH  22  23
ENDBRANCH  18  21
ENDBRANCH   1  17
BRANCH  16  27
HETATM   27  O2  UNL     1      22.897   4.053  52.505  1.00  0.00    -0.341 OA
BRANCH  27  28
HETATM   28  C20 UNL     1      22.821   5.210  51.808  1.00  0.00     0.154 C 
HETATM   29  C21 UNL     1      21.365   5.481  51.315  1.00  0.00     0.061 C 
HETATM   30  C22 UNL     1      21.257   4.552  50.110  1.00  0.00     0.170 C 
HETATM   31  O3  UNL     1      22.547   4.157  49.812  1.00  0.00    -0.389 OA
HETATM   32  C23 UNL     1      23.439   5.032  50.422  1.00  0.00     0.200 C 
ENDBRANCH  27  28
ENDBRANCH  16  27
TORSDOF 6
ENDMDL
MODEL 9
REMARK VINA RESULT:      -7.2      8.078     11.824
REMARK  6 active torsions:
REMARK  status: ('A' for Active; 'I' for Inactive)
REMARK    1  A    between atoms: N1_2  and  C3_4 
REMARK    2  A    between atoms: C3_4  and  C4_5 
REMARK    3  A    between atoms: C5_6  and  C6_7 
REMARK       I    between atoms: C6_7  and  N2_9 
REMARK    4  A    between atoms: N2_9  and  C7_10 
REMARK    5  A    between atoms: C19_25  and  O2_26 
REMARK    6  A    between atoms: O2_26  and  C20_27 
ROOT
HETATM    1  C7  UNL     1      31.335   7.991  47.988  1.00  0.00     0.065 C 
HETATM    2  C8  UNL     1      32.571   7.800  47.589  1.00  0.00     0.018 C 
HETATM    3  C9  UNL     1      32.792   6.511  46.979  1.00  0.00     0.079 C 
HETATM    4  C10 UNL     1      31.822   5.490  47.582  1.00  0.00     0.047 C 
HETATM    5  N3  UNL     1      31.980   4.278  47.939  1.00  0.00    -0.246 NA
HETATM    6  C11 UNL     1      33.014   3.346  47.971  1.00  0.00     0.228 C 
HETATM    7  N4  UNL     1      34.320   3.188  47.546  1.00  0.00    -0.267 NA
HETATM    8  C12 UNL     1      34.622   4.461  46.849  1.00  0.00     0.089 A 
HETATM    9  C13 UNL     1      34.930   5.063  48.043  1.00  0.00     0.057 A 
HETATM   10  C14 UNL     1      34.502   6.340  48.233  1.00  0.00    -0.029 A 
HETATM   11  C15 UNL     1      34.124   5.879  47.026  1.00  0.00     0.039 A 
HETATM   12  C16 UNL     1      33.878   5.187  45.887  1.00  0.00     0.097 A 
HETATM   13 CL1  UNL     1      33.105   5.419  44.372  1.00  0.00    -0.111 Cl
HETATM   14  C17 UNL     1      34.296   3.919  45.665  1.00  0.00     0.010 A 
HETATM   15  C18 UNL     1      30.432   5.855  47.975  1.00  0.00     0.067 C 
HETATM   16  C19 UNL     1      30.168   7.177  48.206  1.00  0.00     0.097 C 
ENDROOT
BRANCH   1  17
HETATM   17  N2  UNL     1      31.246   9.310  48.550  1.00  0.00    -0.321 N 
HETATM   18  C6  UNL     1      30.777  10.600  48.112  1.00  0.00     0.245 C 
HETATM   19  O1  UNL     1      30.291  10.631  46.971  1.00  0.00    -0.268 OA
HETATM   20  H11 UNL     1      31.655   9.423  49.505  1.00  0.00     0.169 HD
BRANCH  18  21
HETATM   21  C5  UNL     1      30.900  11.737  49.018  1.00  0.00     0.072 C 
HETATM   22  C4  UNL     1      29.851  12.514  49.179  1.00  0.00     0.008 C 
BRANCH  22  23
HETATM   23  C3  UNL     1      28.472  12.726  48.788  1.00  0.00     0.299 C 
BRANCH  23  24
HETATM   24  N1  UNL     1      28.177  13.903  48.031  1.00  0.00     0.083 NA
HETATM   25  C1  UNL     1      28.573  13.851  46.651  1.00  0.00     0.309 C 
HETATM   26  C2  UNL     1      26.742  14.093  48.102  1.00  0.00     0.309 C 
ENDBRANCH  23  24
ENDBRANCH  22  23
ENDBRANCH  18  21
ENDBRANCH   1  17
BRANCH  16  27
HETATM   27  O2  UNL     1      28.918   7.500  48.579  1.00  0.00    -0.341 OA
BRANCH  27  28
HETATM   28  C20 UNL     1      27.824   8.112  48.072  1.00  0.00     0.154 C 
HETATM   29  C21 UNL     1      27.333   9.263  49.005  1.00  0.00     0.061 C 
HETATM   30  C22 UNL     1      26.602   8.495  50.102  1.00  0.00     0.170 C 
HETATM   31  O3  UNL     1      26.424   7.212  49.620  1.00  0.00    -0.389 OA
HETATM   32  C23 UNL     1      26.594   7.221  48.240  1.00  0.00     0.200 C 
ENDBRANCH  27  28
ENDBRANCH  16  27
TORSDOF 6
ENDMDL
