MODEL 1
REMARK VINA RESULT:     -10.4      0.000      0.000
REMARK  0 active torsions:
REMARK  status: ('A' for Active; 'I' for Inactive)
ROOT
HETATM    1  C1  UNL     1      24.770   2.834  50.573  1.00  0.00     0.050 C 
HETATM    2  C2  UNL     1      25.436   4.099  50.212  1.00  0.00    -0.038 C 
HETATM    3  C3  UNL     1      24.741   5.005  50.927  1.00  0.00     0.041 C 
HETATM    4  C4  UNL     1      23.596   5.026  51.882  1.00  0.00     0.332 C 
HETATM    5  N1  UNL     1      22.625   5.904  51.195  1.00  0.00     0.121 N 
HETATM    6  C5  UNL     1      21.740   5.095  50.421  1.00  0.00     0.314 C 
HETATM    7  C6  UNL     1      23.471   6.716  50.387  1.00  0.00     0.369 C 
HETATM    8  N2  UNL     1      24.788   6.451  51.047  1.00  0.00    -0.355 N 
HETATM    9  S1  UNL     1      23.665   5.975  48.719  1.00  0.00    -0.183 SA
HETATM   10  C7  UNL     1      24.526   7.204  47.703  1.00  0.00     0.195 C 
HETATM   11  C8  UNL     1      25.669   7.800  47.267  1.00  0.00     0.064 C 
HETATM   12  C9  UNL     1      27.066   7.650  47.494  1.00  0.00     0.247 C 
HETATM   13  O1  UNL     1      27.551   8.622  46.893  1.00  0.00    -0.268 OA
HETATM   14  N3  UNL     1      28.282   7.123  47.919  1.00  0.00    -0.283 N 
HETATM   15  C10 UNL     1      29.249   8.131  48.362  1.00  0.00     0.051 A 
HETATM   16  C11 UNL     1      28.519   9.261  48.731  1.00  0.00     0.031 A 
HETATM   17  C12 UNL     1      29.243  10.348  49.272  1.00  0.00     0.002 A 
HETATM   18  C13 UNL     1      30.636  10.288  49.435  1.00  0.00     0.001 A 
HETATM   19  C14 UNL     1      31.363   9.166  49.073  1.00  0.00     0.014 A 
HETATM   20  C15 UNL     1      30.632   8.127  48.542  1.00  0.00     0.004 A 
HETATM   21  C16 UNL     1      31.408   6.962  48.161  1.00  0.00     0.016 A 
HETATM   22  C17 UNL     1      32.641   7.472  47.727  1.00  0.00    -0.048 A 
HETATM   23  C18 UNL     1      32.991   8.857  47.402  1.00  0.00     0.049 C 
HETATM   24  C19 UNL     1      33.607   6.470  47.463  1.00  0.00     0.008 A 
HETATM   25  C20 UNL     1      33.282   5.118  47.640  1.00  0.00     0.003 A 
HETATM   26  C21 UNL     1      32.047   4.703  48.063  1.00  0.00     0.038 A 
HETATM   27  C22 UNL     1      31.058   5.631  48.336  1.00  0.00     0.083 A 
HETATM   28  O2  UNL     1      29.734   5.371  48.759  1.00  0.00    -0.321 OA
HETATM   29  C23 UNL     1      28.508   5.708  48.060  1.00  0.00     0.262 C 
HETATM   30  C24 UNL     1      27.537   4.816  48.664  1.00  0.00     0.028 C 
HETATM   31  C25 UNL     1      26.553   4.237  49.342  1.00  0.00     0.009 C 
HETATM   32  H10 UNL     1      25.574   6.988  51.490  1.00  0.00     0.162 HD
ENDROOT
TORSDOF 0
ENDMDL
MODEL 2
REMARK VINA RESULT:     -10.1      7.531      9.896
REMARK  0 active torsions:
REMARK  status: ('A' for Active; 'I' for Inactive)
ROOT
HETATM    1  C1  UNL     1      21.980   4.222  46.125  1.00  0.00     0.050 C 
HETATM    2  C2  UNL     1      21.546   3.572  47.376  1.00  0.00    -0.038 C 
HETATM    3  C3  UNL     1      20.298   3.166  47.073  1.00  0.00     0.041 C 
HETATM    4  C4  UNL     1      19.366   3.213  45.910  1.00  0.00     0.332 C 
HETATM    5  N1  UNL     1      18.208   3.949  46.459  1.00  0.00     0.121 N 
HETATM    6  C5  UNL     1      18.365   5.338  46.169  1.00  0.00     0.314 C 
HETATM    7  C6  UNL     1      18.305   3.668  47.852  1.00  0.00     0.369 C 
HETATM    8  N2  UNL     1      19.242   2.501  47.813  1.00  0.00    -0.355 N 
HETATM    9  S1  UNL     1      19.275   4.975  48.702  1.00  0.00    -0.183 SA
HETATM   10  C7  UNL     1      19.112   4.667  50.480  1.00  0.00     0.195 C 
HETATM   11  C8  UNL     1      19.495   4.029  51.619  1.00  0.00     0.064 C 
HETATM   12  C9  UNL     1      20.476   3.066  51.986  1.00  0.00     0.247 C 
HETATM   13  O1  UNL     1      20.183   2.806  53.164  1.00  0.00    -0.268 OA
HETATM   14  N3  UNL     1      21.582   2.223  51.924  1.00  0.00    -0.283 N 
HETATM   15  C10 UNL     1      21.391   0.934  52.595  1.00  0.00     0.051 A 
HETATM   16  C11 UNL     1      20.016   0.701  52.645  1.00  0.00     0.031 A 
HETATM   17  C12 UNL     1      19.592  -0.535  53.185  1.00  0.00     0.002 A 
HETATM   18  C13 UNL     1      20.515  -1.486  53.645  1.00  0.00     0.001 A 
HETATM   19  C14 UNL     1      21.880  -1.258  53.593  1.00  0.00     0.014 A 
HETATM   20  C15 UNL     1      22.264  -0.044  53.070  1.00  0.00     0.004 A 
HETATM   21  C16 UNL     1      23.696   0.182  53.029  1.00  0.00     0.016 A 
HETATM   22  C17 UNL     1      24.202  -0.479  54.159  1.00  0.00    -0.048 A 
HETATM   23  C18 UNL     1      23.467  -1.004  55.312  1.00  0.00     0.049 C 
HETATM   24  C19 UNL     1      25.617  -0.513  54.209  1.00  0.00     0.008 A 
HETATM   25  C20 UNL     1      26.370   0.084  53.189  1.00  0.00     0.003 A 
HETATM   26  C21 UNL     1      25.795   0.718  52.119  1.00  0.00     0.038 A 
HETATM   27  C22 UNL     1      24.417   0.789  52.011  1.00  0.00     0.083 A 
HETATM   28  O2  UNL     1      23.671   1.418  50.988  1.00  0.00    -0.321 OA
HETATM   29  C23 UNL     1      22.747   2.528  51.135  1.00  0.00     0.262 C 
HETATM   30  C24 UNL     1      22.663   3.057  49.788  1.00  0.00     0.028 C 
HETATM   31  C25 UNL     1      22.328   3.424  48.556  1.00  0.00     0.009 C 
HETATM   32  H10 UNL     1      19.280   1.505  48.144  1.00  0.00     0.162 HD
ENDROOT
TORSDOF 0
ENDMDL
MODEL 3
REMARK VINA RESULT:     -10.0      3.554      8.339
REMARK  0 active torsions:
REMARK  status: ('A' for Active; 'I' for Inactive)
ROOT
HETATM    1  C1  UNL     1      23.521   8.904  48.706  1.00  0.00     0.050 C 
HETATM    2  C2  UNL     1      24.188   7.747  49.334  1.00  0.00    -0.038 C 
HETATM    3  C3  UNL     1      25.268   8.312  49.905  1.00  0.00     0.041 C 
HETATM    4  C4  UNL     1      25.876   9.667  50.037  1.00  0.00     0.332 C 
HETATM    5  N1  UNL     1      27.206   9.482  49.419  1.00  0.00     0.121 N 
HETATM    6  C5  UNL     1      27.126   9.841  48.039  1.00  0.00     0.314 C 
HETATM    7  C6  UNL     1      27.435   8.089  49.608  1.00  0.00     0.369 C 
HETATM    8  N2  UNL     1      26.402   7.799  50.652  1.00  0.00    -0.355 N 
HETATM    9  S1  UNL     1      26.854   7.141  48.148  1.00  0.00    -0.183 SA
HETATM   10  C7  UNL     1      27.429   5.438  48.375  1.00  0.00     0.195 C 
HETATM   11  C8  UNL     1      27.282   4.190  48.896  1.00  0.00     0.064 C 
HETATM   12  C9  UNL     1      26.331   3.515  49.711  1.00  0.00     0.247 C 
HETATM   13  O1  UNL     1      26.884   2.427  49.940  1.00  0.00    -0.268 OA
HETATM   14  N3  UNL     1      25.164   3.233  50.414  1.00  0.00    -0.283 N 
HETATM   15  C10 UNL     1      25.383   2.522  51.678  1.00  0.00     0.051 A 
HETATM   16  C11 UNL     1      26.693   2.792  52.074  1.00  0.00     0.031 A 
HETATM   17  C12 UNL     1      27.109   2.271  53.321  1.00  0.00     0.002 A 
HETATM   18  C13 UNL     1      26.238   1.519  54.125  1.00  0.00     0.001 A 
HETATM   19  C14 UNL     1      24.936   1.255  53.736  1.00  0.00     0.014 A 
HETATM   20  C15 UNL     1      24.561   1.768  52.515  1.00  0.00     0.004 A 
HETATM   21  C16 UNL     1      23.197   1.475  52.118  1.00  0.00     0.016 A 
HETATM   22  C17 UNL     1      22.928   0.205  52.649  1.00  0.00    -0.048 A 
HETATM   23  C18 UNL     1      23.871  -0.774  53.195  1.00  0.00     0.049 C 
HETATM   24  C19 UNL     1      21.576  -0.194  52.507  1.00  0.00     0.008 A 
HETATM   25  C20 UNL     1      20.655   0.657  51.880  1.00  0.00     0.003 A 
HETATM   26  C21 UNL     1      21.004   1.885  51.381  1.00  0.00     0.038 A 
HETATM   27  C22 UNL     1      22.309   2.333  51.484  1.00  0.00     0.083 A 
HETATM   28  O2  UNL     1      22.834   3.556  51.009  1.00  0.00    -0.321 OA
HETATM   29  C23 UNL     1      23.875   3.735  50.013  1.00  0.00     0.262 C 
HETATM   30  C24 UNL     1      23.670   5.101  49.574  1.00  0.00     0.028 C 
HETATM   31  C25 UNL     1      23.719   6.404  49.320  1.00  0.00     0.009 C 
HETATM   32  H10 UNL     1      26.345   7.387  51.617  1.00  0.00     0.162 HD
ENDROOT
TORSDOF 0
ENDMDL
MODEL 4
REMARK VINA RESULT:      -9.7      4.336      8.266
REMARK  0 active torsions:
REMARK  status: ('A' for Active; 'I' for Inactive)
ROOT
HETATM    1  C1  UNL     1      26.252   7.794  47.237  1.00  0.00     0.050 C 
HETATM    2  C2  UNL     1      25.227   6.964  47.899  1.00  0.00    -0.038 C 
HETATM    3  C3  UNL     1      24.153   7.145  47.107  1.00  0.00     0.041 C 
HETATM    4  C4  UNL     1      23.800   7.895  45.867  1.00  0.00     0.332 C 
HETATM    5  N1  UNL     1      22.696   8.766  46.325  1.00  0.00     0.121 N 
HETATM    6  C5  UNL     1      23.238  10.024  46.726  1.00  0.00     0.314 C 
HETATM    7  C6  UNL     1      22.164   8.027  47.421  1.00  0.00     0.369 C 
HETATM    8  N2  UNL     1      22.777   6.688  47.149  1.00  0.00    -0.355 N 
HETATM    9  S1  UNL     1      22.955   8.554  48.992  1.00  0.00    -0.183 SA
HETATM   10  C7  UNL     1      22.030   7.756  50.330  1.00  0.00     0.195 C 
HETATM   11  C8  UNL     1      21.782   6.688  51.135  1.00  0.00     0.064 C 
HETATM   12  C9  UNL     1      22.312   5.379  51.310  1.00  0.00     0.247 C 
HETATM   13  O1  UNL     1      21.523   4.866  52.120  1.00  0.00    -0.268 OA
HETATM   14  N3  UNL     1      23.151   4.273  51.207  1.00  0.00    -0.283 N 
HETATM   15  C10 UNL     1      22.446   2.989  51.166  1.00  0.00     0.051 A 
HETATM   16  C11 UNL     1      21.152   3.250  50.715  1.00  0.00     0.031 A 
HETATM   17  C12 UNL     1      20.302   2.137  50.517  1.00  0.00     0.002 A 
HETATM   18  C13 UNL     1      20.745   0.827  50.761  1.00  0.00     0.001 A 
HETATM   19  C14 UNL     1      22.031   0.566  51.206  1.00  0.00     0.014 A 
HETATM   20  C15 UNL     1      22.833   1.669  51.396  1.00  0.00     0.004 A 
HETATM   21  C16 UNL     1      24.173   1.379  51.869  1.00  0.00     0.016 A 
HETATM   22  C17 UNL     1      24.033   0.251  52.691  1.00  0.00    -0.048 A 
HETATM   23  C18 UNL     1      22.806  -0.332  53.238  1.00  0.00     0.049 C 
HETATM   24  C19 UNL     1      25.268  -0.291  53.124  1.00  0.00     0.008 A 
HETATM   25  C20 UNL     1      26.474   0.304  52.727  1.00  0.00     0.003 A 
HETATM   26  C21 UNL     1      26.522   1.414  51.925  1.00  0.00     0.038 A 
HETATM   27  C22 UNL     1      25.351   1.994  51.469  1.00  0.00     0.083 A 
HETATM   28  O2  UNL     1      25.226   3.144  50.656  1.00  0.00    -0.321 OA
HETATM   29  C23 UNL     1      24.571   4.392  50.999  1.00  0.00     0.262 C 
HETATM   30  C24 UNL     1      25.147   5.329  50.054  1.00  0.00     0.028 C 
HETATM   31  C25 UNL     1      25.419   6.173  49.066  1.00  0.00     0.009 C 
HETATM   32  H10 UNL     1      22.473   5.692  47.009  1.00  0.00     0.162 HD
ENDROOT
TORSDOF 0
ENDMDL
MODEL 5
REMARK VINA RESULT:      -9.3      3.709      6.331
REMARK  0 active torsions:
REMARK  status: ('A' for Active; 'I' for Inactive)
ROOT
HETATM    1  C1  UNL     1      23.276  -0.530  53.076  1.00  0.00     0.050 C 
HETATM    2  C2  UNL     1      22.932   0.725  52.381  1.00  0.00    -0.038 C 
HETATM    3  C3  UNL     1      21.824   1.123  53.035  1.00  0.00     0.041 C 
HETATM    4  C4  UNL     1      20.968   0.650  54.162  1.00  0.00     0.332 C 
HETATM    5  N1  UNL     1      19.647   0.497  53.515  1.00  0.00     0.121 N 
HETATM    6  C5  UNL     1      19.506  -0.852  53.069  1.00  0.00     0.314 C 
HETATM    7  C6  UNL     1      19.730   1.423  52.436  1.00  0.00     0.369 C 
HETATM    8  N2  UNL     1      20.905   2.235  52.886  1.00  0.00    -0.355 N 
HETATM    9  S1  UNL     1      20.338   0.585  50.920  1.00  0.00    -0.183 SA
HETATM   10  C7  UNL     1      20.153   1.772  49.563  1.00  0.00     0.195 C 
HETATM   11  C8  UNL     1      20.608   2.823  48.830  1.00  0.00     0.064 C 
HETATM   12  C9  UNL     1      21.758   3.661  48.825  1.00  0.00     0.247 C 
HETATM   13  O1  UNL     1      21.468   4.526  47.983  1.00  0.00    -0.268 OA
HETATM   14  N3  UNL     1      23.026   4.159  49.111  1.00  0.00    -0.283 N 
HETATM   15  C10 UNL     1      23.091   5.622  49.186  1.00  0.00     0.051 A 
HETATM   16  C11 UNL     1      21.803   6.073  49.472  1.00  0.00     0.031 A 
HETATM   17  C12 UNL     1      21.636   7.463  49.672  1.00  0.00     0.002 A 
HETATM   18  C13 UNL     1      22.723   8.347  49.589  1.00  0.00     0.001 A 
HETATM   19  C14 UNL     1      24.003   7.901  49.309  1.00  0.00     0.014 A 
HETATM   20  C15 UNL     1      24.134   6.545  49.112  1.00  0.00     0.004 A 
HETATM   21  C16 UNL     1      25.480   6.094  48.813  1.00  0.00     0.016 A 
HETATM   22  C17 UNL     1      26.059   7.142  48.080  1.00  0.00    -0.048 A 
HETATM   23  C18 UNL     1      25.400   8.291  47.455  1.00  0.00     0.049 C 
HETATM   24  C19 UNL     1      27.442   6.960  47.829  1.00  0.00     0.008 A 
HETATM   25  C20 UNL     1      28.096   5.813  48.301  1.00  0.00     0.003 A 
HETATM   26  C21 UNL     1      27.452   4.832  49.006  1.00  0.00     0.038 A 
HETATM   27  C22 UNL     1      26.101   4.946  49.282  1.00  0.00     0.083 A 
HETATM   28  O2  UNL     1      25.288   4.021  49.976  1.00  0.00    -0.321 OA
HETATM   29  C23 UNL     1      24.134   3.308  49.460  1.00  0.00     0.262 C 
HETATM   30  C24 UNL     1      24.006   2.193  50.378  1.00  0.00     0.028 C 
HETATM   31  C25 UNL     1      23.663   1.316  51.314  1.00  0.00     0.009 C 
HETATM   32  H10 UNL     1      21.146   3.240  53.076  1.00  0.00     0.162 HD
ENDROOT
TORSDOF 0
ENDMDL
MODEL 6
REMARK VINA RESULT:      -9.1      6.887     11.563
REMARK  0 active torsions:
REMARK  status: ('A' for Active; 'I' for Inactive)
ROOT
HETATM    1  C1  UNL     1      25.437  -0.751  54.076  1.00  0.00     0.050 C 
HETATM    2  C2  UNL     1      24.480   0.049  53.287  1.00  0.00    -0.038 C 
HETATM    3  C3  UNL     1      25.261   0.557  52.315  1.00  0.00     0.041 C 
HETATM    4  C4  UNL     1      26.692   0.505  51.898  1.00  0.00     0.332 C 
HETATM    5  N1  UNL     1      27.092   1.928  51.953  1.00  0.00     0.121 N 
HETATM    6  C5  UNL     1      27.655   2.197  53.237  1.00  0.00     0.314 C 
HETATM    7  C6  UNL     1      25.852   2.598  51.749  1.00  0.00     0.369 C 
HETATM    8  N2  UNL     1      25.036   1.466  51.206  1.00  0.00    -0.355 N 
HETATM    9  S1  UNL     1      25.055   2.973  53.360  1.00  0.00    -0.183 SA
HETATM   10  C7  UNL     1      23.639   4.045  52.999  1.00  0.00     0.195 C 
HETATM   11  C8  UNL     1      22.342   4.222  52.630  1.00  0.00     0.064 C 
HETATM   12  C9  UNL     1      21.242   3.389  52.283  1.00  0.00     0.247 C 
HETATM   13  O1  UNL     1      20.386   4.203  51.903  1.00  0.00    -0.268 OA
HETATM   14  N3  UNL     1      20.452   2.257  52.105  1.00  0.00    -0.283 N 
HETATM   15  C10 UNL     1      19.635   2.282  50.889  1.00  0.00     0.051 A 
HETATM   16  C11 UNL     1      20.255   3.161  50.000  1.00  0.00     0.031 A 
HETATM   17  C12 UNL     1      19.682   3.287  48.714  1.00  0.00     0.002 A 
HETATM   18  C13 UNL     1      18.542   2.555  48.347  1.00  0.00     0.001 A 
HETATM   19  C14 UNL     1      17.927   1.679  49.227  1.00  0.00     0.014 A 
HETATM   20  C15 UNL     1      18.502   1.583  50.474  1.00  0.00     0.004 A 
HETATM   21  C16 UNL     1      17.842   0.667  51.385  1.00  0.00     0.016 A 
HETATM   22  C17 UNL     1      16.480   0.745  51.057  1.00  0.00    -0.048 A 
HETATM   23  C18 UNL     1      15.798   1.742  50.228  1.00  0.00     0.049 C 
HETATM   24  C19 UNL     1      15.679  -0.207  51.733  1.00  0.00     0.008 A 
HETATM   25  C20 UNL     1      16.267  -1.106  52.634  1.00  0.00     0.003 A 
HETATM   26  C21 UNL     1      17.610  -1.111  52.904  1.00  0.00     0.038 A 
HETATM   27  C22 UNL     1      18.448  -0.205  52.278  1.00  0.00     0.083 A 
HETATM   28  O2  UNL     1      19.844  -0.065  52.457  1.00  0.00    -0.321 OA
HETATM   29  C23 UNL     1      20.550   1.100  52.957  1.00  0.00     0.262 C 
HETATM   30  C24 UNL     1      21.822   0.548  53.383  1.00  0.00     0.028 C 
HETATM   31  C25 UNL     1      23.086   0.174  53.542  1.00  0.00     0.009 C 
HETATM   32  H10 UNL     1      24.455   1.243  50.360  1.00  0.00     0.162 HD
ENDROOT
TORSDOF 0
ENDMDL
MODEL 7
REMARK VINA RESULT:      -9.1      2.751      7.631
REMARK  0 active torsions:
REMARK  status: ('A' for Active; 'I' for Inactive)
ROOT
HETATM    1  C1  UNL     1      33.573   5.260  45.713  1.00  0.00     0.050 C 
HETATM    2  C2  UNL     1      32.348   6.011  46.047  1.00  0.00    -0.038 C 
HETATM    3  C3  UNL     1      32.323   6.962  45.094  1.00  0.00     0.041 C 
HETATM    4  C4  UNL     1      33.143   7.382  43.921  1.00  0.00     0.332 C 
HETATM    5  N1  UNL     1      33.509   8.772  44.270  1.00  0.00     0.121 N 
HETATM    6  C5  UNL     1      34.773   8.762  44.933  1.00  0.00     0.314 C 
HETATM    7  C6  UNL     1      32.443   9.157  45.133  1.00  0.00     0.369 C 
HETATM    8  N2  UNL     1      31.450   8.085  44.807  1.00  0.00    -0.355 N 
HETATM    9  S1  UNL     1      32.884   8.821  46.883  1.00  0.00    -0.183 SA
HETATM   10  C7  UNL     1      31.590   9.583  47.898  1.00  0.00     0.195 C 
HETATM   11  C8  UNL     1      30.366   9.550  48.489  1.00  0.00     0.064 C 
HETATM   12  C9  UNL     1      29.288   8.626  48.586  1.00  0.00     0.247 C 
HETATM   13  O1  UNL     1      28.403   9.289  49.151  1.00  0.00    -0.268 OA
HETATM   14  N3  UNL     1      28.551   7.449  48.499  1.00  0.00    -0.283 N 
HETATM   15  C10 UNL     1      27.141   7.649  48.150  1.00  0.00     0.051 A 
HETATM   16  C11 UNL     1      27.055   8.879  47.496  1.00  0.00     0.031 A 
HETATM   17  C12 UNL     1      25.788   9.251  46.991  1.00  0.00     0.002 A 
HETATM   18  C13 UNL     1      24.669   8.418  47.138  1.00  0.00     0.001 A 
HETATM   19  C14 UNL     1      24.753   7.195  47.783  1.00  0.00     0.014 A 
HETATM   20  C15 UNL     1      25.997   6.862  48.271  1.00  0.00     0.004 A 
HETATM   21  C16 UNL     1      26.067   5.582  48.951  1.00  0.00     0.016 A 
HETATM   22  C17 UNL     1      24.817   5.430  49.571  1.00  0.00    -0.048 A 
HETATM   23  C18 UNL     1      23.779   6.440  49.788  1.00  0.00     0.049 C 
HETATM   24  C19 UNL     1      24.627   4.155  50.157  1.00  0.00     0.008 A 
HETATM   25  C20 UNL     1      25.643   3.190  50.085  1.00  0.00     0.003 A 
HETATM   26  C21 UNL     1      26.841   3.424  49.464  1.00  0.00     0.038 A 
HETATM   27  C22 UNL     1      27.091   4.650  48.873  1.00  0.00     0.083 A 
HETATM   28  O2  UNL     1      28.274   5.056  48.212  1.00  0.00    -0.321 OA
HETATM   29  C23 UNL     1      29.156   6.145  48.587  1.00  0.00     0.262 C 
HETATM   30  C24 UNL     1      30.391   5.809  47.906  1.00  0.00     0.028 C 
HETATM   31  C25 UNL     1      31.451   5.716  47.111  1.00  0.00     0.009 C 
HETATM   32  H10 UNL     1      30.456   8.000  44.478  1.00  0.00     0.162 HD
ENDROOT
TORSDOF 0
ENDMDL
MODEL 8
REMARK VINA RESULT:      -8.8      3.398      7.622
REMARK  0 active torsions:
REMARK  status: ('A' for Active; 'I' for Inactive)
ROOT
HETATM    1  C1  UNL     1      28.376   8.799  46.678  1.00  0.00     0.050 C 
HETATM    2  C2  UNL     1      27.137   8.097  47.062  1.00  0.00    -0.038 C 
HETATM    3  C3  UNL     1      26.318   8.371  46.029  1.00  0.00     0.041 C 
HETATM    4  C4  UNL     1      26.364   9.126  44.744  1.00  0.00     0.332 C 
HETATM    5  N1  UNL     1      25.281  10.118  44.918  1.00  0.00     0.121 N 
HETATM    6  C5  UNL     1      25.840  11.321  45.445  1.00  0.00     0.314 C 
HETATM    7  C6  UNL     1      24.419   9.464  45.844  1.00  0.00     0.369 C 
HETATM    8  N2  UNL     1      24.933   8.063  45.727  1.00  0.00    -0.355 N 
HETATM    9  S1  UNL     1      24.850   9.940  47.564  1.00  0.00    -0.183 SA
HETATM   10  C7  UNL     1      23.543   9.275  48.628  1.00  0.00     0.195 C 
HETATM   11  C8  UNL     1      22.991   8.257  49.342  1.00  0.00     0.064 C 
HETATM   12  C9  UNL     1      23.317   6.904  49.638  1.00  0.00     0.247 C 
HETATM   13  O1  UNL     1      22.303   6.495  50.224  1.00  0.00    -0.268 OA
HETATM   14  N3  UNL     1      24.032   5.714  49.741  1.00  0.00    -0.283 N 
HETATM   15  C10 UNL     1      23.225   4.510  49.522  1.00  0.00     0.051 A 
HETATM   16  C11 UNL     1      22.118   4.895  48.764  1.00  0.00     0.031 A 
HETATM   17  C12 UNL     1      21.229   3.874  48.358  1.00  0.00     0.002 A 
HETATM   18  C13 UNL     1      21.455   2.531  48.699  1.00  0.00     0.001 A 
HETATM   19  C14 UNL     1      22.556   2.146  49.447  1.00  0.00     0.014 A 
HETATM   20  C15 UNL     1      23.399   3.163  49.835  1.00  0.00     0.004 A 
HETATM   21  C16 UNL     1      24.542   2.745  50.624  1.00  0.00     0.016 A 
HETATM   22  C17 UNL     1      24.084   1.656  51.381  1.00  0.00    -0.048 A 
HETATM   23  C18 UNL     1      22.704   1.218  51.605  1.00  0.00     0.049 C 
HETATM   24  C19 UNL     1      25.108   0.997  52.104  1.00  0.00     0.008 A 
HETATM   25  C20 UNL     1      26.431   1.454  52.021  1.00  0.00     0.003 A 
HETATM   26  C21 UNL     1      26.794   2.533  51.260  1.00  0.00     0.038 A 
HETATM   27  C22 UNL     1      25.842   3.223  50.531  1.00  0.00     0.083 A 
HETATM   28  O2  UNL     1      26.045   4.361  49.717  1.00  0.00    -0.321 OA
HETATM   29  C23 UNL     1      25.464   5.679  49.892  1.00  0.00     0.262 C 
HETATM   30  C24 UNL     1      26.352   6.528  49.123  1.00  0.00     0.028 C 
HETATM   31  C25 UNL     1      26.949   7.316  48.236  1.00  0.00     0.009 C 
HETATM   32  H10 UNL     1      24.568   7.101  45.512  1.00  0.00     0.162 HD
ENDROOT
TORSDOF 0
ENDMDL
MODEL 9
REMARK VINA RESULT:      -8.6      6.123      9.666
REMARK  0 active torsions:
REMARK  status: ('A' for Active; 'I' for Inactive)
ROOT
HETATM    1  C1  UNL     1      17.998   4.370  45.587  1.00  0.00     0.050 C 
HETATM    2  C2  UNL     1      18.384   3.764  46.875  1.00  0.00    -0.038 C 
HETATM    3  C3  UNL     1      17.408   2.857  47.072  1.00  0.00     0.041 C 
HETATM    4  C4  UNL     1      16.178   2.379  46.376  1.00  0.00     0.332 C 
HETATM    5  N1  UNL     1      15.122   2.652  47.374  1.00  0.00     0.121 N 
HETATM    6  C5  UNL     1      14.562   3.938  47.111  1.00  0.00     0.314 C 
HETATM    7  C6  UNL     1      15.846   2.612  48.599  1.00  0.00     0.369 C 
HETATM    8  N2  UNL     1      17.093   1.924  48.137  1.00  0.00    -0.355 N 
HETATM    9  S1  UNL     1      16.423   4.293  49.057  1.00  0.00    -0.183 SA
HETATM   10  C7  UNL     1      17.089   4.173  50.737  1.00  0.00     0.195 C 
HETATM   11  C8  UNL     1      18.103   3.892  51.600  1.00  0.00     0.064 C 
HETATM   12  C9  UNL     1      19.454   3.457  51.502  1.00  0.00     0.247 C 
HETATM   13  O1  UNL     1      19.767   3.252  52.686  1.00  0.00    -0.268 OA
HETATM   14  N3  UNL     1      20.696   3.128  50.968  1.00  0.00    -0.283 N 
HETATM   15  C10 UNL     1      21.331   1.967  51.598  1.00  0.00     0.051 A 
HETATM   16  C11 UNL     1      20.312   1.211  52.176  1.00  0.00     0.031 A 
HETATM   17  C12 UNL     1      20.681  -0.013  52.781  1.00  0.00     0.002 A 
HETATM   18  C13 UNL     1      22.016  -0.448  52.793  1.00  0.00     0.001 A 
HETATM   19  C14 UNL     1      23.029   0.300  52.215  1.00  0.00     0.014 A 
HETATM   20  C15 UNL     1      22.641   1.489  51.641  1.00  0.00     0.004 A 
HETATM   21  C16 UNL     1      23.714   2.264  51.047  1.00  0.00     0.016 A 
HETATM   22  C17 UNL     1      24.835   2.009  51.852  1.00  0.00    -0.048 A 
HETATM   23  C18 UNL     1      24.884   1.384  53.176  1.00  0.00     0.049 C 
HETATM   24  C19 UNL     1      26.037   2.552  51.337  1.00  0.00     0.008 A 
HETATM   25  C20 UNL     1      26.024   3.268  50.131  1.00  0.00     0.003 A 
HETATM   26  C21 UNL     1      24.880   3.477  49.408  1.00  0.00     0.038 A 
HETATM   27  C22 UNL     1      23.671   2.976  49.857  1.00  0.00     0.083 A 
HETATM   28  O2  UNL     1      22.405   3.118  49.245  1.00  0.00    -0.321 OA
HETATM   29  C23 UNL     1      21.233   3.773  49.797  1.00  0.00     0.262 C 
HETATM   30  C24 UNL     1      20.434   4.049  48.620  1.00  0.00     0.028 C 
HETATM   31  C25 UNL     1      19.537   4.092  47.640  1.00  0.00     0.009 C 
HETATM   32  H10 UNL     1      17.666   1.077  48.378  1.00  0.00     0.162 HD
ENDROOT
TORSDOF 0
ENDMDL
