MODEL 1
REMARK VINA RESULT:      -8.1      0.000      0.000
REMARK  5 active torsions:
REMARK  status: ('A' for Active; 'I' for Inactive)
REMARK    1  A    between atoms: C2_2  and  N6_21 
REMARK    2  A    between atoms: C3_3  and  C4_4 
REMARK    3  A    between atoms: C4_4  and  N1_5 
REMARK    4  A    between atoms: N1_5  and  C5_6 
REMARK    5  A    between atoms: C12_16  and  N5_17 
ROOT
HETATM    1  C5  UNL     1      24.478   0.068  53.425  1.00  0.00     0.154 A 
HETATM    2  N2  UNL     1      24.873   0.924  52.471  1.00  0.00    -0.222 NA
HETATM    3  C6  UNL     1      24.067   1.481  51.554  1.00  0.00     0.236 A 
HETATM    4  N3  UNL     1      22.764   1.145  51.609  1.00  0.00    -0.239 NA
HETATM    5  C7  UNL     1      22.270   0.295  52.529  1.00  0.00     0.099 A 
HETATM    6  C8  UNL     1      23.137  -0.249  53.445  1.00  0.00     0.104 A 
HETATM    7  N4  UNL     1      22.629  -1.133  54.405  1.00  0.00    -0.381 N 
HETATM    8  C9  UNL     1      21.242  -1.517  54.491  1.00  0.00     0.159 A 
HETATM    9  C10 UNL     1      20.397  -0.884  53.478  1.00  0.00    -0.026 A 
HETATM   10  C11 UNL     1      19.050  -1.176  53.476  1.00  0.00     0.033 A 
HETATM   11  C12 UNL     1      18.203  -0.616  52.551  1.00  0.00     0.006 A 
HETATM   12  C13 UNL     1      18.702   0.262  51.596  1.00  0.00     0.024 A 
HETATM   13  C14 UNL     1      20.041   0.596  51.543  1.00  0.00     0.016 A 
HETATM   14  C15 UNL     1      20.842   0.003  52.497  1.00  0.00     0.003 A 
HETATM   15  H9  UNL     1      23.249  -1.553  55.107  1.00  0.00     0.160 HD
ENDROOT
BRANCH   1  16
HETATM   16  N1  UNL     1      25.421  -0.462  54.343  1.00  0.00    -0.369 N 
HETATM   17  H7  UNL     1      25.485  -1.443  54.654  1.00  0.00     0.161 HD
BRANCH  16  18
HETATM   18  C4  UNL     1      26.415   0.420  54.937  1.00  0.00     0.150 C 
BRANCH  18  19
HETATM   19  C3  UNL     1      27.778   0.183  54.456  1.00  0.00     0.019 C 
HETATM   20  C2  UNL     1      29.033   0.423  54.142  1.00  0.00     0.031 C 
HETATM   21  C1  UNL     1      30.158  -0.398  53.566  1.00  0.00     0.070 C 
BRANCH  20  22
HETATM   22  N6  UNL     1      29.352   1.780  54.434  1.00  0.00    -0.229 N 
HETATM   23  F1  UNL     1      28.956   2.899  53.765  1.00  0.00    -0.102 F 
HETATM   24  H17 UNL     1      29.746   2.614  54.887  1.00  0.00     0.199 HD
ENDBRANCH  20  22
ENDBRANCH  18  19
ENDBRANCH  16  18
ENDBRANCH   1  16
BRANCH  11  25
HETATM   25  N5  UNL     1      16.802  -0.793  52.400  1.00  0.00    -0.303 NA
HETATM   26  H13 UNL     1      16.532  -1.334  51.527  1.00  0.00     0.124 HD
HETATM   27  H14 UNL     1      16.148  -1.250  51.707  1.00  0.00     0.124 HD
ENDBRANCH  11  25
TORSDOF 5
ENDMDL
MODEL 2
REMARK VINA RESULT:      -8.1      3.796      5.522
REMARK  5 active torsions:
REMARK  status: ('A' for Active; 'I' for Inactive)
REMARK    1  A    between atoms: C2_2  and  N6_21 
REMARK    2  A    between atoms: C3_3  and  C4_4 
REMARK    3  A    between atoms: C4_4  and  N1_5 
REMARK    4  A    between atoms: N1_5  and  C5_6 
REMARK    5  A    between atoms: C12_16  and  N5_17 
ROOT
HETATM    1  C5  UNL     1      26.117   2.986  51.311  1.00  0.00     0.154 A 
HETATM    2  N2  UNL     1      27.298   2.490  51.707  1.00  0.00    -0.222 NA
HETATM    3  C6  UNL     1      27.457   1.441  52.529  1.00  0.00     0.236 A 
HETATM    4  N3  UNL     1      26.334   0.852  52.983  1.00  0.00    -0.239 NA
HETATM    5  C7  UNL     1      25.101   1.277  52.644  1.00  0.00     0.099 A 
HETATM    6  C8  UNL     1      24.994   2.355  51.800  1.00  0.00     0.104 A 
HETATM    7  N4  UNL     1      23.715   2.800  51.443  1.00  0.00    -0.381 N 
HETATM    8  C9  UNL     1      22.492   2.197  51.912  1.00  0.00     0.159 A 
HETATM    9  C10 UNL     1      22.709   1.055  52.801  1.00  0.00    -0.026 A 
HETATM   10  C11 UNL     1      21.605   0.398  53.300  1.00  0.00     0.033 A 
HETATM   11  C12 UNL     1      21.740  -0.681  54.140  1.00  0.00     0.006 A 
HETATM   12  C13 UNL     1      23.007  -1.126  54.498  1.00  0.00     0.024 A 
HETATM   13  C14 UNL     1      24.153  -0.513  54.032  1.00  0.00     0.016 A 
HETATM   14  C15 UNL     1      23.955   0.564  53.193  1.00  0.00     0.003 A 
HETATM   15  H9  UNL     1      23.599   3.600  50.810  1.00  0.00     0.160 HD
ENDROOT
BRANCH   1  16
HETATM   16  N1  UNL     1      26.069   4.104  50.438  1.00  0.00    -0.369 N 
HETATM   17  H7  UNL     1      25.443   4.918  50.525  1.00  0.00     0.161 HD
BRANCH  16  18
HETATM   18  C4  UNL     1      26.966   4.157  49.294  1.00  0.00     0.150 C 
BRANCH  18  19
HETATM   19  C3  UNL     1      27.025   5.470  48.648  1.00  0.00     0.019 C 
HETATM   20  C2  UNL     1      27.046   6.779  48.517  1.00  0.00     0.031 C 
HETATM   21  C1  UNL     1      27.137   7.727  47.349  1.00  0.00     0.070 C 
BRANCH  20  22
HETATM   22  N6  UNL     1      26.963   7.393  49.799  1.00  0.00    -0.229 N 
HETATM   23  F1  UNL     1      25.952   7.305  50.710  1.00  0.00    -0.102 F 
HETATM   24  H17 UNL     1      27.194   7.949  50.632  1.00  0.00     0.199 HD
ENDBRANCH  20  22
ENDBRANCH  18  19
ENDBRANCH  16  18
ENDBRANCH   1  16
BRANCH  11  25
HETATM   25  N5  UNL     1      20.729  -1.475  54.742  1.00  0.00    -0.303 NA
HETATM   26  H13 UNL     1      19.787  -0.991  54.807  1.00  0.00     0.124 HD
HETATM   27  H14 UNL     1      19.706  -1.376  54.986  1.00  0.00     0.124 HD
ENDBRANCH  11  25
TORSDOF 5
ENDMDL
MODEL 3
REMARK VINA RESULT:      -8.0      3.072      4.584
REMARK  5 active torsions:
REMARK  status: ('A' for Active; 'I' for Inactive)
REMARK    1  A    between atoms: C2_2  and  N6_21 
REMARK    2  A    between atoms: C3_3  and  C4_4 
REMARK    3  A    between atoms: C4_4  and  N1_5 
REMARK    4  A    between atoms: N1_5  and  C5_6 
REMARK    5  A    between atoms: C12_16  and  N5_17 
ROOT
HETATM    1  C5  UNL     1      25.923   1.738  52.268  1.00  0.00     0.154 A 
HETATM    2  N2  UNL     1      26.774   0.827  52.763  1.00  0.00    -0.222 NA
HETATM    3  C6  UNL     1      26.415  -0.292  53.410  1.00  0.00     0.236 A 
HETATM    4  N3  UNL     1      25.094  -0.503  53.566  1.00  0.00    -0.239 NA
HETATM    5  C7  UNL     1      24.160   0.351  53.105  1.00  0.00     0.099 A 
HETATM    6  C8  UNL     1      24.581   1.482  52.451  1.00  0.00     0.104 A 
HETATM    7  N4  UNL     1      23.616   2.375  51.968  1.00  0.00    -0.381 N 
HETATM    8  C9  UNL     1      22.195   2.183  52.120  1.00  0.00     0.159 A 
HETATM    9  C10 UNL     1      21.845   0.950  52.825  1.00  0.00    -0.026 A 
HETATM   10  C11 UNL     1      20.511   0.663  53.017  1.00  0.00     0.033 A 
HETATM   11  C12 UNL     1      20.116  -0.478  53.672  1.00  0.00     0.006 A 
HETATM   12  C13 UNL     1      21.070  -1.366  54.154  1.00  0.00     0.024 A 
HETATM   13  C14 UNL     1      22.423  -1.138  53.994  1.00  0.00     0.016 A 
HETATM   14  C15 UNL     1      22.758   0.022  53.329  1.00  0.00     0.003 A 
HETATM   15  H9  UNL     1      23.896   3.228  51.470  1.00  0.00     0.160 HD
ENDROOT
BRANCH   1  16
HETATM   16  N1  UNL     1      26.418   2.888  51.602  1.00  0.00    -0.369 N 
HETATM   17  H7  UNL     1      26.724   3.766  52.047  1.00  0.00     0.161 HD
BRANCH  16  18
HETATM   18  C4  UNL     1      26.523   2.886  50.150  1.00  0.00     0.150 C 
BRANCH  18  19
HETATM   19  C3  UNL     1      26.331   4.203  49.541  1.00  0.00     0.019 C 
HETATM   20  C2  UNL     1      26.626   5.364  48.995  1.00  0.00     0.031 C 
HETATM   21  C1  UNL     1      25.820   6.525  48.472  1.00  0.00     0.070 C 
BRANCH  20  22
HETATM   22  N6  UNL     1      28.039   5.505  48.899  1.00  0.00    -0.229 N 
HETATM   23  F1  UNL     1      28.907   4.778  48.140  1.00  0.00    -0.102 F 
HETATM   24  H17 UNL     1      28.998   5.844  49.045  1.00  0.00     0.199 HD
ENDBRANCH  20  22
ENDBRANCH  18  19
ENDBRANCH  16  18
ENDBRANCH   1  16
BRANCH  11  25
HETATM   25  N5  UNL     1      18.802  -0.935  53.956  1.00  0.00    -0.303 NA
HETATM   26  H13 UNL     1      18.060  -0.179  53.881  1.00  0.00     0.124 HD
HETATM   27  H14 UNL     1      17.828  -0.526  53.993  1.00  0.00     0.124 HD
ENDBRANCH  11  25
TORSDOF 5
ENDMDL
MODEL 4
REMARK VINA RESULT:      -7.9      2.584      3.729
REMARK  5 active torsions:
REMARK  status: ('A' for Active; 'I' for Inactive)
REMARK    1  A    between atoms: C2_2  and  N6_21 
REMARK    2  A    between atoms: C3_3  and  C4_4 
REMARK    3  A    between atoms: C4_4  and  N1_5 
REMARK    4  A    between atoms: N1_5  and  C5_6 
REMARK    5  A    between atoms: C12_16  and  N5_17 
ROOT
HETATM    1  C5  UNL     1      25.957   1.594  53.856  1.00  0.00     0.154 A 
HETATM    2  N2  UNL     1      25.754   0.474  54.566  1.00  0.00    -0.222 NA
HETATM    3  C6  UNL     1      24.741  -0.386  54.375  1.00  0.00     0.236 A 
HETATM    4  N3  UNL     1      23.871  -0.088  53.392  1.00  0.00    -0.239 NA
HETATM    5  C7  UNL     1      23.989   1.012  52.623  1.00  0.00     0.099 A 
HETATM    6  C8  UNL     1      25.042   1.860  52.860  1.00  0.00     0.104 A 
HETATM    7  N4  UNL     1      25.171   3.005  52.064  1.00  0.00    -0.381 N 
HETATM    8  C9  UNL     1      24.257   3.357  51.006  1.00  0.00     0.159 A 
HETATM    9  C10 UNL     1      23.172   2.392  50.828  1.00  0.00    -0.026 A 
HETATM   10  C11 UNL     1      22.245   2.627  49.835  1.00  0.00     0.033 A 
HETATM   11  C12 UNL     1      21.202   1.761  49.616  1.00  0.00     0.006 A 
HETATM   12  C13 UNL     1      21.070   0.623  50.404  1.00  0.00     0.024 A 
HETATM   13  C14 UNL     1      21.964   0.329  51.414  1.00  0.00     0.016 A 
HETATM   14  C15 UNL     1      22.989   1.235  51.586  1.00  0.00     0.003 A 
HETATM   15  H9  UNL     1      25.950   3.659  52.211  1.00  0.00     0.160 HD
ENDROOT
BRANCH   1  16
HETATM   16  N1  UNL     1      27.064   2.432  54.147  1.00  0.00    -0.369 N 
HETATM   17  H7  UNL     1      27.099   3.164  54.873  1.00  0.00     0.161 HD
BRANCH  16  18
HETATM   18  C4  UNL     1      28.291   2.292  53.378  1.00  0.00     0.150 C 
BRANCH  18  19
HETATM   19  C3  UNL     1      28.940   0.988  53.531  1.00  0.00     0.019 C 
HETATM   20  C2  UNL     1      29.111  -0.316  53.489  1.00  0.00     0.031 C 
HETATM   21  C1  UNL     1      30.229  -1.251  53.868  1.00  0.00     0.070 C 
BRANCH  20  22
HETATM   22  N6  UNL     1      27.946  -0.937  52.954  1.00  0.00    -0.229 N 
HETATM   23  F1  UNL     1      27.205  -0.549  51.879  1.00  0.00    -0.102 F 
HETATM   24  H17 UNL     1      27.164  -1.589  52.817  1.00  0.00     0.199 HD
ENDBRANCH  20  22
ENDBRANCH  18  19
ENDBRANCH  16  18
ENDBRANCH   1  16
BRANCH  11  25
HETATM   25  N5  UNL     1      20.166   1.836  48.649  1.00  0.00    -0.303 NA
HETATM   26  H13 UNL     1      20.197   1.058  47.927  1.00  0.00     0.124 HD
HETATM   27  H14 UNL     1      19.852   1.287  47.802  1.00  0.00     0.124 HD
ENDBRANCH  11  25
TORSDOF 5
ENDMDL
MODEL 5
REMARK VINA RESULT:      -7.9      3.035      5.455
REMARK  5 active torsions:
REMARK  status: ('A' for Active; 'I' for Inactive)
REMARK    1  A    between atoms: C2_2  and  N6_21 
REMARK    2  A    between atoms: C3_3  and  C4_4 
REMARK    3  A    between atoms: C4_4  and  N1_5 
REMARK    4  A    between atoms: N1_5  and  C5_6 
REMARK    5  A    between atoms: C12_16  and  N5_17 
ROOT
HETATM    1  C5  UNL     1      25.868   2.792  50.739  1.00  0.00     0.154 A 
HETATM    2  N2  UNL     1      27.054   2.629  51.345  1.00  0.00    -0.222 NA
HETATM    3  C6  UNL     1      27.273   1.845  52.411  1.00  0.00     0.236 A 
HETATM    4  N3  UNL     1      26.210   1.176  52.899  1.00  0.00    -0.239 NA
HETATM    5  C7  UNL     1      24.979   1.273  52.361  1.00  0.00     0.099 A 
HETATM    6  C8  UNL     1      24.809   2.090  51.271  1.00  0.00     0.104 A 
HETATM    7  N4  UNL     1      23.531   2.195  50.707  1.00  0.00    -0.381 N 
HETATM    8  C9  UNL     1      22.372   1.498  51.204  1.00  0.00     0.159 A 
HETATM    9  C10 UNL     1      22.654   0.650  52.363  1.00  0.00    -0.026 A 
HETATM   10  C11 UNL     1      21.616  -0.070  52.914  1.00  0.00     0.033 A 
HETATM   11  C12 UNL     1      21.814  -0.884  54.003  1.00  0.00     0.006 A 
HETATM   12  C13 UNL     1      23.079  -0.990  54.567  1.00  0.00     0.024 A 
HETATM   13  C14 UNL     1      24.162  -0.296  54.063  1.00  0.00     0.016 A 
HETATM   14  C15 UNL     1      23.902   0.503  52.971  1.00  0.00     0.003 A 
HETATM   15  H9  UNL     1      23.370   2.793  49.888  1.00  0.00     0.160 HD
ENDROOT
BRANCH   1  16
HETATM   16  N1  UNL     1      25.754   3.652  49.616  1.00  0.00    -0.369 N 
HETATM   17  H7  UNL     1      25.634   3.359  48.635  1.00  0.00     0.161 HD
BRANCH  16  18
HETATM   18  C4  UNL     1      25.807   5.093  49.809  1.00  0.00     0.150 C 
BRANCH  18  19
HETATM   19  C3  UNL     1      24.541   5.677  50.258  1.00  0.00     0.019 C 
HETATM   20  C2  UNL     1      23.583   6.064  51.072  1.00  0.00     0.031 C 
HETATM   21  C1  UNL     1      22.253   6.751  50.894  1.00  0.00     0.070 C 
BRANCH  20  22
HETATM   22  N6  UNL     1      23.931   5.740  52.414  1.00  0.00    -0.229 N 
HETATM   23  F1  UNL     1      23.681   4.584  53.091  1.00  0.00    -0.102 F 
HETATM   24  H17 UNL     1      24.305   5.807  53.369  1.00  0.00     0.199 HD
ENDBRANCH  20  22
ENDBRANCH  18  19
ENDBRANCH  16  18
ENDBRANCH   1  16
BRANCH  11  25
HETATM   25  N5  UNL     1      20.875  -1.694  54.694  1.00  0.00    -0.303 NA
HETATM   26  H13 UNL     1      20.755  -2.662  54.274  1.00  0.00     0.124 HD
HETATM   27  H14 UNL     1      20.482  -2.671  54.609  1.00  0.00     0.124 HD
ENDBRANCH  11  25
TORSDOF 5
ENDMDL
MODEL 6
REMARK VINA RESULT:      -7.8      4.088      6.665
REMARK  5 active torsions:
REMARK  status: ('A' for Active; 'I' for Inactive)
REMARK    1  A    between atoms: C2_2  and  N6_21 
REMARK    2  A    between atoms: C3_3  and  C4_4 
REMARK    3  A    between atoms: C4_4  and  N1_5 
REMARK    4  A    between atoms: N1_5  and  C5_6 
REMARK    5  A    between atoms: C12_16  and  N5_17 
ROOT
HETATM    1  C5  UNL     1      25.952   3.610  50.156  1.00  0.00     0.154 A 
HETATM    2  N2  UNL     1      24.797   3.606  49.475  1.00  0.00    -0.222 NA
HETATM    3  C6  UNL     1      23.731   2.846  49.770  1.00  0.00     0.236 A 
HETATM    4  N3  UNL     1      23.845   2.030  50.835  1.00  0.00    -0.239 NA
HETATM    5  C7  UNL     1      24.963   1.962  51.583  1.00  0.00     0.099 A 
HETATM    6  C8  UNL     1      26.026   2.760  51.238  1.00  0.00     0.104 A 
HETATM    7  N4  UNL     1      27.191   2.694  52.013  1.00  0.00    -0.381 N 
HETATM    8  C9  UNL     1      27.350   1.831  53.156  1.00  0.00     0.159 A 
HETATM    9  C10 UNL     1      26.164   1.024  53.447  1.00  0.00    -0.026 A 
HETATM   10  C11 UNL     1      26.205   0.169  54.527  1.00  0.00     0.033 A 
HETATM   11  C12 UNL     1      25.126  -0.617  54.853  1.00  0.00     0.006 A 
HETATM   12  C13 UNL     1      23.968  -0.556  54.087  1.00  0.00     0.024 A 
HETATM   13  C14 UNL     1      23.862   0.280  52.993  1.00  0.00     0.016 A 
HETATM   14  C15 UNL     1      24.976   1.044  52.715  1.00  0.00     0.003 A 
HETATM   15  H9  UNL     1      28.002   3.281  51.786  1.00  0.00     0.160 HD
ENDROOT
BRANCH   1  16
HETATM   16  N1  UNL     1      27.016   4.456  49.751  1.00  0.00    -0.369 N 
HETATM   17  H7  UNL     1      27.980   4.441  50.116  1.00  0.00     0.161 HD
BRANCH  16  18
HETATM   18  C4  UNL     1      26.780   5.464  48.728  1.00  0.00     0.150 C 
BRANCH  18  19
HETATM   19  C3  UNL     1      25.988   6.605  49.192  1.00  0.00     0.019 C 
HETATM   20  C2  UNL     1      25.678   7.710  49.836  1.00  0.00     0.031 C 
HETATM   21  C1  UNL     1      24.448   8.576  49.924  1.00  0.00     0.070 C 
BRANCH  20  22
HETATM   22  N6  UNL     1      26.792   8.145  50.608  1.00  0.00    -0.229 N 
HETATM   23  F1  UNL     1      27.318   9.399  50.692  1.00  0.00    -0.102 F 
HETATM   24  H17 UNL     1      27.596   8.144  51.248  1.00  0.00     0.199 HD
ENDBRANCH  20  22
ENDBRANCH  18  19
ENDBRANCH  16  18
ENDBRANCH   1  16
BRANCH  11  25
HETATM   25  N5  UNL     1      24.986  -1.543  55.920  1.00  0.00    -0.303 NA
HETATM   26  H13 UNL     1      24.008  -1.573  56.334  1.00  0.00     0.124 HD
HETATM   27  H14 UNL     1      24.219  -1.866  56.572  1.00  0.00     0.124 HD
ENDBRANCH  11  25
TORSDOF 5
ENDMDL
MODEL 7
REMARK VINA RESULT:      -7.7      1.264      2.539
REMARK  5 active torsions:
REMARK  status: ('A' for Active; 'I' for Inactive)
REMARK    1  A    between atoms: C2_2  and  N6_21 
REMARK    2  A    between atoms: C3_3  and  C4_4 
REMARK    3  A    between atoms: C4_4  and  N1_5 
REMARK    4  A    between atoms: N1_5  and  C5_6 
REMARK    5  A    between atoms: C12_16  and  N5_17 
ROOT
HETATM    1  C5  UNL     1      23.784  -0.153  53.482  1.00  0.00     0.154 A 
HETATM    2  N2  UNL     1      23.391  -0.865  54.548  1.00  0.00    -0.222 NA
HETATM    3  C6  UNL     1      22.129  -1.251  54.795  1.00  0.00     0.236 A 
HETATM    4  N3  UNL     1      21.197  -0.886  53.893  1.00  0.00    -0.239 NA
HETATM    5  C7  UNL     1      21.492  -0.171  52.791  1.00  0.00     0.099 A 
HETATM    6  C8  UNL     1      22.798   0.199  52.585  1.00  0.00     0.104 A 
HETATM    7  N4  UNL     1      23.111   0.943  51.441  1.00  0.00    -0.381 N 
HETATM    8  C9  UNL     1      22.140   1.353  50.457  1.00  0.00     0.159 A 
HETATM    9  C10 UNL     1      20.779   0.909  50.761  1.00  0.00    -0.026 A 
HETATM   10  C11 UNL     1      19.773   1.240  49.879  1.00  0.00     0.033 A 
HETATM   11  C12 UNL     1      18.474   0.854  50.106  1.00  0.00     0.006 A 
HETATM   12  C13 UNL     1      18.158   0.116  51.241  1.00  0.00     0.024 A 
HETATM   13  C14 UNL     1      19.119  -0.248  52.163  1.00  0.00     0.016 A 
HETATM   14  C15 UNL     1      20.404   0.167  51.882  1.00  0.00     0.003 A 
HETATM   15  H9  UNL     1      24.078   1.232  51.254  1.00  0.00     0.160 HD
ENDROOT
BRANCH   1  16
HETATM   16  N1  UNL     1      25.148   0.201  53.325  1.00  0.00    -0.369 N 
HETATM   17  H7  UNL     1      25.626   0.406  52.434  1.00  0.00     0.161 HD
BRANCH  16  18
HETATM   18  C4  UNL     1      26.003   0.296  54.498  1.00  0.00     0.150 C 
BRANCH  18  19
HETATM   19  C3  UNL     1      27.418   0.039  54.223  1.00  0.00     0.019 C 
HETATM   20  C2  UNL     1      28.719   0.230  54.174  1.00  0.00     0.031 C 
HETATM   21  C1  UNL     1      29.890  -0.568  53.663  1.00  0.00     0.070 C 
BRANCH  20  22
HETATM   22  N6  UNL     1      29.042   1.492  54.750  1.00  0.00    -0.229 N 
HETATM   23  F1  UNL     1      29.147   2.699  54.125  1.00  0.00    -0.102 F 
HETATM   24  H17 UNL     1      29.289   2.218  55.434  1.00  0.00     0.199 HD
ENDBRANCH  20  22
ENDBRANCH  18  19
ENDBRANCH  16  18
ENDBRANCH   1  16
BRANCH  11  25
HETATM   25  N5  UNL     1      17.319   1.096  49.316  1.00  0.00    -0.303 NA
HETATM   26  H13 UNL     1      16.470   0.533  49.616  1.00  0.00     0.124 HD
HETATM   27  H14 UNL     1      16.318   0.759  49.280  1.00  0.00     0.124 HD
ENDBRANCH  11  25
TORSDOF 5
ENDMDL
MODEL 8
REMARK VINA RESULT:      -7.7      2.847      7.999
REMARK  5 active torsions:
REMARK  status: ('A' for Active; 'I' for Inactive)
REMARK    1  A    between atoms: C2_2  and  N6_21 
REMARK    2  A    between atoms: C3_3  and  C4_4 
REMARK    3  A    between atoms: C4_4  and  N1_5 
REMARK    4  A    between atoms: N1_5  and  C5_6 
REMARK    5  A    between atoms: C12_16  and  N5_17 
ROOT
HETATM    1  C5  UNL     1      21.564   0.459  53.244  1.00  0.00     0.154 A 
HETATM    2  N2  UNL     1      21.360  -0.601  54.040  1.00  0.00    -0.222 NA
HETATM    3  C6  UNL     1      22.325  -1.288  54.671  1.00  0.00     0.236 A 
HETATM    4  N3  UNL     1      23.591  -0.868  54.481  1.00  0.00    -0.239 NA
HETATM    5  C7  UNL     1      23.898   0.186  53.701  1.00  0.00     0.099 A 
HETATM    6  C8  UNL     1      22.874   0.855  53.077  1.00  0.00     0.104 A 
HETATM    7  N4  UNL     1      23.187   1.952  52.266  1.00  0.00    -0.381 N 
HETATM    8  C9  UNL     1      24.529   2.427  52.037  1.00  0.00     0.159 A 
HETATM    9  C10 UNL     1      25.550   1.655  52.746  1.00  0.00    -0.026 A 
HETATM   10  C11 UNL     1      26.868   2.030  52.604  1.00  0.00     0.033 A 
HETATM   11  C12 UNL     1      27.874   1.347  53.242  1.00  0.00     0.006 A 
HETATM   12  C13 UNL     1      27.569   0.257  54.048  1.00  0.00     0.024 A 
HETATM   13  C14 UNL     1      26.269  -0.171  54.233  1.00  0.00     0.016 A 
HETATM   14  C15 UNL     1      25.302   0.554  53.567  1.00  0.00     0.003 A 
HETATM   15  H9  UNL     1      22.445   2.477  51.788  1.00  0.00     0.160 HD
ENDROOT
BRANCH   1  16
HETATM   16  N1  UNL     1      20.465   1.109  52.626  1.00  0.00    -0.369 N 
HETATM   17  H7  UNL     1      20.061   2.017  52.899  1.00  0.00     0.161 HD
BRANCH  16  18
HETATM   18  C4  UNL     1      19.803   0.476  51.495  1.00  0.00     0.150 C 
BRANCH  18  19
HETATM   19  C3  UNL     1      18.533  -0.169  51.837  1.00  0.00     0.019 C 
HETATM   20  C2  UNL     1      17.649  -0.864  52.518  1.00  0.00     0.031 C 
HETATM   21  C1  UNL     1      16.211  -1.258  52.297  1.00  0.00     0.070 C 
BRANCH  20  22
HETATM   22  N6  UNL     1      18.231  -1.325  53.733  1.00  0.00    -0.229 N 
HETATM   23  F1  UNL     1      18.675  -2.579  54.030  1.00  0.00    -0.102 F 
HETATM   24  H17 UNL     1      18.599  -1.346  54.692  1.00  0.00     0.199 HD
ENDBRANCH  20  22
ENDBRANCH  18  19
ENDBRANCH  16  18
ENDBRANCH   1  16
BRANCH  11  25
HETATM   25  N5  UNL     1      29.273   1.588  53.217  1.00  0.00    -0.303 NA
HETATM   26  H13 UNL     1      29.848   0.741  52.937  1.00  0.00     0.124 HD
HETATM   27  H14 UNL     1      30.152   1.041  53.002  1.00  0.00     0.124 HD
ENDBRANCH  11  25
TORSDOF 5
ENDMDL
MODEL 9
REMARK VINA RESULT:      -7.7      3.272      6.807
REMARK  5 active torsions:
REMARK  status: ('A' for Active; 'I' for Inactive)
REMARK    1  A    between atoms: C2_2  and  N6_21 
REMARK    2  A    between atoms: C3_3  and  C4_4 
REMARK    3  A    between atoms: C4_4  and  N1_5 
REMARK    4  A    between atoms: N1_5  and  C5_6 
REMARK    5  A    between atoms: C12_16  and  N5_17 
ROOT
HETATM    1  C5  UNL     1      24.047   3.071  52.823  1.00  0.00     0.154 A 
HETATM    2  N2  UNL     1      22.915   2.487  52.400  1.00  0.00    -0.222 NA
HETATM    3  C6  UNL     1      22.778   1.181  52.126  1.00  0.00     0.236 A 
HETATM    4  N3  UNL     1      23.870   0.409  52.293  1.00  0.00    -0.239 NA
HETATM    5  C7  UNL     1      25.051   0.901  52.712  1.00  0.00     0.099 A 
HETATM    6  C8  UNL     1      25.139   2.245  52.979  1.00  0.00     0.104 A 
HETATM    7  N4  UNL     1      26.365   2.762  53.416  1.00  0.00    -0.381 N 
HETATM    8  C9  UNL     1      27.553   1.967  53.602  1.00  0.00     0.159 A 
HETATM    9  C10 UNL     1      27.360   0.549  53.297  1.00  0.00    -0.026 A 
HETATM   10  C11 UNL     1      28.432  -0.303  53.450  1.00  0.00     0.033 A 
HETATM   11  C12 UNL     1      28.317  -1.645  53.181  1.00  0.00     0.006 A 
HETATM   12  C13 UNL     1      27.103  -2.163  52.746  1.00  0.00     0.024 A 
HETATM   13  C14 UNL     1      25.990  -1.364  52.572  1.00  0.00     0.016 A 
HETATM   14  C15 UNL     1      26.167  -0.026  52.859  1.00  0.00     0.003 A 
HETATM   15  H9  UNL     1      26.464   3.761  53.629  1.00  0.00     0.160 HD
ENDROOT
BRANCH   1  16
HETATM   16  N1  UNL     1      24.076   4.465  53.081  1.00  0.00    -0.369 N 
HETATM   17  H7  UNL     1      24.419   4.919  53.941  1.00  0.00     0.161 HD
BRANCH  16  18
HETATM   18  C4  UNL     1      23.586   5.391  52.071  1.00  0.00     0.150 C 
BRANCH  18  19
HETATM   19  C3  UNL     1      24.457   5.506  50.899  1.00  0.00     0.019 C 
HETATM   20  C2  UNL     1      25.015   5.211  49.745  1.00  0.00     0.031 C 
HETATM   21  C1  UNL     1      26.071   5.853  48.883  1.00  0.00     0.070 C 
BRANCH  20  22
HETATM   22  N6  UNL     1      24.460   4.003  49.237  1.00  0.00    -0.229 N 
HETATM   23  F1  UNL     1      24.724   2.725  49.629  1.00  0.00    -0.102 F 
HETATM   24  H17 UNL     1      23.901   3.344  48.679  1.00  0.00     0.199 HD
ENDBRANCH  20  22
ENDBRANCH  18  19
ENDBRANCH  16  18
ENDBRANCH   1  16
BRANCH  11  25
HETATM   25  N5  UNL     1      29.300  -2.665  53.283  1.00  0.00    -0.303 NA
HETATM   26  H13 UNL     1      29.845  -2.826  52.386  1.00  0.00     0.124 HD
HETATM   27  H14 UNL     1      30.021  -3.115  52.655  1.00  0.00     0.124 HD
ENDBRANCH  11  25
TORSDOF 5
ENDMDL
