MODEL 1
REMARK VINA RESULT:      -8.0      0.000      0.000
REMARK  5 active torsions:
REMARK  status: ('A' for Active; 'I' for Inactive)
REMARK    1  A    between atoms: C2_2  and  C3_3 
REMARK    2  A    between atoms: C10_10  and  C11_11 
REMARK    3  A    between atoms: C10_10  and  C17_19 
REMARK    4  A    between atoms: C11_11  and  C12_12 
REMARK    5  A    between atoms: C15_15  and  S1_16 
ROOT
HETATM    1  C3  UNL     1      19.547  -0.876  53.384  1.00  0.00     0.045 C 
HETATM    2  C4  UNL     1      20.488  -1.665  54.085  1.00  0.00     0.006 C 
HETATM    3  C5  UNL     1      22.000  -1.864  54.425  1.00  0.00     0.040 C 
HETATM    4  C6  UNL     1      22.915  -0.765  54.160  1.00  0.00    -0.023 A 
HETATM    5  C7  UNL     1      22.060  -0.496  53.056  1.00  0.00    -0.006 A 
HETATM    6  C8  UNL     1      22.429   0.778  52.594  1.00  0.00     0.063 A 
HETATM    7  C9  UNL     1      22.149   1.772  51.642  1.00  0.00     0.109 A 
HETATM    8  C10 UNL     1      23.097   1.596  52.708  1.00  0.00     0.010 A 
HETATM    9  C17 UNL     1      23.101   0.442  53.513  1.00  0.00     0.011 A 
HETATM   10  O2  UNL     1      21.023   1.438  50.781  1.00  0.00    -0.351 OA
HETATM   11  C18 UNL     1      20.157   0.320  51.205  1.00  0.00     0.345 C 
HETATM   12  O3  UNL     1      19.572   0.316  52.491  1.00  0.00    -0.331 OA
ENDROOT
BRANCH   8  13
HETATM   13  C11 UNL     1      24.037   2.724  52.897  1.00  0.00     0.053 C 
BRANCH  13  14
HETATM   14  C12 UNL     1      25.151   2.755  51.948  1.00  0.00    -0.038 A 
HETATM   15  C13 UNL     1      25.317   3.170  50.680  1.00  0.00     0.010 A 
HETATM   16  C14 UNL     1      26.709   2.776  50.684  1.00  0.00     0.022 A 
HETATM   17  C15 UNL     1      26.564   2.357  51.949  1.00  0.00     0.037 A 
BRANCH  17  18
HETATM   18  S1  UNL     1      27.636   1.616  53.150  1.00  0.00     0.046 S 
HETATM   19  C16 UNL     1      26.727   0.392  54.100  1.00  0.00     0.133 C 
HETATM   20  O1  UNL     1      28.089   2.690  54.136  1.00  0.00    -0.253 OA
ENDBRANCH  17  18
ENDBRANCH  13  14
ENDBRANCH   8  13
BRANCH   1  21
HETATM   21  C2  UNL     1      18.061  -1.147  53.402  1.00  0.00     0.060 C 
HETATM   22  C1  UNL     1      17.814  -2.615  53.638  1.00  0.00     0.012 C 
ENDBRANCH   1  21
TORSDOF 5
ENDMDL
MODEL 2
REMARK VINA RESULT:      -7.6      1.884      2.867
REMARK  5 active torsions:
REMARK  status: ('A' for Active; 'I' for Inactive)
REMARK    1  A    between atoms: C2_2  and  C3_3 
REMARK    2  A    between atoms: C10_10  and  C11_11 
REMARK    3  A    between atoms: C10_10  and  C17_19 
REMARK    4  A    between atoms: C11_11  and  C12_12 
REMARK    5  A    between atoms: C15_15  and  S1_16 
ROOT
HETATM    1  C3  UNL     1      19.618   0.984  52.185  1.00  0.00     0.045 C 
HETATM    2  C4  UNL     1      19.573  -0.129  53.056  1.00  0.00     0.006 C 
HETATM    3  C5  UNL     1      20.417  -1.193  53.826  1.00  0.00     0.040 C 
HETATM    4  C6  UNL     1      21.845  -0.959  53.979  1.00  0.00    -0.023 A 
HETATM    5  C7  UNL     1      21.746  -0.348  52.699  1.00  0.00    -0.006 A 
HETATM    6  C8  UNL     1      22.956   0.341  52.514  1.00  0.00     0.063 A 
HETATM    7  C9  UNL     1      23.678   1.165  51.634  1.00  0.00     0.109 A 
HETATM    8  C10 UNL     1      23.913   0.561  52.918  1.00  0.00     0.010 A 
HETATM    9  C17 UNL     1      22.939  -0.229  53.555  1.00  0.00     0.011 A 
HETATM   10  O2  UNL     1      22.930   1.514  50.435  1.00  0.00    -0.351 OA
HETATM   11  C18 UNL     1      21.476   1.253  50.446  1.00  0.00     0.345 C 
HETATM   12  O3  UNL     1      20.664   1.775  51.477  1.00  0.00    -0.331 OA
ENDROOT
BRANCH   8  13
HETATM   13  C11 UNL     1      25.238   0.855  53.510  1.00  0.00     0.053 C 
BRANCH  13  14
HETATM   14  C12 UNL     1      26.260  -0.160  53.255  1.00  0.00    -0.038 A 
HETATM   15  C13 UNL     1      26.275  -1.384  52.696  1.00  0.00     0.010 A 
HETATM   16  C14 UNL     1      27.697  -1.522  52.927  1.00  0.00     0.022 A 
HETATM   17  C15 UNL     1      27.703  -0.304  53.488  1.00  0.00     0.037 A 
BRANCH  17  18
HETATM   18  S1  UNL     1      28.942   0.728  54.220  1.00  0.00     0.046 S 
HETATM   19  C16 UNL     1      28.690   2.433  53.709  1.00  0.00     0.133 C 
HETATM   20  O1  UNL     1      30.311   0.309  53.689  1.00  0.00    -0.253 OA
ENDBRANCH  17  18
ENDBRANCH  13  14
ENDBRANCH   8  13
BRANCH   1  21
HETATM   21  C2  UNL     1      18.384   1.716  51.710  1.00  0.00     0.060 C 
HETATM   22  C1  UNL     1      18.681   3.189  51.588  1.00  0.00     0.012 C 
ENDBRANCH   1  21
TORSDOF 5
ENDMDL
MODEL 3
REMARK VINA RESULT:      -7.5      2.749      6.058
REMARK  5 active torsions:
REMARK  status: ('A' for Active; 'I' for Inactive)
REMARK    1  A    between atoms: C2_2  and  C3_3 
REMARK    2  A    between atoms: C10_10  and  C11_11 
REMARK    3  A    between atoms: C10_10  and  C17_19 
REMARK    4  A    between atoms: C11_11  and  C12_12 
REMARK    5  A    between atoms: C15_15  and  S1_16 
ROOT
HETATM    1  C3  UNL     1      25.606  -0.153  54.086  1.00  0.00     0.045 C 
HETATM    2  C4  UNL     1      24.712  -0.906  54.882  1.00  0.00     0.006 C 
HETATM    3  C5  UNL     1      23.218  -1.294  55.119  1.00  0.00     0.040 C 
HETATM    4  C6  UNL     1      22.260  -1.021  54.059  1.00  0.00    -0.023 A 
HETATM    5  C7  UNL     1      23.075   0.115  53.799  1.00  0.00    -0.006 A 
HETATM    6  C8  UNL     1      22.651   0.608  52.553  1.00  0.00     0.063 A 
HETATM    7  C9  UNL     1      22.872   1.599  51.582  1.00  0.00     0.109 A 
HETATM    8  C10 UNL     1      21.960   0.501  51.754  1.00  0.00     0.010 A 
HETATM    9  C17 UNL     1      22.016  -0.341  52.881  1.00  0.00     0.011 A 
HETATM   10  O2  UNL     1      23.984   2.480  51.908  1.00  0.00    -0.351 OA
HETATM   11  C18 UNL     1      24.898   2.045  52.983  1.00  0.00     0.345 C 
HETATM   12  O3  UNL     1      25.518   0.776  52.926  1.00  0.00    -0.331 OA
ENDROOT
BRANCH   8  13
HETATM   13  C11 UNL     1      20.988   0.321  50.652  1.00  0.00     0.053 C 
BRANCH  13  14
HETATM   14  C12 UNL     1      19.601   0.630  51.005  1.00  0.00    -0.038 A 
HETATM   15  C13 UNL     1      18.468  -0.081  51.145  1.00  0.00     0.010 A 
HETATM   16  C14 UNL     1      17.714   1.103  51.494  1.00  0.00     0.022 A 
HETATM   17  C15 UNL     1      18.832   1.830  51.359  1.00  0.00     0.037 A 
BRANCH  17  18
HETATM   18  S1  UNL     1      19.236   3.546  51.533  1.00  0.00     0.046 S 
HETATM   19  C16 UNL     1      19.937   4.162  49.997  1.00  0.00     0.133 C 
HETATM   20  O1  UNL     1      20.318   3.693  52.599  1.00  0.00    -0.253 OA
ENDBRANCH  17  18
ENDBRANCH  13  14
ENDBRANCH   8  13
BRANCH   1  21
HETATM   21  C2  UNL     1      27.101  -0.138  54.308  1.00  0.00     0.060 C 
HETATM   22  C1  UNL     1      27.803  -0.672  53.085  1.00  0.00     0.012 C 
ENDBRANCH   1  21
TORSDOF 5
ENDMDL
MODEL 4
REMARK VINA RESULT:      -7.5      3.245      7.104
REMARK  5 active torsions:
REMARK  status: ('A' for Active; 'I' for Inactive)
REMARK    1  A    between atoms: C2_2  and  C3_3 
REMARK    2  A    between atoms: C10_10  and  C11_11 
REMARK    3  A    between atoms: C10_10  and  C17_19 
REMARK    4  A    between atoms: C11_11  and  C12_12 
REMARK    5  A    between atoms: C15_15  and  S1_16 
ROOT
HETATM    1  C3  UNL     1      24.978   6.323  49.035  1.00  0.00     0.045 C 
HETATM    2  C4  UNL     1      26.168   5.618  48.745  1.00  0.00     0.006 C 
HETATM    3  C5  UNL     1      27.017   4.345  49.059  1.00  0.00     0.040 C 
HETATM    4  C6  UNL     1      26.371   3.242  49.754  1.00  0.00    -0.023 A 
HETATM    5  C7  UNL     1      25.634   4.264  50.411  1.00  0.00    -0.006 A 
HETATM    6  C8  UNL     1      24.579   3.607  51.067  1.00  0.00     0.063 A 
HETATM    7  C9  UNL     1      23.445   3.793  51.875  1.00  0.00     0.109 A 
HETATM    8  C10 UNL     1      24.133   2.671  51.297  1.00  0.00     0.010 A 
HETATM    9  C17 UNL     1      25.278   2.836  50.495  1.00  0.00     0.011 A 
HETATM   10  O2  UNL     1      23.169   5.193  52.160  1.00  0.00    -0.351 OA
HETATM   11  C18 UNL     1      23.873   6.201  51.341  1.00  0.00     0.345 C 
HETATM   12  O3  UNL     1      23.799   6.154  49.930  1.00  0.00    -0.331 OA
ENDROOT
BRANCH   8  13
HETATM   13  C11 UNL     1      23.531   1.351  51.593  1.00  0.00     0.053 C 
BRANCH  13  14
HETATM   14  C12 UNL     1      24.213   0.591  52.641  1.00  0.00    -0.038 A 
HETATM   15  C13 UNL     1      25.483   0.475  53.066  1.00  0.00     0.010 A 
HETATM   16  C14 UNL     1      25.102  -0.471  54.092  1.00  0.00     0.022 A 
HETATM   17  C15 UNL     1      23.829  -0.369  53.683  1.00  0.00     0.037 A 
BRANCH  17  18
HETATM   18  S1  UNL     1      22.293  -1.095  54.186  1.00  0.00     0.046 S 
HETATM   19  C16 UNL     1      21.035   0.181  54.317  1.00  0.00     0.133 C 
HETATM   20  O1  UNL     1      22.462  -1.690  55.582  1.00  0.00    -0.253 OA
ENDBRANCH  17  18
ENDBRANCH  13  14
ENDBRANCH   8  13
BRANCH   1  21
HETATM   21  C2  UNL     1      24.608   7.632  48.377  1.00  0.00     0.060 C 
HETATM   22  C1  UNL     1      25.395   7.801  47.102  1.00  0.00     0.012 C 
ENDBRANCH   1  21
TORSDOF 5
ENDMDL
MODEL 5
REMARK VINA RESULT:      -7.5      2.965      5.164
REMARK  5 active torsions:
REMARK  status: ('A' for Active; 'I' for Inactive)
REMARK    1  A    between atoms: C2_2  and  C3_3 
REMARK    2  A    between atoms: C10_10  and  C11_11 
REMARK    3  A    between atoms: C10_10  and  C17_19 
REMARK    4  A    between atoms: C11_11  and  C12_12 
REMARK    5  A    between atoms: C15_15  and  S1_16 
ROOT
HETATM    1  C3  UNL     1      24.029   0.336  53.573  1.00  0.00     0.045 C 
HETATM    2  C4  UNL     1      22.862   0.901  53.008  1.00  0.00     0.006 C 
HETATM    3  C5  UNL     1      22.305   1.946  51.989  1.00  0.00     0.040 C 
HETATM    4  C6  UNL     1      23.216   2.493  50.996  1.00  0.00    -0.023 A 
HETATM    5  C7  UNL     1      24.194   2.367  52.020  1.00  0.00    -0.006 A 
HETATM    6  C8  UNL     1      25.434   2.549  51.385  1.00  0.00     0.063 A 
HETATM    7  C9  UNL     1      26.824   2.579  51.582  1.00  0.00     0.109 A 
HETATM    8  C10 UNL     1      25.930   2.772  50.473  1.00  0.00     0.010 A 
HETATM    9  C17 UNL     1      24.535   2.655  50.616  1.00  0.00     0.011 A 
HETATM   10  O2  UNL     1      27.214   2.279  52.951  1.00  0.00    -0.351 OA
HETATM   11  C18 UNL     1      26.187   1.686  53.832  1.00  0.00     0.345 C 
HETATM   12  O3  UNL     1      25.502   0.513  53.443  1.00  0.00    -0.331 OA
ENDROOT
BRANCH   8  13
HETATM   13  C11 UNL     1      26.593   3.077  49.184  1.00  0.00     0.053 C 
BRANCH  13  14
HETATM   14  C12 UNL     1      26.884   4.496  48.969  1.00  0.00    -0.038 A 
HETATM   15  C13 UNL     1      27.986   5.214  48.688  1.00  0.00     0.010 A 
HETATM   16  C14 UNL     1      27.234   6.450  48.681  1.00  0.00     0.022 A 
HETATM   17  C15 UNL     1      26.124   5.751  48.961  1.00  0.00     0.037 A 
BRANCH  17  18
HETATM   18  S1  UNL     1      24.421   6.164  49.221  1.00  0.00     0.046 S 
HETATM   19  C16 UNL     1      24.064   6.179  50.983  1.00  0.00     0.133 C 
HETATM   20  O1  UNL     1      23.549   5.072  48.607  1.00  0.00    -0.253 OA
ENDBRANCH  17  18
ENDBRANCH  13  14
ENDBRANCH   8  13
BRANCH   1  21
HETATM   21  C2  UNL     1      23.998  -0.755  54.619  1.00  0.00     0.060 C 
HETATM   22  C1  UNL     1      22.573  -1.183  54.865  1.00  0.00     0.012 C 
ENDBRANCH   1  21
TORSDOF 5
ENDMDL
MODEL 6
REMARK VINA RESULT:      -7.5      3.196      5.850
REMARK  5 active torsions:
REMARK  status: ('A' for Active; 'I' for Inactive)
REMARK    1  A    between atoms: C2_2  and  C3_3 
REMARK    2  A    between atoms: C10_10  and  C11_11 
REMARK    3  A    between atoms: C10_10  and  C17_19 
REMARK    4  A    between atoms: C11_11  and  C12_12 
REMARK    5  A    between atoms: C15_15  and  S1_16 
ROOT
HETATM    1  C3  UNL     1      26.768  -0.386  53.083  1.00  0.00     0.045 C 
HETATM    2  C4  UNL     1      25.771  -0.818  53.987  1.00  0.00     0.006 C 
HETATM    3  C5  UNL     1      24.275  -0.676  54.414  1.00  0.00     0.040 C 
HETATM    4  C6  UNL     1      23.352  -0.040  53.487  1.00  0.00    -0.023 A 
HETATM    5  C7  UNL     1      24.474   0.754  53.124  1.00  0.00    -0.006 A 
HETATM    6  C8  UNL     1      24.102   1.419  51.943  1.00  0.00     0.063 A 
HETATM    7  C9  UNL     1      24.536   2.315  50.952  1.00  0.00     0.109 A 
HETATM    8  C10 UNL     1      23.326   1.594  51.240  1.00  0.00     0.010 A 
HETATM    9  C17 UNL     1      23.221   0.735  52.350  1.00  0.00     0.011 A 
HETATM   10  O2  UNL     1      25.916   2.741  51.131  1.00  0.00    -0.351 OA
HETATM   11  C18 UNL     1      26.744   1.969  52.080  1.00  0.00     0.345 C 
HETATM   12  O3  UNL     1      26.870   0.568  51.943  1.00  0.00    -0.331 OA
ENDROOT
BRANCH   8  13
HETATM   13  C11 UNL     1      22.226   1.811  50.273  1.00  0.00     0.053 C 
BRANCH  13  14
HETATM   14  C12 UNL     1      21.122   2.629  50.777  1.00  0.00    -0.038 A 
HETATM   15  C13 UNL     1      19.803   2.446  50.963  1.00  0.00     0.010 A 
HETATM   16  C14 UNL     1      19.643   3.789  51.476  1.00  0.00     0.022 A 
HETATM   17  C15 UNL     1      20.956   3.992  51.298  1.00  0.00     0.037 A 
BRANCH  17  18
HETATM   18  S1  UNL     1      22.059   5.350  51.574  1.00  0.00     0.046 S 
HETATM   19  C16 UNL     1      23.027   5.654  50.090  1.00  0.00     0.133 C 
HETATM   20  O1  UNL     1      23.048   4.968  52.672  1.00  0.00    -0.253 OA
ENDBRANCH  17  18
ENDBRANCH  13  14
ENDBRANCH   8  13
BRANCH   1  21
HETATM   21  C2  UNL     1      28.190  -0.899  53.110  1.00  0.00     0.060 C 
HETATM   22  C1  UNL     1      28.959  -0.209  54.208  1.00  0.00     0.012 C 
ENDBRANCH   1  21
TORSDOF 5
ENDMDL
MODEL 7
REMARK VINA RESULT:      -7.4      3.239      7.317
REMARK  5 active torsions:
REMARK  status: ('A' for Active; 'I' for Inactive)
REMARK    1  A    between atoms: C2_2  and  C3_3 
REMARK    2  A    between atoms: C10_10  and  C11_11 
REMARK    3  A    between atoms: C10_10  and  C17_19 
REMARK    4  A    between atoms: C11_11  and  C12_12 
REMARK    5  A    between atoms: C15_15  and  S1_16 
ROOT
HETATM    1  C3  UNL     1      25.835   6.957  48.729  1.00  0.00     0.045 C 
HETATM    2  C4  UNL     1      26.938   6.101  48.503  1.00  0.00     0.006 C 
HETATM    3  C5  UNL     1      27.542   4.686  48.771  1.00  0.00     0.040 C 
HETATM    4  C6  UNL     1      26.655   3.640  49.257  1.00  0.00    -0.023 A 
HETATM    5  C7  UNL     1      25.993   4.701  49.933  1.00  0.00    -0.006 A 
HETATM    6  C8  UNL     1      24.775   4.163  50.382  1.00  0.00     0.063 A 
HETATM    7  C9  UNL     1      23.583   4.451  51.067  1.00  0.00     0.109 A 
HETATM    8  C10 UNL     1      24.171   3.293  50.452  1.00  0.00     0.010 A 
HETATM    9  C17 UNL     1      25.424   3.347  49.814  1.00  0.00     0.011 A 
HETATM   10  O2  UNL     1      23.480   5.845  51.472  1.00  0.00    -0.351 OA
HETATM   11  C18 UNL     1      24.426   6.799  50.859  1.00  0.00     0.345 C 
HETATM   12  O3  UNL     1      24.535   6.896  49.454  1.00  0.00    -0.331 OA
ENDROOT
BRANCH   8  13
HETATM   13  C11 UNL     1      23.348   2.064  50.525  1.00  0.00     0.053 C 
BRANCH  13  14
HETATM   14  C12 UNL     1      23.490   1.308  51.771  1.00  0.00    -0.038 A 
HETATM   15  C13 UNL     1      22.675   0.555  52.531  1.00  0.00     0.010 A 
HETATM   16  C14 UNL     1      23.733   0.287  53.480  1.00  0.00     0.022 A 
HETATM   17  C15 UNL     1      24.561   1.034  52.736  1.00  0.00     0.037 A 
BRANCH  17  18
HETATM   18  S1  UNL     1      26.263   1.509  52.857  1.00  0.00     0.046 S 
HETATM   19  C16 UNL     1      27.306   0.047  52.793  1.00  0.00     0.133 C 
HETATM   20  O1  UNL     1      26.499   2.157  54.219  1.00  0.00    -0.253 OA
ENDBRANCH  17  18
ENDBRANCH  13  14
ENDBRANCH   8  13
BRANCH   1  21
HETATM   21  C2  UNL     1      25.752   8.363  48.182  1.00  0.00     0.060 C 
HETATM   22  C1  UNL     1      25.902   8.336  46.682  1.00  0.00     0.012 C 
ENDBRANCH   1  21
TORSDOF 5
ENDMDL
MODEL 8
REMARK VINA RESULT:      -7.3      3.331      6.370
REMARK  5 active torsions:
REMARK  status: ('A' for Active; 'I' for Inactive)
REMARK    1  A    between atoms: C2_2  and  C3_3 
REMARK    2  A    between atoms: C10_10  and  C11_11 
REMARK    3  A    between atoms: C10_10  and  C17_19 
REMARK    4  A    between atoms: C11_11  and  C12_12 
REMARK    5  A    between atoms: C15_15  and  S1_16 
ROOT
HETATM    1  C3  UNL     1      24.525   5.726  49.280  1.00  0.00     0.045 C 
HETATM    2  C4  UNL     1      25.806   5.241  48.929  1.00  0.00     0.006 C 
HETATM    3  C5  UNL     1      26.904   4.173  49.236  1.00  0.00     0.040 C 
HETATM    4  C6  UNL     1      26.533   3.013  50.032  1.00  0.00    -0.023 A 
HETATM    5  C7  UNL     1      25.660   3.917  50.697  1.00  0.00    -0.006 A 
HETATM    6  C8  UNL     1      24.800   3.116  51.466  1.00  0.00     0.063 A 
HETATM    7  C9  UNL     1      23.710   3.135  52.352  1.00  0.00     0.109 A 
HETATM    8  C10 UNL     1      24.560   2.129  51.775  1.00  0.00     0.010 A 
HETATM    9  C17 UNL     1      25.593   2.457  50.877  1.00  0.00     0.011 A 
HETATM   10  O2  UNL     1      23.191   4.473  52.591  1.00  0.00    -0.351 OA
HETATM   11  C18 UNL     1      23.628   5.542  51.670  1.00  0.00     0.345 C 
HETATM   12  O3  UNL     1      23.467   5.394  50.274  1.00  0.00    -0.331 OA
ENDROOT
BRANCH   8  13
HETATM   13  C11 UNL     1      24.245   0.740  52.182  1.00  0.00     0.053 C 
BRANCH  13  14
HETATM   14  C12 UNL     1      24.972   0.270  53.362  1.00  0.00    -0.038 A 
HETATM   15  C13 UNL     1      24.663  -0.462  54.447  1.00  0.00     0.010 A 
HETATM   16  C14 UNL     1      26.011  -0.351  54.961  1.00  0.00     0.022 A 
HETATM   17  C15 UNL     1      26.338   0.381  53.887  1.00  0.00     0.037 A 
BRANCH  17  18
HETATM   18  S1  UNL     1      27.818   1.171  53.317  1.00  0.00     0.046 S 
HETATM   19  C16 UNL     1      29.254   0.315  53.978  1.00  0.00     0.133 C 
HETATM   20  O1  UNL     1      27.863   2.593  53.870  1.00  0.00    -0.253 OA
ENDBRANCH  17  18
ENDBRANCH  13  14
ENDBRANCH   8  13
BRANCH   1  21
HETATM   21  C2  UNL     1      23.866   6.899  48.592  1.00  0.00     0.060 C 
HETATM   22  C1  UNL     1      24.878   7.625  47.742  1.00  0.00     0.012 C 
ENDBRANCH   1  21
TORSDOF 5
ENDMDL
MODEL 9
REMARK VINA RESULT:      -7.3      3.039      4.222
REMARK  5 active torsions:
REMARK  status: ('A' for Active; 'I' for Inactive)
REMARK    1  A    between atoms: C2_2  and  C3_3 
REMARK    2  A    between atoms: C10_10  and  C11_11 
REMARK    3  A    between atoms: C10_10  and  C17_19 
REMARK    4  A    between atoms: C11_11  and  C12_12 
REMARK    5  A    between atoms: C15_15  and  S1_16 
ROOT
HETATM    1  C3  UNL     1      22.269   0.213  53.208  1.00  0.00     0.045 C 
HETATM    2  C4  UNL     1      23.607   0.014  53.620  1.00  0.00     0.006 C 
HETATM    3  C5  UNL     1      25.098   0.410  53.376  1.00  0.00     0.040 C 
HETATM    4  C6  UNL     1      25.375   1.598  52.585  1.00  0.00    -0.023 A 
HETATM    5  C7  UNL     1      24.202   1.231  51.870  1.00  0.00    -0.006 A 
HETATM    6  C8  UNL     1      23.876   2.346  51.079  1.00  0.00     0.063 A 
HETATM    7  C9  UNL     1      22.955   2.855  50.148  1.00  0.00     0.109 A 
HETATM    8  C10 UNL     1      24.161   3.323  50.776  1.00  0.00     0.010 A 
HETATM    9  C17 UNL     1      24.863   2.538  51.710  1.00  0.00     0.011 A 
HETATM   10  O2  UNL     1      21.861   1.938  49.866  1.00  0.00    -0.351 OA
HETATM   11  C18 UNL     1      21.681   0.797  50.787  1.00  0.00     0.345 C 
HETATM   12  O3  UNL     1      21.551   1.013  52.177  1.00  0.00    -0.331 OA
ENDROOT
BRANCH   8  13
HETATM   13  C11 UNL     1      24.581   4.686  50.380  1.00  0.00     0.053 C 
BRANCH  13  14
HETATM   14  C12 UNL     1      25.846   4.746  49.646  1.00  0.00    -0.038 A 
HETATM   15  C13 UNL     1      26.848   3.884  49.395  1.00  0.00     0.010 A 
HETATM   16  C14 UNL     1      27.569   4.877  48.628  1.00  0.00     0.022 A 
HETATM   17  C15 UNL     1      26.581   5.750  48.868  1.00  0.00     0.037 A 
BRANCH  17  18
HETATM   18  S1  UNL     1      26.273   7.439  48.430  1.00  0.00     0.046 S 
HETATM   19  C16 UNL     1      26.799   8.517  49.769  1.00  0.00     0.133 C 
HETATM   20  O1  UNL     1      24.768   7.641  48.270  1.00  0.00    -0.253 OA
ENDBRANCH  17  18
ENDBRANCH  13  14
ENDBRANCH   8  13
BRANCH   1  21
HETATM   21  C2  UNL     1      21.092  -0.485  53.850  1.00  0.00     0.060 C 
HETATM   22  C1  UNL     1      21.559  -1.745  54.535  1.00  0.00     0.012 C 
ENDBRANCH   1  21
TORSDOF 5
ENDMDL
