MODEL 1
REMARK VINA RESULT:      -8.1      0.000      0.000
REMARK  1 active torsions:
REMARK  status: ('A' for Active; 'I' for Inactive)
REMARK    1  A    between atoms: C11_14  and  N3_15 
ROOT
HETATM    1  C1  UNL     1      25.797   1.908  53.897  1.00  0.00     0.016 C 
HETATM    2  C2  UNL     1      24.678   2.404  53.002  1.00  0.00    -0.029 C 
HETATM    3  C3  UNL     1      23.982   3.506  52.735  1.00  0.00     0.025 C 
HETATM    4  C4  UNL     1      23.418   4.856  52.683  1.00  0.00    -0.020 C 
HETATM    5  C5  UNL     1      22.425   5.004  51.822  1.00  0.00     0.029 C 
HETATM    6  C6  UNL     1      21.539   4.426  50.811  1.00  0.00     0.316 C 
HETATM    7  F1  UNL     1      22.177   3.360  50.182  1.00  0.00    -0.221 F 
HETATM    8  N1  UNL     1      20.346   3.990  51.498  1.00  0.00    -0.242 NA
HETATM    9  C7  UNL     1      19.171   4.018  51.011  1.00  0.00     0.229 C 
HETATM   10  N2  UNL     1      18.154   3.527  51.895  1.00  0.00    -0.259 NA
HETATM   11  C8  UNL     1      17.513   2.441  51.525  1.00  0.00     0.091 C 
HETATM   12  C9  UNL     1      17.694   1.640  50.306  1.00  0.00     0.049 C 
HETATM   13  C10 UNL     1      18.104   0.230  50.694  1.00  0.00     0.050 C 
HETATM   14  C11 UNL     1      19.305   0.240  51.565  1.00  0.00     0.198 C 
HETATM   15  C12 UNL     1      20.152   0.022  52.552  1.00  0.00     0.059 C 
HETATM   16  C13 UNL     1      20.360  -0.661  53.804  1.00  0.00    -0.023 C 
HETATM   17  C14 UNL     1      21.588  -0.289  54.205  1.00  0.00    -0.030 C 
HETATM   18  C15 UNL     1      22.407   0.621  53.458  1.00  0.00     0.027 C 
HETATM   19  C16 UNL     1      23.714   0.090  52.938  1.00  0.00     0.005 C 
HETATM   20  C17 UNL     1      24.367   1.228  52.122  1.00  0.00     0.011 C 
ENDROOT
BRANCH  14  21
HETATM   21  N3  UNL     1      20.158   0.977  50.656  1.00  0.00     0.091 NA
HETATM   22  H14 UNL     1      21.092   1.412  50.554  1.00  0.00     0.314 HD
HETATM   23  H15 UNL     1      21.110   1.406  50.585  1.00  0.00     0.314 HD
ENDBRANCH  14  21
TORSDOF 1
ENDMDL
MODEL 2
REMARK VINA RESULT:      -8.0      2.948      5.769
REMARK  1 active torsions:
REMARK  status: ('A' for Active; 'I' for Inactive)
REMARK    1  A    between atoms: C11_14  and  N3_15 
ROOT
HETATM    1  C1  UNL     1      26.017  -0.173  52.282  1.00  0.00     0.016 C 
HETATM    2  C2  UNL     1      25.021   0.969  52.322  1.00  0.00    -0.029 C 
HETATM    3  C3  UNL     1      23.726   1.217  52.135  1.00  0.00     0.025 C 
HETATM    4  C4  UNL     1      22.289   1.151  51.865  1.00  0.00    -0.020 C 
HETATM    5  C5  UNL     1      21.662   2.313  51.946  1.00  0.00     0.029 C 
HETATM    6  C6  UNL     1      21.708   3.754  52.194  1.00  0.00     0.316 C 
HETATM    7  F1  UNL     1      22.762   4.048  53.055  1.00  0.00    -0.221 F 
HETATM    8  N1  UNL     1      21.886   4.395  50.912  1.00  0.00    -0.242 NA
HETATM    9  C7  UNL     1      21.392   5.520  50.582  1.00  0.00     0.229 C 
HETATM   10  N2  UNL     1      21.718   5.941  49.250  1.00  0.00    -0.259 NA
HETATM   11  C8  UNL     1      22.447   7.027  49.128  1.00  0.00     0.091 C 
HETATM   12  C9  UNL     1      22.988   7.892  50.184  1.00  0.00     0.049 C 
HETATM   13  C10 UNL     1      24.504   7.901  50.093  1.00  0.00     0.050 C 
HETATM   14  C11 UNL     1      25.052   6.522  50.135  1.00  0.00     0.198 C 
HETATM   15  C12 UNL     1      25.726   5.422  49.864  1.00  0.00     0.059 C 
HETATM   16  C13 UNL     1      26.688   4.809  48.982  1.00  0.00    -0.023 C 
HETATM   17  C14 UNL     1      26.810   3.545  49.421  1.00  0.00    -0.030 C 
HETATM   18  C15 UNL     1      26.064   3.034  50.534  1.00  0.00     0.027 C 
HETATM   19  C16 UNL     1      26.852   2.577  51.730  1.00  0.00     0.005 C 
HETATM   20  C17 UNL     1      25.828   2.141  52.802  1.00  0.00     0.011 C 
ENDROOT
BRANCH  14  21
HETATM   21  N3  UNL     1      24.442   6.144  51.393  1.00  0.00     0.091 NA
HETATM   22  H14 UNL     1      24.241   5.342  52.015  1.00  0.00     0.314 HD
HETATM   23  H15 UNL     1      24.255   5.312  52.000  1.00  0.00     0.314 HD
ENDBRANCH  14  21
TORSDOF 1
ENDMDL
MODEL 3
REMARK VINA RESULT:      -7.9      2.849      4.747
REMARK  1 active torsions:
REMARK  status: ('A' for Active; 'I' for Inactive)
REMARK    1  A    between atoms: C11_14  and  N3_15 
ROOT
HETATM    1  C1  UNL     1      27.081   4.361  48.920  1.00  0.00     0.016 C 
HETATM    2  C2  UNL     1      26.386   3.760  50.127  1.00  0.00    -0.029 C 
HETATM    3  C3  UNL     1      26.551   2.812  51.047  1.00  0.00     0.025 C 
HETATM    4  C4  UNL     1      27.028   1.716  51.891  1.00  0.00    -0.020 C 
HETATM    5  C5  UNL     1      26.203   1.374  52.865  1.00  0.00     0.029 C 
HETATM    6  C6  UNL     1      24.936   1.573  53.570  1.00  0.00     0.316 C 
HETATM    7  F1  UNL     1      24.524   2.895  53.429  1.00  0.00    -0.221 F 
HETATM    8  N1  UNL     1      23.981   0.662  52.984  1.00  0.00    -0.242 NA
HETATM    9  C7  UNL     1      23.043   0.079  53.616  1.00  0.00     0.229 C 
HETATM   10  N2  UNL     1      22.227  -0.777  52.805  1.00  0.00    -0.259 NA
HETATM   11  C8  UNL     1      20.964  -0.443  52.667  1.00  0.00     0.091 C 
HETATM   12  C9  UNL     1      20.252   0.708  53.238  1.00  0.00     0.049 C 
HETATM   13  C10 UNL     1      19.712   1.569  52.110  1.00  0.00     0.050 C 
HETATM   14  C11 UNL     1      20.792   1.962  51.171  1.00  0.00     0.198 C 
HETATM   15  C12 UNL     1      21.500   2.182  50.081  1.00  0.00     0.059 C 
HETATM   16  C13 UNL     1      21.519   2.090  48.642  1.00  0.00    -0.023 C 
HETATM   17  C14 UNL     1      22.735   2.532  48.279  1.00  0.00    -0.030 C 
HETATM   18  C15 UNL     1      23.722   2.959  49.229  1.00  0.00     0.027 C 
HETATM   19  C16 UNL     1      24.164   4.394  49.154  1.00  0.00     0.005 C 
HETATM   20  C17 UNL     1      25.166   4.615  50.309  1.00  0.00     0.011 C 
ENDROOT
BRANCH  14  21
HETATM   21  N3  UNL     1      21.647   2.585  52.160  1.00  0.00     0.091 NA
HETATM   22  H14 UNL     1      21.785   2.721  53.177  1.00  0.00     0.314 HD
HETATM   23  H15 UNL     1      21.759   2.704  53.194  1.00  0.00     0.314 HD
ENDBRANCH  14  21
TORSDOF 1
ENDMDL
MODEL 4
REMARK VINA RESULT:      -7.2      2.974      6.667
REMARK  1 active torsions:
REMARK  status: ('A' for Active; 'I' for Inactive)
REMARK    1  A    between atoms: C11_14  and  N3_15 
ROOT
HETATM    1  C1  UNL     1      18.740   0.636  52.152  1.00  0.00     0.016 C 
HETATM    2  C2  UNL     1      20.169   0.225  52.452  1.00  0.00    -0.029 C 
HETATM    3  C3  UNL     1      20.920  -0.252  53.442  1.00  0.00     0.025 C 
HETATM    4  C4  UNL     1      21.448  -0.768  54.705  1.00  0.00    -0.020 C 
HETATM    5  C5  UNL     1      22.746  -1.022  54.694  1.00  0.00     0.029 C 
HETATM    6  C6  UNL     1      24.020  -1.038  53.975  1.00  0.00     0.316 C 
HETATM    7  F1  UNL     1      23.786  -1.194  52.611  1.00  0.00    -0.221 F 
HETATM    8  N1  UNL     1      24.676   0.219  54.252  1.00  0.00    -0.242 NA
HETATM    9  C7  UNL     1      25.932   0.378  54.365  1.00  0.00     0.229 C 
HETATM   10  N2  UNL     1      26.334   1.727  54.640  1.00  0.00    -0.259 NA
HETATM   11  C8  UNL     1      27.057   2.334  53.726  1.00  0.00     0.091 C 
HETATM   12  C9  UNL     1      27.524   1.816  52.433  1.00  0.00     0.049 C 
HETATM   13  C10 UNL     1      26.951   2.673  51.318  1.00  0.00     0.050 C 
HETATM   14  C11 UNL     1      25.473   2.756  51.410  1.00  0.00     0.198 C 
HETATM   15  C12 UNL     1      24.233   3.203  51.460  1.00  0.00     0.059 C 
HETATM   16  C13 UNL     1      23.393   4.374  51.416  1.00  0.00    -0.023 C 
HETATM   17  C14 UNL     1      22.142   3.915  51.585  1.00  0.00    -0.030 C 
HETATM   18  C15 UNL     1      21.844   2.524  51.779  1.00  0.00     0.027 C 
HETATM   19  C16 UNL     1      20.990   1.859  50.736  1.00  0.00     0.005 C 
HETATM   20  C17 UNL     1      20.874   0.371  51.134  1.00  0.00     0.011 C 
ENDROOT
BRANCH  14  21
HETATM   21  N3  UNL     1      25.228   1.329  51.374  1.00  0.00     0.091 NA
HETATM   22  H14 UNL     1      24.552   0.591  51.637  1.00  0.00     0.314 HD
HETATM   23  H15 UNL     1      24.523   0.607  51.653  1.00  0.00     0.314 HD
ENDBRANCH  14  21
TORSDOF 1
ENDMDL
MODEL 5
REMARK VINA RESULT:      -7.0      2.428      4.844
REMARK  1 active torsions:
REMARK  status: ('A' for Active; 'I' for Inactive)
REMARK    1  A    between atoms: C11_14  and  N3_15 
ROOT
HETATM    1  C1  UNL     1      23.038   5.139  47.829  1.00  0.00     0.016 C 
HETATM    2  C2  UNL     1      23.367   4.484  49.157  1.00  0.00    -0.029 C 
HETATM    3  C3  UNL     1      24.357   3.844  49.774  1.00  0.00     0.025 C 
HETATM    4  C4  UNL     1      25.612   3.193  50.157  1.00  0.00    -0.020 C 
HETATM    5  C5  UNL     1      25.615   2.680  51.375  1.00  0.00     0.029 C 
HETATM    6  C6  UNL     1      24.916   2.422  52.634  1.00  0.00     0.316 C 
HETATM    7  F1  UNL     1      23.953   3.405  52.846  1.00  0.00    -0.221 F 
HETATM    8  N1  UNL     1      24.312   1.115  52.519  1.00  0.00    -0.242 NA
HETATM    9  C7  UNL     1      24.170   0.288  53.476  1.00  0.00     0.229 C 
HETATM   10  N2  UNL     1      23.536  -0.944  53.103  1.00  0.00    -0.259 NA
HETATM   11  C8  UNL     1      22.369  -1.205  53.647  1.00  0.00     0.091 C 
HETATM   12  C9  UNL     1      21.604  -0.397  54.606  1.00  0.00     0.049 C 
HETATM   13  C10 UNL     1      20.267  -0.025  53.988  1.00  0.00     0.050 C 
HETATM   14  C11 UNL     1      20.451   0.648  52.678  1.00  0.00     0.198 C 
HETATM   15  C12 UNL     1      20.357   0.985  51.407  1.00  0.00     0.059 C 
HETATM   16  C13 UNL     1      19.710   0.699  50.150  1.00  0.00    -0.023 C 
HETATM   17  C14 UNL     1      20.255   1.558  49.272  1.00  0.00    -0.030 C 
HETATM   18  C15 UNL     1      21.275   2.500  49.638  1.00  0.00     0.027 C 
HETATM   19  C16 UNL     1      20.938   3.958  49.491  1.00  0.00     0.005 C 
HETATM   20  C17 UNL     1      22.159   4.753  50.006  1.00  0.00     0.011 C 
ENDROOT
BRANCH  14  21
HETATM   21  N3  UNL     1      21.303   1.714  53.162  1.00  0.00     0.091 NA
HETATM   22  H14 UNL     1      21.431   2.741  53.173  1.00  0.00     0.314 HD
HETATM   23  H15 UNL     1      21.404   2.756  53.154  1.00  0.00     0.314 HD
ENDBRANCH  14  21
TORSDOF 1
ENDMDL
MODEL 6
REMARK VINA RESULT:      -7.0      2.443      3.963
REMARK  1 active torsions:
REMARK  status: ('A' for Active; 'I' for Inactive)
REMARK    1  A    between atoms: C11_14  and  N3_15 
ROOT
HETATM    1  C1  UNL     1      26.335   7.109  49.705  1.00  0.00     0.016 C 
HETATM    2  C2  UNL     1      24.911   6.586  49.735  1.00  0.00    -0.029 C 
HETATM    3  C3  UNL     1      23.704   6.903  50.199  1.00  0.00     0.025 C 
HETATM    4  C4  UNL     1      22.541   7.531  50.828  1.00  0.00    -0.020 C 
HETATM    5  C5  UNL     1      21.420   6.837  50.723  1.00  0.00     0.029 C 
HETATM    6  C6  UNL     1      20.716   5.648  50.245  1.00  0.00     0.316 C 
HETATM    7  F1  UNL     1      21.352   5.149  49.111  1.00  0.00    -0.221 F 
HETATM    8  N1  UNL     1      20.738   4.685  51.322  1.00  0.00    -0.242 NA
HETATM    9  C7  UNL     1      19.808   3.857  51.582  1.00  0.00     0.229 C 
HETATM   10  N2  UNL     1      20.073   3.005  52.705  1.00  0.00    -0.259 NA
HETATM   11  C8  UNL     1      20.183   1.717  52.466  1.00  0.00     0.091 C 
HETATM   12  C9  UNL     1      20.070   1.010  51.183  1.00  0.00     0.049 C 
HETATM   13  C10 UNL     1      21.381   0.302  50.888  1.00  0.00     0.050 C 
HETATM   14  C11 UNL     1      22.523   1.249  50.931  1.00  0.00     0.198 C 
HETATM   15  C12 UNL     1      23.682   1.820  51.196  1.00  0.00     0.059 C 
HETATM   16  C13 UNL     1      24.936   1.685  51.894  1.00  0.00    -0.023 C 
HETATM   17  C14 UNL     1      25.599   2.827  51.646  1.00  0.00    -0.030 C 
HETATM   18  C15 UNL     1      25.049   3.888  50.851  1.00  0.00     0.027 C 
HETATM   19  C16 UNL     1      25.779   4.239  49.585  1.00  0.00     0.005 C 
HETATM   20  C17 UNL     1      24.960   5.348  48.888  1.00  0.00     0.011 C 
ENDROOT
BRANCH  14  21
HETATM   21  N3  UNL     1      22.004   2.172  49.943  1.00  0.00     0.091 NA
HETATM   22  H14 UNL     1      21.186   2.382  49.345  1.00  0.00     0.314 HD
HETATM   23  H15 UNL     1      21.161   2.357  49.351  1.00  0.00     0.314 HD
ENDBRANCH  14  21
TORSDOF 1
ENDMDL
MODEL 7
REMARK VINA RESULT:      -6.9      2.798      5.772
REMARK  1 active torsions:
REMARK  status: ('A' for Active; 'I' for Inactive)
REMARK    1  A    between atoms: C11_14  and  N3_15 
ROOT
HETATM    1  C1  UNL     1      18.788   2.914  50.485  1.00  0.00     0.016 C 
HETATM    2  C2  UNL     1      20.229   3.365  50.628  1.00  0.00    -0.029 C 
HETATM    3  C3  UNL     1      21.256   3.785  49.894  1.00  0.00     0.025 C 
HETATM    4  C4  UNL     1      22.164   4.209  48.827  1.00  0.00    -0.020 C 
HETATM    5  C5  UNL     1      23.381   4.526  49.235  1.00  0.00     0.029 C 
HETATM    6  C6  UNL     1      24.345   4.671  50.326  1.00  0.00     0.316 C 
HETATM    7  F1  UNL     1      23.672   4.940  51.514  1.00  0.00    -0.221 F 
HETATM    8  N1  UNL     1      25.076   3.428  50.409  1.00  0.00    -0.242 NA
HETATM    9  C7  UNL     1      26.302   3.321  50.730  1.00  0.00     0.229 C 
HETATM   10  N2  UNL     1      26.795   1.974  50.741  1.00  0.00    -0.259 NA
HETATM   11  C8  UNL     1      27.185   1.490  51.898  1.00  0.00     0.091 C 
HETATM   12  C9  UNL     1      27.191   2.147  53.212  1.00  0.00     0.049 C 
HETATM   13  C10 UNL     1      26.296   1.368  54.161  1.00  0.00     0.050 C 
HETATM   14  C11 UNL     1      24.932   1.204  53.600  1.00  0.00     0.198 C 
HETATM   15  C12 UNL     1      23.786   0.694  53.194  1.00  0.00     0.059 C 
HETATM   16  C13 UNL     1      22.998  -0.508  53.082  1.00  0.00    -0.023 C 
HETATM   17  C14 UNL     1      21.865  -0.128  52.467  1.00  0.00    -0.030 C 
HETATM   18  C15 UNL     1      21.626   1.223  52.045  1.00  0.00     0.027 C 
HETATM   19  C16 UNL     1      20.464   1.938  52.677  1.00  0.00     0.005 C 
HETATM   20  C17 UNL     1      20.462   3.376  52.111  1.00  0.00     0.011 C 
ENDROOT
BRANCH  14  21
HETATM   21  N3  UNL     1      24.666   2.615  53.408  1.00  0.00     0.091 NA
HETATM   22  H14 UNL     1      24.464   3.501  53.902  1.00  0.00     0.314 HD
HETATM   23  H15 UNL     1      24.463   3.494  53.938  1.00  0.00     0.314 HD
ENDBRANCH  14  21
TORSDOF 1
ENDMDL
MODEL 8
REMARK VINA RESULT:      -6.9      1.570      4.893
REMARK  1 active torsions:
REMARK  status: ('A' for Active; 'I' for Inactive)
REMARK    1  A    between atoms: C11_14  and  N3_15 
ROOT
HETATM    1  C1  UNL     1      20.400  -1.959  54.149  1.00  0.00     0.016 C 
HETATM    2  C2  UNL     1      20.131  -0.633  53.463  1.00  0.00    -0.029 C 
HETATM    3  C3  UNL     1      19.473  -0.123  52.425  1.00  0.00     0.025 C 
HETATM    4  C4  UNL     1      18.656   0.110  51.233  1.00  0.00    -0.020 C 
HETATM    5  C5  UNL     1      18.615   1.370  50.833  1.00  0.00     0.029 C 
HETATM    6  C6  UNL     1      19.024   2.762  51.016  1.00  0.00     0.316 C 
HETATM    7  F1  UNL     1      19.291   3.000  52.361  1.00  0.00    -0.221 F 
HETATM    8  N1  UNL     1      20.204   2.963  50.206  1.00  0.00    -0.242 NA
HETATM    9  C7  UNL     1      20.502   4.044  49.604  1.00  0.00     0.229 C 
HETATM   10  N2  UNL     1      21.730   3.989  48.866  1.00  0.00    -0.259 NA
HETATM   11  C8  UNL     1      22.703   4.777  49.264  1.00  0.00     0.091 C 
HETATM   12  C9  UNL     1      22.712   5.729  50.383  1.00  0.00     0.049 C 
HETATM   13  C10 UNL     1      23.793   5.324  51.371  1.00  0.00     0.050 C 
HETATM   14  C11 UNL     1      23.621   3.917  51.808  1.00  0.00     0.198 C 
HETATM   15  C12 UNL     1      23.837   2.650  52.102  1.00  0.00     0.059 C 
HETATM   16  C13 UNL     1      24.820   1.596  52.149  1.00  0.00    -0.023 C 
HETATM   17  C14 UNL     1      24.150   0.511  52.573  1.00  0.00    -0.030 C 
HETATM   18  C15 UNL     1      22.745   0.530  52.864  1.00  0.00     0.027 C 
HETATM   19  C16 UNL     1      22.339   0.229  54.280  1.00  0.00     0.005 C 
HETATM   20  C17 UNL     1      20.802   0.378  54.347  1.00  0.00     0.011 C 
ENDROOT
BRANCH  14  21
HETATM   21  N3  UNL     1      22.265   4.063  52.295  1.00  0.00     0.091 NA
HETATM   22  H14 UNL     1      21.280   3.803  52.114  1.00  0.00     0.314 HD
HETATM   23  H15 UNL     1      21.279   3.782  52.084  1.00  0.00     0.314 HD
ENDBRANCH  14  21
TORSDOF 1
ENDMDL
MODEL 9
REMARK VINA RESULT:      -6.5     12.555     14.937
REMARK  1 active torsions:
REMARK  status: ('A' for Active; 'I' for Inactive)
REMARK    1  A    between atoms: C11_14  and  N3_15 
ROOT
HETATM    1  C1  UNL     1      32.792   2.080  47.077  1.00  0.00     0.016 C 
HETATM    2  C2  UNL     1      32.704   3.588  47.222  1.00  0.00    -0.029 C 
HETATM    3  C3  UNL     1      31.825   4.548  47.499  1.00  0.00     0.025 C 
HETATM    4  C4  UNL     1      30.640   5.339  47.833  1.00  0.00    -0.020 C 
HETATM    5  C5  UNL     1      30.843   6.646  47.866  1.00  0.00     0.029 C 
HETATM    6  C6  UNL     1      31.753   7.782  47.718  1.00  0.00     0.316 C 
HETATM    7  F1  UNL     1      33.055   7.381  48.003  1.00  0.00    -0.221 F 
HETATM    8  N1  UNL     1      31.634   8.241  46.353  1.00  0.00    -0.242 NA
HETATM    9  C7  UNL     1      31.726   9.453  45.979  1.00  0.00     0.229 C 
HETATM   10  N2  UNL     1      31.573   9.647  44.566  1.00  0.00    -0.259 NA
HETATM   11  C8  UNL     1      32.613  10.110  43.910  1.00  0.00     0.091 C 
HETATM   12  C9  UNL     1      33.940  10.465  44.429  1.00  0.00     0.049 C 
HETATM   13  C10 UNL     1      34.987   9.592  43.757  1.00  0.00     0.050 C 
HETATM   14  C11 UNL     1      34.667   8.152  43.916  1.00  0.00     0.198 C 
HETATM   15  C12 UNL     1      34.442   6.874  43.681  1.00  0.00     0.059 C 
HETATM   16  C13 UNL     1      34.402   5.845  42.672  1.00  0.00    -0.023 C 
HETATM   17  C14 UNL     1      34.020   4.732  43.322  1.00  0.00    -0.030 C 
HETATM   18  C15 UNL     1      33.725   4.716  44.726  1.00  0.00     0.027 C 
HETATM   19  C16 UNL     1      34.593   3.847  45.594  1.00  0.00     0.005 C 
HETATM   20  C17 UNL     1      34.120   4.054  47.050  1.00  0.00     0.011 C 
ENDROOT
BRANCH  14  21
HETATM   21  N3  UNL     1      34.606   8.159  45.363  1.00  0.00     0.091 NA
HETATM   22  H14 UNL     1      34.760   8.745  46.202  1.00  0.00     0.314 HD
HETATM   23  H15 UNL     1      34.771   8.778  46.191  1.00  0.00     0.314 HD
ENDBRANCH  14  21
TORSDOF 1
ENDMDL
