MODEL 1
REMARK VINA RESULT:      -9.2      0.000      0.000
REMARK  2 active torsions:
REMARK  status: ('A' for Active; 'I' for Inactive)
REMARK    1  A    between atoms: N1_10  and  C9_11 
REMARK    2  A    between atoms: C9_11  and  C10_12 
ROOT
HETATM    1  C1  UNL     1      19.894   0.272  52.087  1.00  0.00     0.043 C 
HETATM    2  C2  UNL     1      21.381   0.211  52.315  1.00  0.00    -0.081 C 
HETATM    3  C3  UNL     1      21.903  -0.650  53.221  1.00  0.00     0.007 C 
HETATM    4  C4  UNL     1      23.220  -1.055  53.777  1.00  0.00     0.140 C 
HETATM    5  C5  UNL     1      23.037  -1.211  55.330  1.00  0.00     0.044 C 
HETATM    6  O1  UNL     1      24.066  -0.006  53.648  1.00  0.00    -0.382 OA
HETATM    7  C6  UNL     1      25.365  -0.185  53.346  1.00  0.00     0.170 C 
HETATM    8  C7  UNL     1      26.095   1.123  53.146  1.00  0.00     0.046 C 
HETATM    9  C8  UNL     1      25.831   1.847  51.890  1.00  0.00     0.120 C 
HETATM   10  N1  UNL     1      24.631   2.369  51.507  1.00  0.00    -0.400 N 
HETATM   11  C16 UNL     1      23.621   2.867  52.365  1.00  0.00     0.112 A 
HETATM   12  C17 UNL     1      23.594   4.329  52.632  1.00  0.00     0.056 A 
HETATM   13  C18 UNL     1      22.287   4.886  52.238  1.00  0.00    -0.024 A 
HETATM   14  C19 UNL     1      21.134   4.494  51.732  1.00  0.00    -0.004 A 
HETATM   15  C20 UNL     1      21.135   3.060  51.472  1.00  0.00     0.005 A 
HETATM   16  C21 UNL     1      22.266   2.464  51.788  1.00  0.00    -0.053 A 
HETATM   17  C22 UNL     1      22.347   0.997  51.535  1.00  0.00     0.069 C 
ENDROOT
BRANCH  10  18
HETATM   18  C9  UNL     1      24.494   2.765  50.135  1.00  0.00     0.156 C 
BRANCH  18  19
HETATM   19  C10 UNL     1      25.370   3.776  49.588  1.00  0.00    -0.041 A 
HETATM   20  C11 UNL     1      24.779   5.017  49.317  1.00  0.00     0.012 A 
HETATM   21  C12 UNL     1      25.534   6.074  48.816  1.00  0.00     0.043 A 
HETATM   22  C13 UNL     1      26.884   5.949  48.567  1.00  0.00     0.116 A 
HETATM   23  F1  UNL     1      27.667   6.945  48.080  1.00  0.00    -0.206 F 
HETATM   24  C14 UNL     1      27.523   4.735  48.820  1.00  0.00     0.043 A 
HETATM   25  C15 UNL     1      26.721   3.750  49.308  1.00  0.00     0.012 A 
ENDBRANCH  18  19
ENDBRANCH  10  18
TORSDOF 2
ENDMDL
MODEL 2
REMARK VINA RESULT:      -9.1      3.201      7.134
REMARK  2 active torsions:
REMARK  status: ('A' for Active; 'I' for Inactive)
REMARK    1  A    between atoms: N1_10  and  C9_11 
REMARK    2  A    between atoms: C9_11  and  C10_12 
ROOT
HETATM    1  C1  UNL     1      27.403   4.355  48.857  1.00  0.00     0.043 C 
HETATM    2  C2  UNL     1      26.017   4.683  49.346  1.00  0.00    -0.081 C 
HETATM    3  C3  UNL     1      25.532   5.943  49.245  1.00  0.00     0.007 C 
HETATM    4  C4  UNL     1      24.307   6.719  49.569  1.00  0.00     0.140 C 
HETATM    5  C5  UNL     1      24.777   8.095  50.166  1.00  0.00     0.044 C 
HETATM    6  O1  UNL     1      23.687   6.105  50.603  1.00  0.00    -0.382 OA
HETATM    7  C6  UNL     1      22.345   6.038  50.677  1.00  0.00     0.170 C 
HETATM    8  C7  UNL     1      21.874   5.216  51.854  1.00  0.00     0.046 C 
HETATM    9  C8  UNL     1      22.010   3.753  51.742  1.00  0.00     0.120 C 
HETATM   10  N1  UNL     1      23.183   3.067  51.634  1.00  0.00    -0.400 N 
HETATM   11  C16 UNL     1      24.432   3.449  52.181  1.00  0.00     0.112 A 
HETATM   12  C17 UNL     1      24.814   2.884  53.503  1.00  0.00     0.056 A 
HETATM   13  C18 UNL     1      26.095   2.163  53.387  1.00  0.00    -0.024 A 
HETATM   14  C19 UNL     1      27.010   1.869  52.484  1.00  0.00    -0.004 A 
HETATM   15  C20 UNL     1      26.660   2.423  51.182  1.00  0.00     0.005 A 
HETATM   16  C21 UNL     1      25.523   3.088  51.176  1.00  0.00    -0.053 A 
HETATM   17  C22 UNL     1      25.091   3.671  49.874  1.00  0.00     0.069 C 
ENDROOT
BRANCH  10  18
HETATM   18  C9  UNL     1      23.107   1.692  51.232  1.00  0.00     0.156 C 
BRANCH  18  19
HETATM   19  C10 UNL     1      22.384   0.744  52.049  1.00  0.00    -0.041 A 
HETATM   20  C11 UNL     1      23.156   0.005  52.956  1.00  0.00     0.012 A 
HETATM   21  C12 UNL     1      22.562  -0.916  53.815  1.00  0.00     0.043 A 
HETATM   22  C13 UNL     1      21.202  -1.141  53.812  1.00  0.00     0.116 A 
HETATM   23  F1  UNL     1      20.571  -2.025  54.626  1.00  0.00    -0.206 F 
HETATM   24  C14 UNL     1      20.387  -0.431  52.929  1.00  0.00     0.043 A 
HETATM   25  C15 UNL     1      21.039   0.450  52.122  1.00  0.00     0.012 A 
ENDBRANCH  18  19
ENDBRANCH  10  18
TORSDOF 2
ENDMDL
MODEL 3
REMARK VINA RESULT:      -8.8      2.942      5.162
REMARK  2 active torsions:
REMARK  status: ('A' for Active; 'I' for Inactive)
REMARK    1  A    between atoms: N1_10  and  C9_11 
REMARK    2  A    between atoms: C9_11  and  C10_12 
ROOT
HETATM    1  C1  UNL     1      21.122   1.995  48.200  1.00  0.00     0.043 C 
HETATM    2  C2  UNL     1      20.862   1.405  49.561  1.00  0.00    -0.081 C 
HETATM    3  C3  UNL     1      19.599   1.312  50.042  1.00  0.00     0.007 C 
HETATM    4  C4  UNL     1      18.874   0.844  51.251  1.00  0.00     0.140 C 
HETATM    5  C5  UNL     1      17.773   1.918  51.573  1.00  0.00     0.044 C 
HETATM    6  O1  UNL     1      19.726   0.919  52.300  1.00  0.00    -0.382 OA
HETATM    7  C6  UNL     1      19.722  -0.010  53.275  1.00  0.00     0.170 C 
HETATM    8  C7  UNL     1      20.823   0.212  54.285  1.00  0.00     0.046 C 
HETATM    9  C8  UNL     1      22.192  -0.134  53.864  1.00  0.00     0.120 C 
HETATM   10  N1  UNL     1      22.891   0.460  52.857  1.00  0.00    -0.400 N 
HETATM   11  C16 UNL     1      22.774   1.806  52.435  1.00  0.00     0.112 A 
HETATM   12  C17 UNL     1      23.730   2.797  52.996  1.00  0.00     0.056 A 
HETATM   13  C18 UNL     1      24.468   3.455  51.902  1.00  0.00    -0.024 A 
HETATM   14  C19 UNL     1      24.541   3.446  50.586  1.00  0.00    -0.004 A 
HETATM   15  C20 UNL     1      23.603   2.488  50.014  1.00  0.00     0.005 A 
HETATM   16  C21 UNL     1      22.892   1.840  50.913  1.00  0.00    -0.053 A 
HETATM   17  C22 UNL     1      21.920   0.831  50.403  1.00  0.00     0.069 C 
ENDROOT
BRANCH  10  18
HETATM   18  C9  UNL     1      24.077  -0.205  52.397  1.00  0.00     0.156 C 
BRANCH  18  19
HETATM   19  C10 UNL     1      25.317  -0.045  53.120  1.00  0.00    -0.041 A 
HETATM   20  C11 UNL     1      26.443   0.259  52.344  1.00  0.00     0.012 A 
HETATM   21  C12 UNL     1      27.685   0.465  52.937  1.00  0.00     0.043 A 
HETATM   22  C13 UNL     1      27.863   0.382  54.302  1.00  0.00     0.116 A 
HETATM   23  F1  UNL     1      29.050   0.573  54.932  1.00  0.00    -0.206 F 
HETATM   24  C14 UNL     1      26.775   0.084  55.122  1.00  0.00     0.043 A 
HETATM   25  C15 UNL     1      25.594  -0.105  54.470  1.00  0.00     0.012 A 
ENDBRANCH  18  19
ENDBRANCH  10  18
TORSDOF 2
ENDMDL
MODEL 4
REMARK VINA RESULT:      -8.4      3.038      5.726
REMARK  2 active torsions:
REMARK  status: ('A' for Active; 'I' for Inactive)
REMARK    1  A    between atoms: N1_10  and  C9_11 
REMARK    2  A    between atoms: C9_11  and  C10_12 
ROOT
HETATM    1  C1  UNL     1      26.614   3.219  50.113  1.00  0.00     0.043 C 
HETATM    2  C2  UNL     1      25.835   2.394  51.103  1.00  0.00    -0.081 C 
HETATM    3  C3  UNL     1      26.429   1.376  51.770  1.00  0.00     0.007 C 
HETATM    4  C4  UNL     1      26.104   0.333  52.776  1.00  0.00     0.140 C 
HETATM    5  C5  UNL     1      26.791  -0.998  52.301  1.00  0.00     0.044 C 
HETATM    6  O1  UNL     1      24.779   0.070  52.689  1.00  0.00    -0.382 OA
HETATM    7  C6  UNL     1      24.042  -0.192  53.784  1.00  0.00     0.170 C 
HETATM    8  C7  UNL     1      22.574  -0.349  53.466  1.00  0.00     0.046 C 
HETATM    9  C8  UNL     1      21.821   0.883  53.168  1.00  0.00     0.120 C 
HETATM   10  N1  UNL     1      22.041   1.717  52.113  1.00  0.00    -0.400 N 
HETATM   11  C16 UNL     1      22.533   1.344  50.838  1.00  0.00     0.112 A 
HETATM   12  C17 UNL     1      21.543   1.073  49.762  1.00  0.00     0.056 A 
HETATM   13  C18 UNL     1      21.798   1.961  48.613  1.00  0.00    -0.024 A 
HETATM   14  C19 UNL     1      22.630   2.911  48.237  1.00  0.00    -0.004 A 
HETATM   15  C20 UNL     1      23.617   3.186  49.274  1.00  0.00     0.005 A 
HETATM   16  C21 UNL     1      23.474   2.444  50.352  1.00  0.00    -0.053 A 
HETATM   17  C22 UNL     1      24.440   2.679  51.464  1.00  0.00     0.069 C 
ENDROOT
BRANCH  10  18
HETATM   18  C9  UNL     1      21.421   3.010  52.156  1.00  0.00     0.156 C 
BRANCH  18  19
HETATM   19  C10 UNL     1      20.074   3.178  51.663  1.00  0.00    -0.041 A 
HETATM   20  C11 UNL     1      19.864   4.274  50.815  1.00  0.00     0.012 A 
HETATM   21  C12 UNL     1      18.613   4.516  50.256  1.00  0.00     0.043 A 
HETATM   22  C13 UNL     1      17.533   3.697  50.508  1.00  0.00     0.116 A 
HETATM   23  F1  UNL     1      16.292   3.886  49.991  1.00  0.00    -0.206 F 
HETATM   24  C14 UNL     1      17.686   2.591  51.344  1.00  0.00     0.043 A 
HETATM   25  C15 UNL     1      18.937   2.420  51.852  1.00  0.00     0.012 A 
ENDBRANCH  18  19
ENDBRANCH  10  18
TORSDOF 2
ENDMDL
MODEL 5
REMARK VINA RESULT:      -8.0      3.692      7.364
REMARK  2 active torsions:
REMARK  status: ('A' for Active; 'I' for Inactive)
REMARK    1  A    between atoms: N1_10  and  C9_11 
REMARK    2  A    between atoms: C9_11  and  C10_12 
ROOT
HETATM    1  C1  UNL     1      28.484   5.215  48.327  1.00  0.00     0.043 C 
HETATM    2  C2  UNL     1      27.240   5.991  48.673  1.00  0.00    -0.081 C 
HETATM    3  C3  UNL     1      27.307   7.319  48.927  1.00  0.00     0.007 C 
HETATM    4  C4  UNL     1      26.420   8.452  49.296  1.00  0.00     0.140 C 
HETATM    5  C5  UNL     1      27.175   9.295  50.386  1.00  0.00     0.044 C 
HETATM    6  O1  UNL     1      25.350   7.945  49.952  1.00  0.00    -0.382 OA
HETATM    7  C6  UNL     1      24.117   8.459  49.788  1.00  0.00     0.170 C 
HETATM    8  C7  UNL     1      23.062   7.673  50.530  1.00  0.00     0.046 C 
HETATM    9  C8  UNL     1      22.673   6.373  49.956  1.00  0.00     0.120 C 
HETATM   10  N1  UNL     1      23.487   5.290  49.810  1.00  0.00    -0.400 N 
HETATM   11  C16 UNL     1      24.577   4.942  50.643  1.00  0.00     0.112 A 
HETATM   12  C17 UNL     1      24.331   3.969  51.741  1.00  0.00     0.056 A 
HETATM   13  C18 UNL     1      25.230   2.809  51.592  1.00  0.00    -0.024 A 
HETATM   14  C19 UNL     1      26.186   2.368  50.799  1.00  0.00    -0.004 A 
HETATM   15  C20 UNL     1      26.451   3.313  49.721  1.00  0.00     0.005 A 
HETATM   16  C21 UNL     1      25.693   4.390  49.760  1.00  0.00    -0.053 A 
HETATM   17  C22 UNL     1      25.897   5.396  48.678  1.00  0.00     0.069 C 
ENDROOT
BRANCH  10  18
HETATM   18  C9  UNL     1      23.023   4.229  48.963  1.00  0.00     0.156 C 
BRANCH  18  19
HETATM   19  C10 UNL     1      22.086   3.257  49.476  1.00  0.00    -0.041 A 
HETATM   20  C11 UNL     1      22.352   1.919  49.152  1.00  0.00     0.012 A 
HETATM   21  C12 UNL     1      21.533   0.895  49.618  1.00  0.00     0.043 A 
HETATM   22  C13 UNL     1      20.434   1.146  50.411  1.00  0.00     0.116 A 
HETATM   23  F1  UNL     1      19.602   0.187  50.892  1.00  0.00    -0.206 F 
HETATM   24  C14 UNL     1      20.124   2.459  50.765  1.00  0.00     0.043 A 
HETATM   25  C15 UNL     1      20.970   3.406  50.272  1.00  0.00     0.012 A 
ENDBRANCH  18  19
ENDBRANCH  10  18
TORSDOF 2
ENDMDL
MODEL 6
REMARK VINA RESULT:      -7.6      3.208      6.520
REMARK  2 active torsions:
REMARK  status: ('A' for Active; 'I' for Inactive)
REMARK    1  A    between atoms: N1_10  and  C9_11 
REMARK    2  A    between atoms: C9_11  and  C10_12 
ROOT
HETATM    1  C1  UNL     1      21.375   8.107  49.990  1.00  0.00     0.043 C 
HETATM    2  C2  UNL     1      22.716   7.437  49.846  1.00  0.00    -0.081 C 
HETATM    3  C3  UNL     1      23.647   7.936  48.998  1.00  0.00     0.007 C 
HETATM    4  C4  UNL     1      25.027   7.650  48.528  1.00  0.00     0.140 C 
HETATM    5  C5  UNL     1      25.042   7.879  46.973  1.00  0.00     0.044 C 
HETATM    6  O1  UNL     1      25.247   6.322  48.669  1.00  0.00    -0.382 OA
HETATM    7  C6  UNL     1      26.447   5.846  49.046  1.00  0.00     0.170 C 
HETATM    8  C7  UNL     1      26.436   4.348  49.244  1.00  0.00     0.046 C 
HETATM    9  C8  UNL     1      25.774   3.841  50.459  1.00  0.00     0.120 C 
HETATM   10  N1  UNL     1      24.451   3.969  50.759  1.00  0.00    -0.400 N 
HETATM   11  C16 UNL     1      23.383   4.027  49.832  1.00  0.00     0.112 A 
HETATM   12  C17 UNL     1      22.666   2.763  49.515  1.00  0.00     0.056 A 
HETATM   13  C18 UNL     1      21.231   2.912  49.819  1.00  0.00    -0.024 A 
HETATM   14  C19 UNL     1      20.384   3.814  50.275  1.00  0.00    -0.004 A 
HETATM   15  C20 UNL     1      21.064   5.066  50.581  1.00  0.00     0.005 A 
HETATM   16  C21 UNL     1      22.360   5.037  50.346  1.00  0.00    -0.053 A 
HETATM   17  C22 UNL     1      23.127   6.279  50.651  1.00  0.00     0.069 C 
ENDROOT
BRANCH  10  18
HETATM   18  C9  UNL     1      24.052   3.686  52.108  1.00  0.00     0.156 C 
BRANCH  18  19
HETATM   19  C10 UNL     1      24.493   2.468  52.748  1.00  0.00    -0.041 A 
HETATM   20  C11 UNL     1      23.661   1.353  52.580  1.00  0.00     0.012 A 
HETATM   21  C12 UNL     1      24.001   0.119  53.126  1.00  0.00     0.043 A 
HETATM   22  C13 UNL     1      25.161  -0.061  53.850  1.00  0.00     0.116 A 
HETATM   23  F1  UNL     1      25.541  -1.240  54.405  1.00  0.00    -0.206 F 
HETATM   24  C14 UNL     1      26.026   1.016  54.047  1.00  0.00     0.043 A 
HETATM   25  C15 UNL     1      25.626   2.189  53.483  1.00  0.00     0.012 A 
ENDBRANCH  18  19
ENDBRANCH  10  18
TORSDOF 2
ENDMDL
MODEL 7
REMARK VINA RESULT:      -7.5      3.863      7.000
REMARK  2 active torsions:
REMARK  status: ('A' for Active; 'I' for Inactive)
REMARK    1  A    between atoms: N1_10  and  C9_11 
REMARK    2  A    between atoms: C9_11  and  C10_12 
ROOT
HETATM    1  C1  UNL     1      23.733   5.089  51.576  1.00  0.00     0.043 C 
HETATM    2  C2  UNL     1      23.672   3.698  52.151  1.00  0.00    -0.081 C 
HETATM    3  C3  UNL     1      24.782   3.117  52.665  1.00  0.00     0.007 C 
HETATM    4  C4  UNL     1      25.209   1.844  53.301  1.00  0.00     0.140 C 
HETATM    5  C5  UNL     1      26.599   1.459  52.677  1.00  0.00     0.044 C 
HETATM    6  O1  UNL     1      24.374   0.868  52.875  1.00  0.00    -0.382 OA
HETATM    7  C6  UNL     1      23.979  -0.125  53.694  1.00  0.00     0.170 C 
HETATM    8  C7  UNL     1      22.967  -1.039  53.045  1.00  0.00     0.046 C 
HETATM    9  C8  UNL     1      21.596  -0.519  52.899  1.00  0.00     0.120 C 
HETATM   10  N1  UNL     1      21.226   0.554  52.145  1.00  0.00    -0.400 N 
HETATM   11  C16 UNL     1      21.848   0.995  50.952  1.00  0.00     0.112 A 
HETATM   12  C17 UNL     1      21.277   0.534  49.658  1.00  0.00     0.056 A 
HETATM   13  C18 UNL     1      20.899   1.698  48.835  1.00  0.00    -0.024 A 
HETATM   14  C19 UNL     1      20.915   3.016  48.883  1.00  0.00    -0.004 A 
HETATM   15  C20 UNL     1      21.482   3.489  50.140  1.00  0.00     0.005 A 
HETATM   16  C21 UNL     1      21.850   2.522  50.954  1.00  0.00    -0.053 A 
HETATM   17  C22 UNL     1      22.425   2.930  52.268  1.00  0.00     0.069 C 
ENDROOT
BRANCH  10  18
HETATM   18  C9  UNL     1      19.914   1.091  52.365  1.00  0.00     0.156 C 
BRANCH  18  19
HETATM   19  C10 UNL     1      18.757   0.233  52.248  1.00  0.00    -0.041 A 
HETATM   20  C11 UNL     1      17.978   0.410  51.096  1.00  0.00     0.012 A 
HETATM   21  C12 UNL     1      16.857  -0.382  50.863  1.00  0.00     0.043 A 
HETATM   22  C13 UNL     1      16.467  -1.366  51.746  1.00  0.00     0.116 A 
HETATM   23  F1  UNL     1      15.384  -2.166  51.569  1.00  0.00    -0.206 F 
HETATM   24  C14 UNL     1      17.207  -1.586  52.907  1.00  0.00     0.043 A 
HETATM   25  C15 UNL     1      18.288  -0.773  53.065  1.00  0.00     0.012 A 
ENDBRANCH  18  19
ENDBRANCH  10  18
TORSDOF 2
ENDMDL
MODEL 8
REMARK VINA RESULT:      -7.3      5.659     10.886
REMARK  2 active torsions:
REMARK  status: ('A' for Active; 'I' for Inactive)
REMARK    1  A    between atoms: N1_10  and  C9_11 
REMARK    2  A    between atoms: C9_11  and  C10_12 
ROOT
HETATM    1  C1  UNL     1      32.963   8.115  44.251  1.00  0.00     0.043 C 
HETATM    2  C2  UNL     1      32.125   8.729  45.341  1.00  0.00    -0.081 C 
HETATM    3  C3  UNL     1      32.348  10.001  45.747  1.00  0.00     0.007 C 
HETATM    4  C4  UNL     1      31.830  10.989  46.727  1.00  0.00     0.140 C 
HETATM    5  C5  UNL     1      33.075  11.702  47.368  1.00  0.00     0.044 C 
HETATM    6  O1  UNL     1      31.276  10.304  47.755  1.00  0.00    -0.382 OA
HETATM    7  C6  UNL     1      30.164  10.742  48.373  1.00  0.00     0.170 C 
HETATM    8  C7  UNL     1      29.663   9.770  49.415  1.00  0.00     0.046 C 
HETATM    9  C8  UNL     1      28.995   8.552  48.923  1.00  0.00     0.120 C 
HETATM   10  N1  UNL     1      29.574   7.572  48.174  1.00  0.00    -0.400 N 
HETATM   11  C16 UNL     1      30.933   7.179  48.214  1.00  0.00     0.112 A 
HETATM   12  C17 UNL     1      31.300   6.028  49.081  1.00  0.00     0.056 A 
HETATM   13  C18 UNL     1      31.948   4.978  48.272  1.00  0.00    -0.024 A 
HETATM   14  C19 UNL     1      32.310   4.744  47.026  1.00  0.00    -0.004 A 
HETATM   15  C20 UNL     1      31.969   5.866  46.160  1.00  0.00     0.005 A 
HETATM   16  C21 UNL     1      31.379   6.862  46.788  1.00  0.00    -0.053 A 
HETATM   17  C22 UNL     1      30.986   8.040  45.963  1.00  0.00     0.069 C 
ENDROOT
BRANCH  10  18
HETATM   18  C9  UNL     1      28.701   6.627  47.539  1.00  0.00     0.156 C 
BRANCH  18  19
HETATM   19  C10 UNL     1      27.616   6.035  48.287  1.00  0.00    -0.041 A 
HETATM   20  C11 UNL     1      27.797   4.700  48.674  1.00  0.00     0.012 A 
HETATM   21  C12 UNL     1      26.830   4.037  49.425  1.00  0.00     0.043 A 
HETATM   22  C13 UNL     1      25.663   4.657  49.817  1.00  0.00     0.116 A 
HETATM   23  F1  UNL     1      24.688   4.059  50.548  1.00  0.00    -0.206 F 
HETATM   24  C14 UNL     1      25.432   5.985  49.460  1.00  0.00     0.043 A 
HETATM   25  C15 UNL     1      26.422   6.566  48.727  1.00  0.00     0.012 A 
ENDBRANCH  18  19
ENDBRANCH  10  18
TORSDOF 2
ENDMDL
MODEL 9
REMARK VINA RESULT:      -7.3      3.922      7.069
REMARK  2 active torsions:
REMARK  status: ('A' for Active; 'I' for Inactive)
REMARK    1  A    between atoms: N1_10  and  C9_11 
REMARK    2  A    between atoms: C9_11  and  C10_12 
ROOT
HETATM    1  C1  UNL     1      21.899   3.510  46.285  1.00  0.00     0.043 C 
HETATM    2  C2  UNL     1      20.880   3.386  47.387  1.00  0.00    -0.081 C 
HETATM    3  C3  UNL     1      19.724   4.088  47.337  1.00  0.00     0.007 C 
HETATM    4  C4  UNL     1      18.486   4.299  48.131  1.00  0.00     0.140 C 
HETATM    5  C5  UNL     1      18.172   5.839  48.097  1.00  0.00     0.044 C 
HETATM    6  O1  UNL     1      18.778   4.051  49.429  1.00  0.00    -0.382 OA
HETATM    7  C6  UNL     1      17.894   3.448  50.245  1.00  0.00     0.170 C 
HETATM    8  C7  UNL     1      18.469   3.174  51.615  1.00  0.00     0.046 C 
HETATM    9  C8  UNL     1      19.432   2.064  51.724  1.00  0.00     0.120 C 
HETATM   10  N1  UNL     1      20.650   2.002  51.115  1.00  0.00    -0.400 N 
HETATM   11  C16 UNL     1      21.485   3.100  50.797  1.00  0.00     0.112 A 
HETATM   12  C17 UNL     1      22.554   3.464  51.763  1.00  0.00     0.056 A 
HETATM   13  C18 UNL     1      23.868   3.419  51.096  1.00  0.00    -0.024 A 
HETATM   14  C19 UNL     1      24.391   3.166  49.912  1.00  0.00    -0.004 A 
HETATM   15  C20 UNL     1      23.357   2.816  48.945  1.00  0.00     0.005 A 
HETATM   16  C21 UNL     1      22.139   2.824  49.445  1.00  0.00    -0.053 A 
HETATM   17  C22 UNL     1      21.029   2.461  48.518  1.00  0.00     0.069 C 
ENDROOT
BRANCH  10  18
HETATM   18  C9  UNL     1      21.309   0.728  51.091  1.00  0.00     0.156 C 
BRANCH  18  19
HETATM   19  C10 UNL     1      21.851   0.175  52.310  1.00  0.00    -0.041 A 
HETATM   20  C11 UNL     1      20.928  -0.445  53.164  1.00  0.00     0.012 A 
HETATM   21  C12 UNL     1      21.343  -1.038  54.353  1.00  0.00     0.043 A 
HETATM   22  C13 UNL     1      22.666  -1.044  54.741  1.00  0.00     0.116 A 
HETATM   23  F1  UNL     1      23.124  -1.607  55.888  1.00  0.00    -0.206 F 
HETATM   24  C14 UNL     1      23.626  -0.442  53.928  1.00  0.00     0.043 A 
HETATM   25  C15 UNL     1      23.145   0.116  52.783  1.00  0.00     0.012 A 
ENDBRANCH  18  19
ENDBRANCH  10  18
TORSDOF 2
ENDMDL
