MODEL 1
REMARK VINA RESULT:      -7.8      0.000      0.000
REMARK  5 active torsions:
REMARK  status: ('A' for Active; 'I' for Inactive)
REMARK    1  A    between atoms: C2_3  and  C3_4 
REMARK    2  A    between atoms: C3_4  and  C4_5 
REMARK    3  A    between atoms: C4_5  and  O1_6 
REMARK    4  A    between atoms: O1_6  and  C5_7 
REMARK    5  A    between atoms: C7_9  and  N1_10 
ROOT
HETATM    1  C5  UNL     1      27.302   1.535  52.515  1.00  0.00     0.088 A 
HETATM    2  C6  UNL     1      26.386   0.610  52.222  1.00  0.00     0.042 A 
HETATM    3  C7  UNL     1      26.398  -0.513  53.199  1.00  0.00     0.159 A 
HETATM    4  C11 UNL     1      27.484  -0.079  54.115  1.00  0.00     0.031 A 
HETATM    5  C12 UNL     1      27.990   1.080  53.721  1.00  0.00     0.065 A 
HETATM    6 CL1  UNL     1      29.264   2.101  54.359  1.00  0.00    -0.082 Cl
ENDROOT
BRANCH   1   7
HETATM    7  O1  UNL     1      27.330   2.589  51.643  1.00  0.00    -0.349 OA
BRANCH   7   8
HETATM    8  C4  UNL     1      26.261   3.060  50.884  1.00  0.00     0.180 C 
BRANCH   8   9
HETATM    9  C3  UNL     1      26.606   3.181  49.407  1.00  0.00     0.064 C 
BRANCH   9  10
HETATM   10  C2  UNL     1      26.850   4.578  48.994  1.00  0.00    -0.036 A 
HETATM   11  C1  UNL     1      25.968   5.572  49.006  1.00  0.00     0.118 A 
HETATM   12  F1  UNL     1      24.664   5.565  49.385  1.00  0.00    -0.206 F 
HETATM   13  C15 UNL     1      26.588   6.802  48.524  1.00  0.00     0.039 A 
HETATM   14  C14 UNL     1      27.862   6.490  48.232  1.00  0.00    -0.019 A 
HETATM   15  C13 UNL     1      28.174   5.041  48.497  1.00  0.00     0.064 A 
ENDBRANCH   9  10
ENDBRANCH   8   9
ENDBRANCH   7   8
ENDBRANCH   1   7
BRANCH   3  16
HETATM   16  N1  UNL     1      25.125  -0.685  53.852  1.00  0.00    -0.267 N 
HETATM   17  C8  UNL     1      23.945  -0.334  53.152  1.00  0.00     0.130 A 
HETATM   18  C9  UNL     1      22.816  -0.520  53.820  1.00  0.00     0.107 A 
HETATM   19  N2  UNL     1      22.735  -1.036  55.154  1.00  0.00    -0.358 N 
HETATM   20  C10 UNL     1      23.967  -1.374  55.812  1.00  0.00     0.229 A 
HETATM   21  H9  UNL     1      21.822  -1.167  55.640  1.00  0.00     0.166 HD
HETATM   22  N3  UNL     1      25.059  -1.190  55.154  1.00  0.00    -0.167 NA
ENDBRANCH   3  16
TORSDOF 5
ENDMDL
MODEL 2
REMARK VINA RESULT:      -7.7      2.696      3.946
REMARK  5 active torsions:
REMARK  status: ('A' for Active; 'I' for Inactive)
REMARK    1  A    between atoms: C2_3  and  C3_4 
REMARK    2  A    between atoms: C3_4  and  C4_5 
REMARK    3  A    between atoms: C4_5  and  O1_6 
REMARK    4  A    between atoms: O1_6  and  C5_7 
REMARK    5  A    between atoms: C7_9  and  N1_10 
ROOT
HETATM    1  C5  UNL     1      24.536   1.053  52.793  1.00  0.00     0.088 A 
HETATM    2  C6  UNL     1      25.701   1.480  53.286  1.00  0.00     0.042 A 
HETATM    3  C7  UNL     1      26.226   0.571  54.340  1.00  0.00     0.159 A 
HETATM    4  C11 UNL     1      25.161  -0.464  54.377  1.00  0.00     0.031 A 
HETATM    5  C12 UNL     1      24.209  -0.184  53.499  1.00  0.00     0.065 A 
HETATM    6 CL1  UNL     1      22.716  -0.992  53.064  1.00  0.00    -0.082 Cl
ENDROOT
BRANCH   1   7
HETATM    7  O1  UNL     1      24.013   1.858  51.820  1.00  0.00    -0.349 OA
BRANCH   7   8
HETATM    8  C4  UNL     1      24.266   3.218  51.649  1.00  0.00     0.180 C 
BRANCH   8   9
HETATM    9  C3  UNL     1      24.071   3.668  50.208  1.00  0.00     0.064 C 
BRANCH   9  10
HETATM   10  C2  UNL     1      25.299   4.244  49.623  1.00  0.00    -0.036 A 
HETATM   11  C1  UNL     1      26.477   3.641  49.506  1.00  0.00     0.118 A 
HETATM   12  F1  UNL     1      26.848   2.389  49.879  1.00  0.00    -0.206 F 
HETATM   13  C15 UNL     1      27.441   4.536  48.876  1.00  0.00     0.039 A 
HETATM   14  C14 UNL     1      26.783   5.681  48.629  1.00  0.00    -0.019 A 
HETATM   15  C13 UNL     1      25.347   5.626  49.076  1.00  0.00     0.064 A 
ENDBRANCH   9  10
ENDBRANCH   8   9
ENDBRANCH   7   8
ENDBRANCH   1   7
BRANCH   3  16
HETATM   16  N1  UNL     1      27.529   0.047  54.015  1.00  0.00    -0.267 N 
HETATM   17  C8  UNL     1      28.660   0.884  54.178  1.00  0.00     0.130 A 
HETATM   18  C9  UNL     1      29.821   0.331  53.858  1.00  0.00     0.107 A 
HETATM   19  N2  UNL     1      29.980  -1.009  53.376  1.00  0.00    -0.358 N 
HETATM   20  C10 UNL     1      28.793  -1.808  53.231  1.00  0.00     0.229 A 
HETATM   21  H9  UNL     1      30.915  -1.402  53.137  1.00  0.00     0.166 HD
HETATM   22  N3  UNL     1      27.671  -1.262  53.546  1.00  0.00    -0.167 NA
ENDBRANCH   3  16
TORSDOF 5
ENDMDL
MODEL 3
REMARK VINA RESULT:      -7.6      4.697      7.510
REMARK  5 active torsions:
REMARK  status: ('A' for Active; 'I' for Inactive)
REMARK    1  A    between atoms: C2_3  and  C3_4 
REMARK    2  A    between atoms: C3_4  and  C4_5 
REMARK    3  A    between atoms: C4_5  and  O1_6 
REMARK    4  A    between atoms: O1_6  and  C5_7 
REMARK    5  A    between atoms: C7_9  and  N1_10 
ROOT
HETATM    1  C5  UNL     1      24.075  -0.051  53.284  1.00  0.00     0.088 A 
HETATM    2  C6  UNL     1      25.280  -0.601  53.119  1.00  0.00     0.042 A 
HETATM    3  C7  UNL     1      26.148   0.220  52.232  1.00  0.00     0.159 A 
HETATM    4  C11 UNL     1      25.237   1.348  51.909  1.00  0.00     0.031 A 
HETATM    5  C12 UNL     1      24.066   1.187  52.508  1.00  0.00     0.065 A 
HETATM    6 CL1  UNL     1      22.598   2.146  52.529  1.00  0.00    -0.082 Cl
ENDROOT
BRANCH   1   7
HETATM    7  O1  UNL     1      23.239  -0.770  54.093  1.00  0.00    -0.349 OA
BRANCH   7   8
HETATM    8  C4  UNL     1      22.001  -1.302  53.735  1.00  0.00     0.180 C 
BRANCH   8   9
HETATM    9  C3  UNL     1      20.839  -0.478  54.269  1.00  0.00     0.064 C 
BRANCH   9  10
HETATM   10  C2  UNL     1      19.677  -0.479  53.357  1.00  0.00    -0.036 A 
HETATM   11  C1  UNL     1      18.685  -1.363  53.342  1.00  0.00     0.118 A 
HETATM   12  F1  UNL     1      18.486  -2.452  54.128  1.00  0.00    -0.206 F 
HETATM   13  C15 UNL     1      17.725  -1.026  52.297  1.00  0.00     0.039 A 
HETATM   14  C14 UNL     1      18.192   0.086  51.704  1.00  0.00    -0.019 A 
HETATM   15  C13 UNL     1      19.486   0.559  52.310  1.00  0.00     0.064 A 
ENDBRANCH   9  10
ENDBRANCH   8   9
ENDBRANCH   7   8
ENDBRANCH   1   7
BRANCH   3  16
HETATM   16  N1  UNL     1      27.366   0.631  52.884  1.00  0.00    -0.267 N 
HETATM   17  C8  UNL     1      28.271  -0.365  53.327  1.00  0.00     0.130 A 
HETATM   18  C9  UNL     1      29.367   0.091  53.917  1.00  0.00     0.107 A 
HETATM   19  N2  UNL     1      29.665   1.478  54.119  1.00  0.00    -0.358 N 
HETATM   20  C10 UNL     1      28.707   2.440  53.647  1.00  0.00     0.229 A 
HETATM   21  H9  UNL     1      30.542   1.791  54.589  1.00  0.00     0.166 HD
HETATM   22  N3  UNL     1      27.646   1.986  53.075  1.00  0.00    -0.167 NA
ENDBRANCH   3  16
TORSDOF 5
ENDMDL
MODEL 4
REMARK VINA RESULT:      -7.6      3.590      6.413
REMARK  5 active torsions:
REMARK  status: ('A' for Active; 'I' for Inactive)
REMARK    1  A    between atoms: C2_3  and  C3_4 
REMARK    2  A    between atoms: C3_4  and  C4_5 
REMARK    3  A    between atoms: C4_5  and  O1_6 
REMARK    4  A    between atoms: O1_6  and  C5_7 
REMARK    5  A    between atoms: C7_9  and  N1_10 
ROOT
HETATM    1  C5  UNL     1      24.419   2.133  51.430  1.00  0.00     0.088 A 
HETATM    2  C6  UNL     1      25.151   1.105  51.865  1.00  0.00     0.042 A 
HETATM    3  C7  UNL     1      26.597   1.285  51.563  1.00  0.00     0.159 A 
HETATM    4  C11 UNL     1      26.581   2.602  50.875  1.00  0.00     0.031 A 
HETATM    5  C12 UNL     1      25.345   3.075  50.804  1.00  0.00     0.065 A 
HETATM    6 CL1  UNL     1      24.671   4.546  50.131  1.00  0.00    -0.082 Cl
ENDROOT
BRANCH   1   7
HETATM    7  O1  UNL     1      23.081   2.013  51.684  1.00  0.00    -0.349 OA
BRANCH   7   8
HETATM    8  C4  UNL     1      22.095   1.661  50.765  1.00  0.00     0.180 C 
BRANCH   8   9
HETATM    9  C3  UNL     1      21.448   0.323  51.092  1.00  0.00     0.064 C 
BRANCH   9  10
HETATM   10  C2  UNL     1      21.525  -0.009  52.530  1.00  0.00    -0.036 A 
HETATM   11  C1  UNL     1      20.913   0.627  53.522  1.00  0.00     0.118 A 
HETATM   12  F1  UNL     1      20.088   1.705  53.478  1.00  0.00    -0.206 F 
HETATM   13  C15 UNL     1      21.237   0.001  54.799  1.00  0.00     0.039 A 
HETATM   14  C14 UNL     1      22.060  -1.022  54.516  1.00  0.00    -0.019 A 
HETATM   15  C13 UNL     1      22.338  -1.145  53.041  1.00  0.00     0.064 A 
ENDBRANCH   9  10
ENDBRANCH   8   9
ENDBRANCH   7   8
ENDBRANCH   1   7
BRANCH   3  16
HETATM   16  N1  UNL     1      27.413   1.265  52.751  1.00  0.00    -0.267 N 
HETATM   17  C8  UNL     1      27.223   0.222  53.691  1.00  0.00     0.130 A 
HETATM   18  C9  UNL     1      28.009   0.272  54.756  1.00  0.00     0.107 A 
HETATM   19  N2  UNL     1      28.995   1.284  54.993  1.00  0.00    -0.358 N 
HETATM   20  C10 UNL     1      29.140   2.316  54.002  1.00  0.00     0.229 A 
HETATM   21  H9  UNL     1      29.593   1.283  55.847  1.00  0.00     0.166 HD
HETATM   22  N3  UNL     1      28.372   2.257  52.971  1.00  0.00    -0.167 NA
ENDBRANCH   3  16
TORSDOF 5
ENDMDL
MODEL 5
REMARK VINA RESULT:      -7.4      4.648      6.757
REMARK  5 active torsions:
REMARK  status: ('A' for Active; 'I' for Inactive)
REMARK    1  A    between atoms: C2_3  and  C3_4 
REMARK    2  A    between atoms: C3_4  and  C4_5 
REMARK    3  A    between atoms: C4_5  and  O1_6 
REMARK    4  A    between atoms: O1_6  and  C5_7 
REMARK    5  A    between atoms: C7_9  and  N1_10 
ROOT
HETATM    1  C5  UNL     1      23.732   0.697  53.221  1.00  0.00     0.088 A 
HETATM    2  C6  UNL     1      23.909   1.487  52.159  1.00  0.00     0.042 A 
HETATM    3  C7  UNL     1      22.614   1.926  51.571  1.00  0.00     0.159 A 
HETATM    4  C11 UNL     1      21.649   1.254  52.479  1.00  0.00     0.031 A 
HETATM    5  C12 UNL     1      22.290   0.561  53.409  1.00  0.00     0.065 A 
HETATM    6 CL1  UNL     1      21.737  -0.430  54.745  1.00  0.00    -0.082 Cl
ENDROOT
BRANCH   1   7
HETATM    7  O1  UNL     1      24.895   0.266  53.796  1.00  0.00    -0.349 OA
BRANCH   7   8
HETATM    8  C4  UNL     1      25.457  -1.003  53.671  1.00  0.00     0.180 C 
BRANCH   8   9
HETATM    9  C3  UNL     1      26.486  -1.074  52.551  1.00  0.00     0.064 C 
BRANCH   9  10
HETATM   10  C2  UNL     1      27.855  -0.777  53.019  1.00  0.00    -0.036 A 
HETATM   11  C1  UNL     1      28.826  -1.657  53.233  1.00  0.00     0.118 A 
HETATM   12  F1  UNL     1      28.817  -3.007  53.083  1.00  0.00    -0.206 F 
HETATM   13  C15 UNL     1      30.033  -0.977  53.691  1.00  0.00     0.039 A 
HETATM   14  C14 UNL     1      29.730   0.331  53.736  1.00  0.00    -0.019 A 
HETATM   15  C13 UNL     1      28.311   0.608  53.315  1.00  0.00     0.064 A 
ENDBRANCH   9  10
ENDBRANCH   8   9
ENDBRANCH   7   8
ENDBRANCH   1   7
BRANCH   3  16
HETATM   16  N1  UNL     1      22.482   3.361  51.548  1.00  0.00    -0.267 N 
HETATM   17  C8  UNL     1      21.236   3.925  51.179  1.00  0.00     0.130 A 
HETATM   18  C9  UNL     1      21.194   5.250  51.181  1.00  0.00     0.107 A 
HETATM   19  N2  UNL     1      22.297   6.099  51.521  1.00  0.00    -0.358 N 
HETATM   20  C10 UNL     1      23.535   5.466  51.886  1.00  0.00     0.229 A 
HETATM   21  H9  UNL     1      22.217   7.138  51.508  1.00  0.00     0.166 HD
HETATM   22  N3  UNL     1      23.565   4.179  51.881  1.00  0.00    -0.167 NA
ENDBRANCH   3  16
TORSDOF 5
ENDMDL
MODEL 6
REMARK VINA RESULT:      -7.4      2.662      3.642
REMARK  5 active torsions:
REMARK  status: ('A' for Active; 'I' for Inactive)
REMARK    1  A    between atoms: C2_3  and  C3_4 
REMARK    2  A    between atoms: C3_4  and  C4_5 
REMARK    3  A    between atoms: C4_5  and  O1_6 
REMARK    4  A    between atoms: O1_6  and  C5_7 
REMARK    5  A    between atoms: C7_9  and  N1_10 
ROOT
HETATM    1  C5  UNL     1      24.495   2.322  51.778  1.00  0.00     0.088 A 
HETATM    2  C6  UNL     1      25.458   2.193  52.694  1.00  0.00     0.042 A 
HETATM    3  C7  UNL     1      25.256   0.991  53.547  1.00  0.00     0.159 A 
HETATM    4  C11 UNL     1      24.004   0.439  52.967  1.00  0.00     0.031 A 
HETATM    5  C12 UNL     1      23.581   1.198  51.967  1.00  0.00     0.065 A 
HETATM    6 CL1  UNL     1      22.197   1.092  50.896  1.00  0.00    -0.082 Cl
ENDROOT
BRANCH   1   7
HETATM    7  O1  UNL     1      24.637   3.415  50.968  1.00  0.00    -0.349 OA
BRANCH   7   8
HETATM    8  C4  UNL     1      25.036   3.407  49.634  1.00  0.00     0.180 C 
BRANCH   8   9
HETATM    9  C3  UNL     1      26.533   3.630  49.474  1.00  0.00     0.064 C 
BRANCH   9  10
HETATM   10  C2  UNL     1      26.857   4.988  48.990  1.00  0.00    -0.036 A 
HETATM   11  C1  UNL     1      27.978   5.365  48.386  1.00  0.00     0.118 A 
HETATM   12  F1  UNL     1      29.077   4.633  48.068  1.00  0.00    -0.206 F 
HETATM   13  C15 UNL     1      27.922   6.786  48.060  1.00  0.00     0.039 A 
HETATM   14  C14 UNL     1      26.728   7.223  48.494  1.00  0.00    -0.019 A 
HETATM   15  C13 UNL     1      25.915   6.130  49.136  1.00  0.00     0.064 A 
ENDBRANCH   9  10
ENDBRANCH   8   9
ENDBRANCH   7   8
ENDBRANCH   1   7
BRANCH   3  16
HETATM   16  N1  UNL     1      26.372   0.080  53.485  1.00  0.00    -0.267 N 
HETATM   17  C8  UNL     1      27.590   0.452  54.103  1.00  0.00     0.130 A 
HETATM   18  C9  UNL     1      28.568  -0.437  54.002  1.00  0.00     0.107 A 
HETATM   19  N2  UNL     1      28.457  -1.696  53.328  1.00  0.00    -0.358 N 
HETATM   20  C10 UNL     1      27.194  -2.015  52.720  1.00  0.00     0.229 A 
HETATM   21  H9  UNL     1      29.254  -2.365  53.275  1.00  0.00     0.166 HD
HETATM   22  N3  UNL     1      26.251  -1.145  52.824  1.00  0.00    -0.167 NA
ENDBRANCH   3  16
TORSDOF 5
ENDMDL
MODEL 7
REMARK VINA RESULT:      -7.1      4.075      6.704
REMARK  5 active torsions:
REMARK  status: ('A' for Active; 'I' for Inactive)
REMARK    1  A    between atoms: C2_3  and  C3_4 
REMARK    2  A    between atoms: C3_4  and  C4_5 
REMARK    3  A    between atoms: C4_5  and  O1_6 
REMARK    4  A    between atoms: O1_6  and  C5_7 
REMARK    5  A    between atoms: C7_9  and  N1_10 
ROOT
HETATM    1  C5  UNL     1      23.466   0.605  53.175  1.00  0.00     0.088 A 
HETATM    2  C6  UNL     1      24.622  -0.061  53.117  1.00  0.00     0.042 A 
HETATM    3  C7  UNL     1      25.655   0.685  52.350  1.00  0.00     0.159 A 
HETATM    4  C11 UNL     1      24.899   1.906  51.970  1.00  0.00     0.031 A 
HETATM    5  C12 UNL     1      23.662   1.852  52.440  1.00  0.00     0.065 A 
HETATM    6 CL1  UNL     1      22.302   2.954  52.339  1.00  0.00    -0.082 Cl
ENDROOT
BRANCH   1   7
HETATM    7  O1  UNL     1      22.482  -0.043  53.870  1.00  0.00    -0.349 OA
BRANCH   7   8
HETATM    8  C4  UNL     1      21.160   0.373  54.009  1.00  0.00     0.180 C 
BRANCH   8   9
HETATM    9  C3  UNL     1      20.183  -0.551  53.297  1.00  0.00     0.064 C 
BRANCH   9  10
HETATM   10  C2  UNL     1      19.601   0.062  52.085  1.00  0.00    -0.036 A 
HETATM   11  C1  UNL     1      20.249   0.370  50.967  1.00  0.00     0.118 A 
HETATM   12  F1  UNL     1      21.561   0.210  50.656  1.00  0.00    -0.206 F 
HETATM   13  C15 UNL     1      19.331   0.960  49.999  1.00  0.00     0.039 A 
HETATM   14  C14 UNL     1      18.125   0.983  50.592  1.00  0.00    -0.019 A 
HETATM   15  C13 UNL     1      18.160   0.416  51.986  1.00  0.00     0.064 A 
ENDBRANCH   9  10
ENDBRANCH   8   9
ENDBRANCH   7   8
ENDBRANCH   1   7
BRANCH   3  16
HETATM   16  N1  UNL     1      26.833   0.956  53.136  1.00  0.00    -0.267 N 
HETATM   17  C8  UNL     1      27.564   2.142  52.883  1.00  0.00     0.130 A 
HETATM   18  C9  UNL     1      28.633   2.320  53.646  1.00  0.00     0.107 A 
HETATM   19  N2  UNL     1      29.064   1.412  54.666  1.00  0.00    -0.358 N 
HETATM   20  C10 UNL     1      28.280   0.225  54.875  1.00  0.00     0.229 A 
HETATM   21  H9  UNL     1      29.913   1.594  55.243  1.00  0.00     0.166 HD
HETATM   22  N3  UNL     1      27.243   0.063  54.129  1.00  0.00    -0.167 NA
ENDBRANCH   3  16
TORSDOF 5
ENDMDL
MODEL 8
REMARK VINA RESULT:      -7.0      3.937      5.725
REMARK  5 active torsions:
REMARK  status: ('A' for Active; 'I' for Inactive)
REMARK    1  A    between atoms: C2_3  and  C3_4 
REMARK    2  A    between atoms: C3_4  and  C4_5 
REMARK    3  A    between atoms: C4_5  and  O1_6 
REMARK    4  A    between atoms: O1_6  and  C5_7 
REMARK    5  A    between atoms: C7_9  and  N1_10 
ROOT
HETATM    1  C5  UNL     1      24.222   2.404  51.486  1.00  0.00     0.088 A 
HETATM    2  C6  UNL     1      23.658   2.267  52.688  1.00  0.00     0.042 A 
HETATM    3  C7  UNL     1      22.173   2.212  52.603  1.00  0.00     0.159 A 
HETATM    4  C11 UNL     1      21.969   2.341  51.137  1.00  0.00     0.031 A 
HETATM    5  C12 UNL     1      23.133   2.450  50.513  1.00  0.00     0.065 A 
HETATM    6 CL1  UNL     1      23.564   2.626  48.823  1.00  0.00    -0.082 Cl
ENDROOT
BRANCH   1   7
HETATM    7  O1  UNL     1      25.588   2.460  51.513  1.00  0.00    -0.349 OA
BRANCH   7   8
HETATM    8  C4  UNL     1      26.455   1.379  51.654  1.00  0.00     0.180 C 
BRANCH   8   9
HETATM    9  C3  UNL     1      26.842   1.131  53.105  1.00  0.00     0.064 C 
BRANCH   9  10
HETATM   10  C2  UNL     1      27.944   0.156  53.240  1.00  0.00    -0.036 A 
HETATM   11  C1  UNL     1      27.872  -1.152  53.020  1.00  0.00     0.118 A 
HETATM   12  F1  UNL     1      26.812  -1.906  52.630  1.00  0.00    -0.206 F 
HETATM   13  C15 UNL     1      29.169  -1.775  53.260  1.00  0.00     0.039 A 
HETATM   14  C14 UNL     1      29.999  -0.784  53.627  1.00  0.00    -0.019 A 
HETATM   15  C13 UNL     1      29.314   0.557  53.656  1.00  0.00     0.064 A 
ENDBRANCH   9  10
ENDBRANCH   8   9
ENDBRANCH   7   8
ENDBRANCH   1   7
BRANCH   3  16
HETATM   16  N1  UNL     1      21.636   0.994  53.156  1.00  0.00    -0.267 N 
HETATM   17  C8  UNL     1      20.264   0.704  52.963  1.00  0.00     0.130 A 
HETATM   18  C9  UNL     1      19.846  -0.433  53.501  1.00  0.00     0.107 A 
HETATM   19  N2  UNL     1      20.678  -1.339  54.235  1.00  0.00    -0.358 N 
HETATM   20  C10 UNL     1      22.062  -0.988  54.398  1.00  0.00     0.229 A 
HETATM   21  H9  UNL     1      20.305  -2.224  54.641  1.00  0.00     0.166 HD
HETATM   22  N3  UNL     1      22.458   0.118  53.870  1.00  0.00    -0.167 NA
ENDBRANCH   3  16
TORSDOF 5
ENDMDL
MODEL 9
REMARK VINA RESULT:      -7.0      4.002      5.214
REMARK  5 active torsions:
REMARK  status: ('A' for Active; 'I' for Inactive)
REMARK    1  A    between atoms: C2_3  and  C3_4 
REMARK    2  A    between atoms: C3_4  and  C4_5 
REMARK    3  A    between atoms: C4_5  and  O1_6 
REMARK    4  A    between atoms: O1_6  and  C5_7 
REMARK    5  A    between atoms: C7_9  and  N1_10 
ROOT
HETATM    1  C5  UNL     1      24.487   0.948  52.948  1.00  0.00     0.088 A 
HETATM    2  C6  UNL     1      25.655   1.343  53.460  1.00  0.00     0.042 A 
HETATM    3  C7  UNL     1      26.189   0.366  54.447  1.00  0.00     0.159 A 
HETATM    4  C11 UNL     1      25.126  -0.672  54.422  1.00  0.00     0.031 A 
HETATM    5  C12 UNL     1      24.167  -0.335  53.572  1.00  0.00     0.065 A 
HETATM    6 CL1  UNL     1      22.672  -1.116  53.095  1.00  0.00    -0.082 Cl
ENDROOT
BRANCH   1   7
HETATM    7  O1  UNL     1      23.955   1.815  52.035  1.00  0.00    -0.349 OA
BRANCH   7   8
HETATM    8  C4  UNL     1      23.332   3.029  52.316  1.00  0.00     0.180 C 
BRANCH   8   9
HETATM    9  C3  UNL     1      21.991   3.170  51.609  1.00  0.00     0.064 C 
BRANCH   9  10
HETATM   10  C2  UNL     1      21.972   2.507  50.290  1.00  0.00    -0.036 A 
HETATM   11  C1  UNL     1      21.443   1.321  50.009  1.00  0.00     0.118 A 
HETATM   12  F1  UNL     1      20.807   0.443  50.827  1.00  0.00    -0.206 F 
HETATM   13  C15 UNL     1      21.624   1.010  48.596  1.00  0.00     0.039 A 
HETATM   14  C14 UNL     1      22.276   2.056  48.062  1.00  0.00    -0.019 A 
HETATM   15  C13 UNL     1      22.573   3.127  49.079  1.00  0.00     0.064 A 
ENDBRANCH   9  10
ENDBRANCH   8   9
ENDBRANCH   7   8
ENDBRANCH   1   7
BRANCH   3  16
HETATM   16  N1  UNL     1      27.491  -0.132  54.077  1.00  0.00    -0.267 N 
HETATM   17  C8  UNL     1      28.617   0.710  54.250  1.00  0.00     0.130 A 
HETATM   18  C9  UNL     1      29.777   0.182  53.887  1.00  0.00     0.107 A 
HETATM   19  N2  UNL     1      29.939  -1.138  53.353  1.00  0.00    -0.358 N 
HETATM   20  C10 UNL     1      28.757  -1.943  53.201  1.00  0.00     0.229 A 
HETATM   21  H9  UNL     1      30.873  -1.512  53.081  1.00  0.00     0.166 HD
HETATM   22  N3  UNL     1      27.636  -1.420  53.557  1.00  0.00    -0.167 NA
ENDBRANCH   3  16
TORSDOF 5
ENDMDL
