MODEL 1
REMARK VINA RESULT:      -9.3      0.000      0.000
REMARK  1 active torsions:
REMARK  status: ('A' for Active; 'I' for Inactive)
REMARK       I    between atoms: N1_7  and  C6_8 
REMARK       I    between atoms: C6_8  and  N2_10 
REMARK    1  A    between atoms: N2_10  and  C7_11 
ROOT
HETATM    1  C7  UNL     1      24.024   3.767  50.324  1.00  0.00     0.036 C 
HETATM    2  C8  UNL     1      23.071   4.060  49.540  1.00  0.00     0.043 C 
HETATM    3  C9  UNL     1      21.652   3.733  49.442  1.00  0.00     0.217 C 
HETATM    4  N3  UNL     1      20.865   3.163  50.323  1.00  0.00    -0.291 NA
HETATM    5  C10 UNL     1      21.545   2.856  51.558  1.00  0.00     0.089 C 
HETATM    6  C11 UNL     1      20.655   3.368  52.373  1.00  0.00     0.117 C 
HETATM    7  N4  UNL     1      19.542   2.693  52.352  1.00  0.00    -0.176 NA
HETATM    8  N5  UNL     1      19.640   1.466  51.681  1.00  0.00    -0.310 N 
HETATM    9  C12 UNL     1      20.568   0.379  51.657  1.00  0.00     0.168 C 
HETATM   10  C13 UNL     1      20.938  -0.144  53.001  1.00  0.00    -0.009 C 
HETATM   11  C14 UNL     1      21.934  -0.359  53.873  1.00  0.00    -0.023 C 
HETATM   12  C15 UNL     1      23.234   0.110  53.317  1.00  0.00     0.020 C 
HETATM   13  C16 UNL     1      24.551   0.149  53.645  1.00  0.00     0.002 C 
HETATM   14  C17 UNL     1      25.368   0.805  52.582  1.00  0.00     0.033 C 
HETATM   15  C18 UNL     1      24.506   1.500  51.595  1.00  0.00    -0.024 C 
HETATM   16  C19 UNL     1      24.642   2.782  51.199  1.00  0.00     0.025 C 
HETATM   17  H10 UNL     1      18.754   1.656  51.193  1.00  0.00     0.182 HD
ENDROOT
BRANCH   1  18
HETATM   18  N2  UNL     1      25.133   4.527  49.783  1.00  0.00    -0.308 N 
HETATM   19  C6  UNL     1      25.618   5.854  49.832  1.00  0.00     0.329 C 
HETATM   20  N1  UNL     1      26.721   6.503  49.270  1.00  0.00    -0.272 N 
HETATM   21  O1  UNL     1      24.855   6.587  50.551  1.00  0.00    -0.246 OA
HETATM   22  C5  UNL     1      27.744   5.950  48.458  1.00  0.00     0.194 C 
HETATM   23  C20 UNL     1      26.831   7.926  49.521  1.00  0.00     0.170 C 
HETATM   24  C4  UNL     1      28.702   6.558  47.801  1.00  0.00     0.062 C 
HETATM   25  F1  UNL     1      27.769   4.631  48.254  1.00  0.00    -0.186 F 
HETATM   26  C3  UNL     1      28.789   7.996  47.945  1.00  0.00     0.008 C 
HETATM   27  C2  UNL     1      27.896   8.531  48.728  1.00  0.00    -0.065 C 
HETATM   28  C1  UNL     1      27.910  10.016  48.934  1.00  0.00     0.045 C 
HETATM   29  H6  UNL     1      25.891   4.108  49.165  1.00  0.00     0.170 HD
ENDBRANCH   1  18
TORSDOF 1
ENDMDL
MODEL 2
REMARK VINA RESULT:      -9.3      3.709      5.575
REMARK  1 active torsions:
REMARK  status: ('A' for Active; 'I' for Inactive)
REMARK       I    between atoms: N1_7  and  C6_8 
REMARK       I    between atoms: C6_8  and  N2_10 
REMARK    1  A    between atoms: N2_10  and  C7_11 
ROOT
HETATM    1  C7  UNL     1      24.442   2.269  51.070  1.00  0.00     0.036 C 
HETATM    2  C8  UNL     1      25.669   2.577  51.163  1.00  0.00     0.043 C 
HETATM    3  C9  UNL     1      26.814   2.112  51.938  1.00  0.00     0.217 C 
HETATM    4  N3  UNL     1      26.945   1.026  52.662  1.00  0.00    -0.291 NA
HETATM    5  C10 UNL     1      25.765   0.196  52.635  1.00  0.00     0.089 C 
HETATM    6  C11 UNL     1      26.364  -0.941  52.377  1.00  0.00     0.117 C 
HETATM    7  N4  UNL     1      27.103  -1.331  53.375  1.00  0.00    -0.176 NA
HETATM    8  N5  UNL     1      26.890  -0.601  54.553  1.00  0.00    -0.310 N 
HETATM    9  C12 UNL     1      25.751  -0.132  55.280  1.00  0.00     0.168 C 
HETATM   10  C13 UNL     1      24.722  -1.173  55.549  1.00  0.00    -0.009 C 
HETATM   11  C14 UNL     1      23.448  -1.551  55.361  1.00  0.00    -0.023 C 
HETATM   12  C15 UNL     1      22.715  -0.546  54.541  1.00  0.00     0.020 C 
HETATM   13  C16 UNL     1      21.469  -0.313  54.053  1.00  0.00     0.002 C 
HETATM   14  C17 UNL     1      21.415   0.945  53.253  1.00  0.00     0.033 C 
HETATM   15  C18 UNL     1      22.777   1.451  52.952  1.00  0.00    -0.024 C 
HETATM   16  C19 UNL     1      23.239   1.785  51.730  1.00  0.00     0.025 C 
HETATM   17  H10 UNL     1      27.906  -0.527  54.698  1.00  0.00     0.182 HD
ENDROOT
BRANCH   1  18
HETATM   18  N2  UNL     1      23.960   3.163  50.036  1.00  0.00    -0.308 N 
HETATM   19  C6  UNL     1      23.162   3.087  48.871  1.00  0.00     0.329 C 
HETATM   20  N1  UNL     1      22.741   4.024  47.924  1.00  0.00    -0.272 N 
HETATM   21  O1  UNL     1      22.761   1.887  48.677  1.00  0.00    -0.246 OA
HETATM   22  C5  UNL     1      23.002   5.418  47.892  1.00  0.00     0.194 C 
HETATM   23  C20 UNL     1      21.959   3.515  46.815  1.00  0.00     0.170 C 
HETATM   24  C4  UNL     1      22.748   6.288  46.946  1.00  0.00     0.062 C 
HETATM   25  F1  UNL     1      23.637   5.982  48.921  1.00  0.00    -0.186 F 
HETATM   26  C3  UNL     1      22.052   5.801  45.772  1.00  0.00     0.008 C 
HETATM   27  C2  UNL     1      21.749   4.534  45.793  1.00  0.00    -0.065 C 
HETATM   28  C1  UNL     1      21.029   3.944  44.617  1.00  0.00     0.045 C 
HETATM   29  H6  UNL     1      24.169   4.206  50.012  1.00  0.00     0.170 HD
ENDBRANCH   1  18
TORSDOF 1
ENDMDL
MODEL 3
REMARK VINA RESULT:      -9.2      2.728      4.023
REMARK  1 active torsions:
REMARK  status: ('A' for Active; 'I' for Inactive)
REMARK       I    between atoms: N1_7  and  C6_8 
REMARK       I    between atoms: C6_8  and  N2_10 
REMARK    1  A    between atoms: N2_10  and  C7_11 
ROOT
HETATM    1  C7  UNL     1      26.290   2.692  51.174  1.00  0.00     0.036 C 
HETATM    2  C8  UNL     1      27.250   2.639  52.001  1.00  0.00     0.043 C 
HETATM    3  C9  UNL     1      27.614   1.802  53.138  1.00  0.00     0.217 C 
HETATM    4  N3  UNL     1      27.109   0.654  53.524  1.00  0.00    -0.291 NA
HETATM    5  C10 UNL     1      26.059   0.188  52.649  1.00  0.00     0.089 C 
HETATM    6  C11 UNL     1      26.498  -1.038  52.497  1.00  0.00     0.117 C 
HETATM    7  N4  UNL     1      26.421  -1.715  53.607  1.00  0.00    -0.176 NA
HETATM    8  N5  UNL     1      25.673  -1.077  54.606  1.00  0.00    -0.310 N 
HETATM    9  C12 UNL     1      24.422  -0.388  54.671  1.00  0.00     0.168 C 
HETATM   10  C13 UNL     1      23.281  -1.127  54.064  1.00  0.00    -0.009 C 
HETATM   11  C14 UNL     1      22.328  -1.118  53.119  1.00  0.00    -0.023 C 
HETATM   12  C15 UNL     1      22.404   0.127  52.305  1.00  0.00     0.020 C 
HETATM   13  C16 UNL     1      21.752   0.743  51.284  1.00  0.00     0.002 C 
HETATM   14  C17 UNL     1      22.392   2.041  50.922  1.00  0.00     0.033 C 
HETATM   15  C18 UNL     1      23.725   2.179  51.557  1.00  0.00    -0.024 C 
HETATM   16  C19 UNL     1      24.871   2.495  50.919  1.00  0.00     0.025 C 
HETATM   17  H10 UNL     1      26.398  -1.301  55.301  1.00  0.00     0.182 HD
ENDROOT
BRANCH   1  18
HETATM   18  N2  UNL     1      26.672   3.784  50.302  1.00  0.00    -0.308 N 
HETATM   19  C6  UNL     1      26.114   4.994  49.829  1.00  0.00     0.329 C 
HETATM   20  N1  UNL     1      26.571   6.004  48.978  1.00  0.00    -0.272 N 
HETATM   21  O1  UNL     1      24.937   5.164  50.305  1.00  0.00    -0.246 OA
HETATM   22  C5  UNL     1      27.828   6.103  48.330  1.00  0.00     0.194 C 
HETATM   23  C20 UNL     1      25.641   7.078  48.693  1.00  0.00     0.170 C 
HETATM   24  C4  UNL     1      28.227   6.954  47.417  1.00  0.00     0.062 C 
HETATM   25  F1  UNL     1      28.774   5.203  48.609  1.00  0.00    -0.186 F 
HETATM   26  C3  UNL     1      27.291   7.990  47.029  1.00  0.00     0.008 C 
HETATM   27  C2  UNL     1      26.145   7.960  47.646  1.00  0.00    -0.065 C 
HETATM   28  C1  UNL     1      25.114   8.995  47.305  1.00  0.00     0.045 C 
HETATM   29  H6  UNL     1      27.613   3.846  49.809  1.00  0.00     0.170 HD
ENDBRANCH   1  18
TORSDOF 1
ENDMDL
MODEL 4
REMARK VINA RESULT:      -9.2      4.577      5.819
REMARK  1 active torsions:
REMARK  status: ('A' for Active; 'I' for Inactive)
REMARK       I    between atoms: N1_7  and  C6_8 
REMARK       I    between atoms: C6_8  and  N2_10 
REMARK    1  A    between atoms: N2_10  and  C7_11 
ROOT
HETATM    1  C7  UNL     1      23.566   1.410  52.335  1.00  0.00     0.036 C 
HETATM    2  C8  UNL     1      23.586   2.112  51.279  1.00  0.00     0.043 C 
HETATM    3  C9  UNL     1      22.597   2.612  50.330  1.00  0.00     0.217 C 
HETATM    4  N3  UNL     1      21.290   2.646  50.429  1.00  0.00    -0.291 NA
HETATM    5  C10 UNL     1      20.815   2.119  51.686  1.00  0.00     0.089 C 
HETATM    6  C11 UNL     1      20.001   3.103  51.984  1.00  0.00     0.117 C 
HETATM    7  N4  UNL     1      18.990   3.153  51.165  1.00  0.00    -0.176 NA
HETATM    8  N5  UNL     1      18.875   2.023  50.343  1.00  0.00    -0.310 N 
HETATM    9  C12 UNL     1      18.954   0.608  50.524  1.00  0.00     0.168 C 
HETATM   10  C13 UNL     1      18.114   0.082  51.635  1.00  0.00    -0.009 C 
HETATM   11  C14 UNL     1      18.104  -0.571  52.807  1.00  0.00    -0.023 C 
HETATM   12  C15 UNL     1      19.486  -0.944  53.216  1.00  0.00     0.020 C 
HETATM   13  C16 UNL     1      20.134  -1.609  54.208  1.00  0.00     0.002 C 
HETATM   14  C17 UNL     1      21.612  -1.602  54.006  1.00  0.00     0.033 C 
HETATM   15  C18 UNL     1      22.007  -0.632  52.955  1.00  0.00    -0.024 C 
HETATM   16  C19 UNL     1      22.949   0.324  53.082  1.00  0.00     0.025 C 
HETATM   17  H10 UNL     1      18.707   2.628  49.527  1.00  0.00     0.182 HD
ENDROOT
BRANCH   1  18
HETATM   18  N2  UNL     1      24.959   1.385  52.734  1.00  0.00    -0.308 N 
HETATM   19  C6  UNL     1      26.027   0.458  52.759  1.00  0.00     0.329 C 
HETATM   20  N1  UNL     1      27.362   0.531  53.166  1.00  0.00    -0.272 N 
HETATM   21  O1  UNL     1      25.649  -0.678  52.308  1.00  0.00    -0.246 OA
HETATM   22  C5  UNL     1      28.064   1.652  53.678  1.00  0.00     0.194 C 
HETATM   23  C20 UNL     1      28.130  -0.695  53.083  1.00  0.00     0.170 C 
HETATM   24  C4  UNL     1      29.264   1.712  54.202  1.00  0.00     0.062 C 
HETATM   25  F1  UNL     1      27.457   2.841  53.703  1.00  0.00    -0.186 F 
HETATM   26  C3  UNL     1      30.033   0.484  54.228  1.00  0.00     0.008 C 
HETATM   27  C2  UNL     1      29.437  -0.554  53.715  1.00  0.00    -0.065 C 
HETATM   28  C1  UNL     1      30.159  -1.869  53.703  1.00  0.00     0.045 C 
HETATM   29  H6  UNL     1      25.477   2.227  53.128  1.00  0.00     0.170 HD
ENDBRANCH   1  18
TORSDOF 1
ENDMDL
MODEL 5
REMARK VINA RESULT:      -8.8      3.233      7.021
REMARK  1 active torsions:
REMARK  status: ('A' for Active; 'I' for Inactive)
REMARK       I    between atoms: N1_7  and  C6_8 
REMARK       I    between atoms: C6_8  and  N2_10 
REMARK    1  A    between atoms: N2_10  and  C7_11 
ROOT
HETATM    1  C7  UNL     1      24.693   4.204  51.329  1.00  0.00     0.036 C 
HETATM    2  C8  UNL     1      23.793   4.178  52.222  1.00  0.00     0.043 C 
HETATM    3  C9  UNL     1      22.478   4.782  52.407  1.00  0.00     0.217 C 
HETATM    4  N3  UNL     1      21.718   5.407  51.539  1.00  0.00    -0.291 NA
HETATM    5  C10 UNL     1      22.306   5.457  50.222  1.00  0.00     0.089 C 
HETATM    6  C11 UNL     1      21.254   5.052  49.552  1.00  0.00     0.117 C 
HETATM    7  N4  UNL     1      20.293   5.929  49.594  1.00  0.00    -0.176 NA
HETATM    8  N5  UNL     1      20.686   7.172  50.109  1.00  0.00    -0.310 N 
HETATM    9  C12 UNL     1      21.795   8.056  49.928  1.00  0.00     0.168 C 
HETATM   10  C13 UNL     1      22.108   8.366  48.505  1.00  0.00    -0.009 C 
HETATM   11  C14 UNL     1      23.026   8.299  47.530  1.00  0.00    -0.023 C 
HETATM   12  C15 UNL     1      24.270   7.642  48.019  1.00  0.00     0.020 C 
HETATM   13  C16 UNL     1      25.515   7.317  47.584  1.00  0.00     0.002 C 
HETATM   14  C17 UNL     1      26.307   6.620  48.638  1.00  0.00     0.033 C 
HETATM   15  C18 UNL     1      25.443   6.202  49.770  1.00  0.00    -0.024 C 
HETATM   16  C19 UNL     1      25.384   4.962  50.297  1.00  0.00     0.025 C 
HETATM   17  H10 UNL     1      19.839   7.205  50.692  1.00  0.00     0.182 HD
ENDROOT
BRANCH   1  18
HETATM   18  N2  UNL     1      25.696   3.298  51.854  1.00  0.00    -0.308 N 
HETATM   19  C6  UNL     1      25.962   1.909  51.846  1.00  0.00     0.329 C 
HETATM   20  N1  UNL     1      26.977   1.116  52.386  1.00  0.00    -0.272 N 
HETATM   21  O1  UNL     1      25.056   1.280  51.197  1.00  0.00    -0.246 OA
HETATM   22  C5  UNL     1      28.116   1.529  53.123  1.00  0.00     0.194 C 
HETATM   23  C20 UNL     1      26.847  -0.315  52.198  1.00  0.00     0.170 C 
HETATM   24  C4  UNL     1      28.999   0.802  53.764  1.00  0.00     0.062 C 
HETATM   25  F1  UNL     1      28.359   2.834  53.263  1.00  0.00    -0.186 F 
HETATM   26  C3  UNL     1      28.851  -0.636  53.684  1.00  0.00     0.008 C 
HETATM   27  C2  UNL     1      27.844  -1.051  52.968  1.00  0.00    -0.065 C 
HETATM   28  C1  UNL     1      27.613  -2.527  52.833  1.00  0.00     0.045 C 
HETATM   29  H6  UNL     1      26.542   3.614  52.416  1.00  0.00     0.170 HD
ENDBRANCH   1  18
TORSDOF 1
ENDMDL
MODEL 6
REMARK VINA RESULT:      -8.7      3.705      5.356
REMARK  1 active torsions:
REMARK  status: ('A' for Active; 'I' for Inactive)
REMARK       I    between atoms: N1_7  and  C6_8 
REMARK       I    between atoms: C6_8  and  N2_10 
REMARK    1  A    between atoms: N2_10  and  C7_11 
ROOT
HETATM    1  C7  UNL     1      24.185   1.953  51.069  1.00  0.00     0.036 C 
HETATM    2  C8  UNL     1      25.389   2.351  51.068  1.00  0.00     0.043 C 
HETATM    3  C9  UNL     1      26.606   2.021  51.801  1.00  0.00     0.217 C 
HETATM    4  N3  UNL     1      26.856   0.999  52.585  1.00  0.00    -0.291 NA
HETATM    5  C10 UNL     1      25.739   0.090  52.684  1.00  0.00     0.089 C 
HETATM    6  C11 UNL     1      26.404  -1.019  52.465  1.00  0.00     0.117 C 
HETATM    7  N4  UNL     1      27.224  -1.286  53.441  1.00  0.00    -0.176 NA
HETATM    8  N5  UNL     1      27.024  -0.492  54.579  1.00  0.00    -0.310 N 
HETATM    9  C12 UNL     1      25.896  -0.053  55.341  1.00  0.00     0.168 C 
HETATM   10  C13 UNL     1      24.961  -1.142  55.738  1.00  0.00    -0.009 C 
HETATM   11  C14 UNL     1      23.710  -1.618  55.653  1.00  0.00    -0.023 C 
HETATM   12  C15 UNL     1      22.862  -0.725  54.815  1.00  0.00     0.020 C 
HETATM   13  C16 UNL     1      21.577  -0.612  54.388  1.00  0.00     0.002 C 
HETATM   14  C17 UNL     1      21.387   0.580  53.512  1.00  0.00     0.033 C 
HETATM   15  C18 UNL     1      22.690   1.156  53.098  1.00  0.00    -0.024 C 
HETATM   16  C19 UNL     1      23.058   1.435  51.831  1.00  0.00     0.025 C 
HETATM   17  H10 UNL     1      28.038  -0.339  54.657  1.00  0.00     0.182 HD
ENDROOT
BRANCH   1  18
HETATM   18  N2  UNL     1      23.583   2.739  50.010  1.00  0.00    -0.308 N 
HETATM   19  C6  UNL     1      23.166   4.074  49.802  1.00  0.00     0.329 C 
HETATM   20  N1  UNL     1      22.590   4.750  48.723  1.00  0.00    -0.272 N 
HETATM   21  O1  UNL     1      23.375   4.780  50.849  1.00  0.00    -0.246 OA
HETATM   22  C5  UNL     1      22.269   4.243  47.439  1.00  0.00     0.194 C 
HETATM   23  C20 UNL     1      22.248   6.142  48.942  1.00  0.00     0.170 C 
HETATM   24  C4  UNL     1      21.599   4.810  46.465  1.00  0.00     0.062 C 
HETATM   25  F1  UNL     1      22.633   2.997  47.124  1.00  0.00    -0.186 F 
HETATM   26  C3  UNL     1      21.152   6.170  46.679  1.00  0.00     0.008 C 
HETATM   27  C2  UNL     1      21.477   6.687  47.830  1.00  0.00    -0.065 C 
HETATM   28  C1  UNL     1      21.053   8.092  48.138  1.00  0.00     0.045 C 
HETATM   29  H6  UNL     1      23.335   2.349  49.052  1.00  0.00     0.170 HD
ENDBRANCH   1  18
TORSDOF 1
ENDMDL
MODEL 7
REMARK VINA RESULT:      -8.6      2.797      4.119
REMARK  1 active torsions:
REMARK  status: ('A' for Active; 'I' for Inactive)
REMARK       I    between atoms: N1_7  and  C6_8 
REMARK       I    between atoms: C6_8  and  N2_10 
REMARK    1  A    between atoms: N2_10  and  C7_11 
ROOT
HETATM    1  C7  UNL     1      24.900   2.646  51.812  1.00  0.00     0.036 C 
HETATM    2  C8  UNL     1      25.881   2.742  52.610  1.00  0.00     0.043 C 
HETATM    3  C9  UNL     1      26.393   1.981  53.744  1.00  0.00     0.217 C 
HETATM    4  N3  UNL     1      26.067   0.778  54.156  1.00  0.00    -0.291 NA
HETATM    5  C10 UNL     1      25.071   0.156  53.318  1.00  0.00     0.089 C 
HETATM    6  C11 UNL     1      25.676  -0.998  53.165  1.00  0.00     0.117 C 
HETATM    7  N4  UNL     1      25.728  -1.663  54.283  1.00  0.00    -0.176 NA
HETATM    8  N5  UNL     1      24.924  -1.124  55.297  1.00  0.00    -0.310 N 
HETATM    9  C12 UNL     1      23.590  -0.619  55.393  1.00  0.00     0.168 C 
HETATM   10  C13 UNL     1      22.549  -1.521  54.828  1.00  0.00    -0.009 C 
HETATM   11  C14 UNL     1      21.579  -1.661  53.912  1.00  0.00    -0.023 C 
HETATM   12  C15 UNL     1      21.453  -0.430  53.084  1.00  0.00     0.020 C 
HETATM   13  C16 UNL     1      20.692   0.073  52.077  1.00  0.00     0.002 C 
HETATM   14  C17 UNL     1      21.129   1.444  51.683  1.00  0.00     0.033 C 
HETATM   15  C18 UNL     1      22.447   1.779  52.277  1.00  0.00    -0.024 C 
HETATM   16  C19 UNL     1      23.517   2.245  51.601  1.00  0.00     0.025 C 
HETATM   17  H10 UNL     1      25.694  -1.233  55.972  1.00  0.00     0.182 HD
ENDROOT
BRANCH   1  18
HETATM   18  N2  UNL     1      25.098   3.769  50.918  1.00  0.00    -0.308 N 
HETATM   19  C6  UNL     1      26.110   4.263  50.062  1.00  0.00     0.329 C 
HETATM   20  N1  UNL     1      26.208   5.374  49.220  1.00  0.00    -0.272 N 
HETATM   21  O1  UNL     1      27.140   3.504  50.097  1.00  0.00    -0.246 OA
HETATM   22  C5  UNL     1      25.229   6.366  48.958  1.00  0.00     0.194 C 
HETATM   23  C20 UNL     1      27.475   5.560  48.541  1.00  0.00     0.170 C 
HETATM   24  C4  UNL     1      25.343   7.490  48.294  1.00  0.00     0.062 C 
HETATM   25  F1  UNL     1      24.005   6.220  49.471  1.00  0.00    -0.186 F 
HETATM   26  C3  UNL     1      26.625   7.764  47.679  1.00  0.00     0.008 C 
HETATM   27  C2  UNL     1      27.532   6.846  47.855  1.00  0.00    -0.065 C 
HETATM   28  C1  UNL     1      28.892   7.049  47.255  1.00  0.00     0.045 C 
HETATM   29  H6  UNL     1      24.363   4.516  50.735  1.00  0.00     0.170 HD
ENDBRANCH   1  18
TORSDOF 1
ENDMDL
MODEL 8
REMARK VINA RESULT:      -8.5      2.090      2.941
REMARK  1 active torsions:
REMARK  status: ('A' for Active; 'I' for Inactive)
REMARK       I    between atoms: N1_7  and  C6_8 
REMARK       I    between atoms: C6_8  and  N2_10 
REMARK    1  A    between atoms: N2_10  and  C7_11 
ROOT
HETATM    1  C7  UNL     1      25.693   5.050  49.704  1.00  0.00     0.036 C 
HETATM    2  C8  UNL     1      24.790   5.496  48.933  1.00  0.00     0.043 C 
HETATM    3  C9  UNL     1      23.363   5.262  48.739  1.00  0.00     0.217 C 
HETATM    4  N3  UNL     1      22.512   4.622  49.504  1.00  0.00    -0.291 NA
HETATM    5  C10 UNL     1      23.122   4.114  50.709  1.00  0.00     0.089 C 
HETATM    6  C11 UNL     1      22.222   4.559  51.554  1.00  0.00     0.117 C 
HETATM    7  N4  UNL     1      21.080   3.953  51.399  1.00  0.00    -0.176 NA
HETATM    8  N5  UNL     1      21.148   2.824  50.570  1.00  0.00    -0.310 N 
HETATM    9  C12 UNL     1      22.023   1.702  50.431  1.00  0.00     0.168 C 
HETATM   10  C13 UNL     1      22.309   0.983  51.703  1.00  0.00    -0.009 C 
HETATM   11  C14 UNL     1      23.254   0.600  52.574  1.00  0.00    -0.023 C 
HETATM   12  C15 UNL     1      24.598   1.069  52.136  1.00  0.00     0.020 C 
HETATM   13  C16 UNL     1      25.900   0.993  52.514  1.00  0.00     0.002 C 
HETATM   14  C17 UNL     1      26.793   1.742  51.582  1.00  0.00     0.033 C 
HETATM   15  C18 UNL     1      26.009   2.609  50.669  1.00  0.00    -0.024 C 
HETATM   16  C19 UNL     1      26.225   3.924  50.458  1.00  0.00     0.025 C 
HETATM   17  H10 UNL     1      20.295   3.126  50.080  1.00  0.00     0.182 HD
ENDROOT
BRANCH   1  18
HETATM   18  N2  UNL     1      26.860   5.815  49.314  1.00  0.00    -0.308 N 
HETATM   19  C6  UNL     1      28.093   5.588  48.659  1.00  0.00     0.329 C 
HETATM   20  N1  UNL     1      29.172   6.407  48.317  1.00  0.00    -0.272 N 
HETATM   21  O1  UNL     1      28.206   4.358  48.325  1.00  0.00    -0.246 OA
HETATM   22  C5  UNL     1      29.319   7.801  48.532  1.00  0.00     0.194 C 
HETATM   23  C20 UNL     1      30.303   5.755  47.687  1.00  0.00     0.170 C 
HETATM   24  C4  UNL     1      30.372   8.561  48.358  1.00  0.00     0.062 C 
HETATM   25  F1  UNL     1      28.289   8.493  49.024  1.00  0.00    -0.186 F 
HETATM   26  C3  UNL     1      31.559   7.929  47.820  1.00  0.00     0.008 C 
HETATM   27  C2  UNL     1      31.441   6.658  47.560  1.00  0.00    -0.065 C 
HETATM   28  C1  UNL     1      32.623   5.922  47.002  1.00  0.00     0.045 C 
HETATM   29  H6  UNL     1      26.968   6.859  49.488  1.00  0.00     0.170 HD
ENDBRANCH   1  18
TORSDOF 1
ENDMDL
MODEL 9
REMARK VINA RESULT:      -8.5      3.406      7.270
REMARK  1 active torsions:
REMARK  status: ('A' for Active; 'I' for Inactive)
REMARK       I    between atoms: N1_7  and  C6_8 
REMARK       I    between atoms: C6_8  and  N2_10 
REMARK    1  A    between atoms: N2_10  and  C7_11 
ROOT
HETATM    1  C7  UNL     1      24.927   3.230  51.271  1.00  0.00     0.036 C 
HETATM    2  C8  UNL     1      24.070   3.426  52.185  1.00  0.00     0.043 C 
HETATM    3  C9  UNL     1      23.054   4.431  52.475  1.00  0.00     0.217 C 
HETATM    4  N3  UNL     1      22.572   5.377  51.704  1.00  0.00    -0.291 NA
HETATM    5  C10 UNL     1      23.149   5.360  50.380  1.00  0.00     0.089 C 
HETATM    6  C11 UNL     1      22.026   5.430  49.706  1.00  0.00     0.117 C 
HETATM    7  N4  UNL     1      21.439   6.580  49.871  1.00  0.00    -0.176 NA
HETATM    8  N5  UNL     1      22.245   7.539  50.502  1.00  0.00    -0.310 N 
HETATM    9  C12 UNL     1      23.597   7.987  50.379  1.00  0.00     0.168 C 
HETATM   10  C13 UNL     1      24.009   8.322  48.988  1.00  0.00    -0.009 C 
HETATM   11  C14 UNL     1      24.851   8.042  47.981  1.00  0.00    -0.023 C 
HETATM   12  C15 UNL     1      25.776   6.938  48.358  1.00  0.00     0.020 C 
HETATM   13  C16 UNL     1      26.828   6.244  47.850  1.00  0.00     0.002 C 
HETATM   14  C17 UNL     1      27.313   5.200  48.799  1.00  0.00     0.033 C 
HETATM   15  C18 UNL     1      26.349   4.992  49.908  1.00  0.00    -0.024 C 
HETATM   16  C19 UNL     1      25.850   3.803  50.302  1.00  0.00     0.025 C 
HETATM   17  H10 UNL     1      21.460   7.805  51.112  1.00  0.00     0.182 HD
ENDROOT
BRANCH   1  18
HETATM   18  N2  UNL     1      25.539   1.976  51.664  1.00  0.00    -0.308 N 
HETATM   19  C6  UNL     1      26.741   1.539  52.269  1.00  0.00     0.329 C 
HETATM   20  N1  UNL     1      27.248   0.285  52.618  1.00  0.00    -0.272 N 
HETATM   21  O1  UNL     1      27.499   2.535  52.535  1.00  0.00    -0.246 OA
HETATM   22  C5  UNL     1      26.631  -0.983  52.471  1.00  0.00     0.194 C 
HETATM   23  C20 UNL     1      28.584   0.262  53.180  1.00  0.00     0.170 C 
HETATM   24  C4  UNL     1      27.137  -2.179  52.651  1.00  0.00     0.062 C 
HETATM   25  F1  UNL     1      25.367  -1.044  52.046  1.00  0.00    -0.186 F 
HETATM   26  C3  UNL     1      28.506  -2.250  53.119  1.00  0.00     0.008 C 
HETATM   27  C2  UNL     1      29.085  -1.101  53.318  1.00  0.00    -0.065 C 
HETATM   28  C1  UNL     1      30.505  -1.080  53.801  1.00  0.00     0.045 C 
HETATM   29  H6  UNL     1      25.076   1.027  51.540  1.00  0.00     0.170 HD
ENDBRANCH   1  18
TORSDOF 1
ENDMDL
