MODEL 1
REMARK VINA RESULT:      -8.9      0.000      0.000
REMARK  4 active torsions:
REMARK  status: ('A' for Active; 'I' for Inactive)
REMARK    1  A    between atoms: N2_5  and  C4_6 
REMARK    2  A    between atoms: C7_9  and  N3_10 
REMARK       I    between atoms: N3_10  and  C8_11 
REMARK    3  A    between atoms: C8_11  and  C9_13 
REMARK    4  A    between atoms: C15_21  and  N6_22 
ROOT
HETATM    1  C9  UNL     1      24.419   2.283  51.462  1.00  0.00     0.268 C 
HETATM    2  N4  UNL     1      25.003   1.096  52.113  1.00  0.00    -0.367 N 
HETATM    3  C10 UNL     1      26.050   1.228  53.084  1.00  0.00     0.057 C 
HETATM    4  C11 UNL     1      27.000   0.173  53.226  1.00  0.00     0.021 A 
HETATM    5  C12 UNL     1      26.909  -0.959  52.429  1.00  0.00     0.035 A 
HETATM    6  C13 UNL     1      27.791  -2.011  52.516  1.00  0.00     0.117 A 
HETATM    7  N5  UNL     1      28.805  -2.009  53.384  1.00  0.00    -0.271 NA
HETATM    8  C14 UNL     1      28.968  -0.953  54.195  1.00  0.00     0.146 A 
HETATM    9  C15 UNL     1      28.067   0.080  54.080  1.00  0.00     0.056 A 
HETATM   10  C16 UNL     1      25.955   2.375  53.727  1.00  0.00     0.121 C 
HETATM   11  N7  UNL     1      24.977   3.385  53.531  1.00  0.00    -0.333 N 
HETATM   12  C17 UNL     1      23.941   3.212  52.542  1.00  0.00     0.253 C 
HETATM   13  O2  UNL     1      22.851   3.810  52.688  1.00  0.00    -0.270 OA
HETATM   14  H12 UNL     1      24.609   0.146  51.829  1.00  0.00     0.161 HD
HETATM   15  H19 UNL     1      25.015   4.272  54.122  1.00  0.00     0.168 HD
ENDROOT
BRANCH   1  16
HETATM   16  C8  UNL     1      25.480   2.875  50.636  1.00  0.00     0.254 C 
HETATM   17  N3  UNL     1      25.356   4.268  50.432  1.00  0.00    -0.325 N 
HETATM   18  H10 UNL     1      24.599   4.852  50.816  1.00  0.00     0.169 HD
HETATM   19  O1  UNL     1      26.352   2.105  50.213  1.00  0.00    -0.270 OA
BRANCH  17  20
HETATM   20  C7  UNL     1      26.204   5.158  49.686  1.00  0.00     0.034 A 
HETATM   21  C6  UNL     1      25.856   6.498  49.765  1.00  0.00     0.032 A 
HETATM   22  C5  UNL     1      26.616   7.450  49.077  1.00  0.00     0.031 A 
HETATM   23  C4  UNL     1      27.695   7.050  48.332  1.00  0.00     0.030 A 
HETATM   24  C19 UNL     1      28.031   5.726  48.261  1.00  0.00     0.031 A 
HETATM   25  C18 UNL     1      27.298   4.765  48.931  1.00  0.00     0.032 A 
BRANCH  23  26
HETATM   26  N2  UNL     1      28.484   7.992  47.622  1.00  0.00    -0.378 N 
HETATM   27  C3  UNL     1      28.260   9.423  47.585  1.00  0.00     0.153 C 
HETATM   28  C2  UNL     1      29.406  10.076  48.321  1.00  0.00     0.291 C 
HETATM   29  N1  UNL     1      30.638   9.662  47.706  1.00  0.00     0.087 N 
HETATM   30  C1  UNL     1      31.350  10.841  47.277  1.00  0.00     0.310 C 
HETATM   31  C21 UNL     1      30.466   8.807  46.566  1.00  0.00     0.291 C 
HETATM   32  C20 UNL     1      29.634   7.580  46.840  1.00  0.00     0.153 C 
ENDBRANCH  23  26
ENDBRANCH  17  20
ENDBRANCH   1  16
BRANCH   9  33
HETATM   33  N6  UNL     1      28.312   1.156  54.971  1.00  0.00    -0.397 N 
HETATM   34  H16 UNL     1      28.188   1.990  54.367  1.00  0.00     0.156 HD
HETATM   35  H17 UNL     1      28.520   0.668  55.889  1.00  0.00     0.156 HD
ENDBRANCH   9  33
TORSDOF 4
ENDMDL
MODEL 2
REMARK VINA RESULT:      -8.9      5.272     10.493
REMARK  4 active torsions:
REMARK  status: ('A' for Active; 'I' for Inactive)
REMARK    1  A    between atoms: N2_5  and  C4_6 
REMARK    2  A    between atoms: C7_9  and  N3_10 
REMARK       I    between atoms: N3_10  and  C8_11 
REMARK    3  A    between atoms: C8_11  and  C9_13 
REMARK    4  A    between atoms: C15_21  and  N6_22 
ROOT
HETATM    1  C9  UNL     1      25.535   0.007  53.021  1.00  0.00     0.268 C 
HETATM    2  N4  UNL     1      25.478   1.129  52.064  1.00  0.00    -0.367 N 
HETATM    3  C10 UNL     1      25.045   2.431  52.480  1.00  0.00     0.057 C 
HETATM    4  C11 UNL     1      24.406   3.283  51.531  1.00  0.00     0.021 A 
HETATM    5  C12 UNL     1      24.205   2.850  50.228  1.00  0.00     0.035 A 
HETATM    6  C13 UNL     1      23.598   3.621  49.266  1.00  0.00     0.117 A 
HETATM    7  N5  UNL     1      23.156   4.854  49.527  1.00  0.00    -0.271 NA
HETATM    8  C14 UNL     1      23.309   5.353  50.762  1.00  0.00     0.146 A 
HETATM    9  C15 UNL     1      23.921   4.554  51.699  1.00  0.00     0.056 A 
HETATM   10  C16 UNL     1      25.328   2.639  53.750  1.00  0.00     0.121 C 
HETATM   11  N7  UNL     1      25.968   1.738  54.641  1.00  0.00    -0.333 N 
HETATM   12  C17 UNL     1      26.387   0.436  54.182  1.00  0.00     0.253 C 
HETATM   13  O2  UNL     1      27.337  -0.139  54.760  1.00  0.00    -0.270 OA
HETATM   14  H12 UNL     1      25.775   0.922  51.061  1.00  0.00     0.161 HD
HETATM   15  H19 UNL     1      26.139   2.033  55.652  1.00  0.00     0.168 HD
ENDROOT
BRANCH   1  16
HETATM   16  C8  UNL     1      24.149  -0.281  53.414  1.00  0.00     0.254 C 
HETATM   17  N3  UNL     1      23.181   0.049  52.439  1.00  0.00    -0.325 N 
HETATM   18  H10 UNL     1      23.393   0.460  51.518  1.00  0.00     0.169 HD
HETATM   19  O1  UNL     1      23.979  -0.774  54.537  1.00  0.00    -0.270 OA
BRANCH  17  20
HETATM   20  C7  UNL     1      21.751  -0.096  52.489  1.00  0.00     0.034 A 
HETATM   21  C6  UNL     1      21.077   0.391  51.379  1.00  0.00     0.032 A 
HETATM   22  C5  UNL     1      19.682   0.298  51.324  1.00  0.00     0.031 A 
HETATM   23  C4  UNL     1      18.996  -0.272  52.367  1.00  0.00     0.030 A 
HETATM   24  C19 UNL     1      19.671  -0.750  53.456  1.00  0.00     0.031 A 
HETATM   25  C18 UNL     1      21.049  -0.672  53.536  1.00  0.00     0.032 A 
BRANCH  23  26
HETATM   26  N2  UNL     1      17.581  -0.379  52.340  1.00  0.00    -0.378 N 
HETATM   27  C3  UNL     1      16.670   0.608  51.798  1.00  0.00     0.153 C 
HETATM   28  C2  UNL     1      16.034   0.003  50.568  1.00  0.00     0.291 C 
HETATM   29  N1  UNL     1      15.401  -1.231  50.942  1.00  0.00     0.087 N 
HETATM   30  C1  UNL     1      14.004  -1.150  50.592  1.00  0.00     0.310 C 
HETATM   31  C21 UNL     1      15.492  -1.536  52.343  1.00  0.00     0.291 C 
HETATM   32  C20 UNL     1      16.900  -1.541  52.879  1.00  0.00     0.153 C 
ENDBRANCH  23  26
ENDBRANCH  17  20
ENDBRANCH   1  16
BRANCH   9  33
HETATM   33  N6  UNL     1      24.042   5.156  52.977  1.00  0.00    -0.397 N 
HETATM   34  H16 UNL     1      23.245   5.820  52.997  1.00  0.00     0.156 HD
HETATM   35  H17 UNL     1      24.897   4.682  53.389  1.00  0.00     0.156 HD
ENDBRANCH   9  33
TORSDOF 4
ENDMDL
MODEL 3
REMARK VINA RESULT:      -8.7      4.202      9.581
REMARK  4 active torsions:
REMARK  status: ('A' for Active; 'I' for Inactive)
REMARK    1  A    between atoms: N2_5  and  C4_6 
REMARK    2  A    between atoms: C7_9  and  N3_10 
REMARK       I    between atoms: N3_10  and  C8_11 
REMARK    3  A    between atoms: C8_11  and  C9_13 
REMARK    4  A    between atoms: C15_21  and  N6_22 
ROOT
HETATM    1  C9  UNL     1      31.333   6.451  47.320  1.00  0.00     0.268 C 
HETATM    2  N4  UNL     1      30.921   7.825  46.974  1.00  0.00    -0.367 N 
HETATM    3  C10 UNL     1      30.893   8.857  47.969  1.00  0.00     0.057 C 
HETATM    4  C11 UNL     1      29.956   9.925  47.830  1.00  0.00     0.021 A 
HETATM    5  C12 UNL     1      29.086   9.954  46.750  1.00  0.00     0.035 A 
HETATM    6  C13 UNL     1      28.162  10.954  46.558  1.00  0.00     0.117 A 
HETATM    7  N5  UNL     1      28.041  11.974  47.411  1.00  0.00    -0.271 NA
HETATM    8  C14 UNL     1      28.843  12.026  48.484  1.00  0.00     0.146 A 
HETATM    9  C15 UNL     1      29.756  11.010  48.644  1.00  0.00     0.056 A 
HETATM   10  C16 UNL     1      31.794   8.636  48.904  1.00  0.00     0.121 C 
HETATM   11  N7  UNL     1      32.698   7.544  48.979  1.00  0.00    -0.333 N 
HETATM   12  C17 UNL     1      32.692   6.525  47.958  1.00  0.00     0.253 C 
HETATM   13  O2  UNL     1      33.738   5.873  47.740  1.00  0.00    -0.270 OA
HETATM   14  H12 UNL     1      30.652   8.006  45.959  1.00  0.00     0.161 HD
HETATM   15  H19 UNL     1      33.381   7.484  49.795  1.00  0.00     0.168 HD
ENDROOT
BRANCH   1  16
HETATM   16  C8  UNL     1      30.310   5.921  48.231  1.00  0.00     0.254 C 
HETATM   17  N3  UNL     1      28.979   6.132  47.806  1.00  0.00    -0.325 N 
HETATM   18  H10 UNL     1      28.711   6.614  46.935  1.00  0.00     0.169 HD
HETATM   19  O1  UNL     1      30.715   5.357  49.256  1.00  0.00    -0.270 OA
BRANCH  17  20
HETATM   20  C7  UNL     1      27.748   5.751  48.443  1.00  0.00     0.034 A 
HETATM   21  C6  UNL     1      26.852   6.790  48.649  1.00  0.00     0.032 A 
HETATM   22  C5  UNL     1      25.622   6.528  49.262  1.00  0.00     0.031 A 
HETATM   23  C4  UNL     1      25.314   5.250  49.652  1.00  0.00     0.030 A 
HETATM   24  C19 UNL     1      26.203   4.233  49.444  1.00  0.00     0.031 A 
HETATM   25  C18 UNL     1      27.426   4.463  48.840  1.00  0.00     0.032 A 
BRANCH  23  26
HETATM   26  N2  UNL     1      24.074   4.955  50.277  1.00  0.00    -0.378 N 
HETATM   27  C3  UNL     1      22.974   4.233  49.670  1.00  0.00     0.153 C 
HETATM   28  C2  UNL     1      22.849   2.914  50.395  1.00  0.00     0.291 C 
HETATM   29  N1  UNL     1      22.671   3.178  51.796  1.00  0.00     0.087 N 
HETATM   30  C1  UNL     1      21.435   2.566  52.221  1.00  0.00     0.310 C 
HETATM   31  C21 UNL     1      22.612   4.575  52.127  1.00  0.00     0.291 C 
HETATM   32  C20 UNL     1      23.795   5.371  51.639  1.00  0.00     0.153 C 
ENDBRANCH  23  26
ENDBRANCH  17  20
ENDBRANCH   1  16
BRANCH   9  33
HETATM   33  N6  UNL     1      30.563  11.140  49.802  1.00  0.00    -0.397 N 
HETATM   34  H16 UNL     1      31.526  11.073  49.423  1.00  0.00     0.156 HD
HETATM   35  H17 UNL     1      29.854  11.253  50.582  1.00  0.00     0.156 HD
ENDBRANCH   9  33
TORSDOF 4
ENDMDL
MODEL 4
REMARK VINA RESULT:      -8.4      4.377      9.073
REMARK  4 active torsions:
REMARK  status: ('A' for Active; 'I' for Inactive)
REMARK    1  A    between atoms: N2_5  and  C4_6 
REMARK    2  A    between atoms: C7_9  and  N3_10 
REMARK       I    between atoms: N3_10  and  C8_11 
REMARK    3  A    between atoms: C8_11  and  C9_13 
REMARK    4  A    between atoms: C15_21  and  N6_22 
ROOT
HETATM    1  C9  UNL     1      19.009   2.623  50.669  1.00  0.00     0.268 C 
HETATM    2  N4  UNL     1      19.604   3.953  50.444  1.00  0.00    -0.367 N 
HETATM    3  C10 UNL     1      20.448   4.201  49.311  1.00  0.00     0.057 C 
HETATM    4  C11 UNL     1      21.473   5.188  49.415  1.00  0.00     0.021 A 
HETATM    5  C12 UNL     1      21.649   5.890  50.599  1.00  0.00     0.035 A 
HETATM    6  C13 UNL     1      22.616   6.853  50.763  1.00  0.00     0.117 A 
HETATM    7  N5  UNL     1      23.460   7.179  49.782  1.00  0.00    -0.271 NA
HETATM    8  C14 UNL     1      23.361   6.549  48.601  1.00  0.00     0.146 A 
HETATM    9  C15 UNL     1      22.382   5.592  48.472  1.00  0.00     0.056 A 
HETATM   10  C16 UNL     1      20.115   3.428  48.297  1.00  0.00     0.121 C 
HETATM   11  N7  UNL     1      19.077   2.460  48.265  1.00  0.00    -0.333 N 
HETATM   12  C17 UNL     1      18.252   2.241  49.428  1.00  0.00     0.253 C 
HETATM   13  O2  UNL     1      17.092   1.794  49.279  1.00  0.00    -0.270 OA
HETATM   14  H12 UNL     1      19.374   4.711  51.158  1.00  0.00     0.161 HD
HETATM   15  H19 UNL     1      18.912   1.898  47.374  1.00  0.00     0.168 HD
ENDROOT
BRANCH   1  16
HETATM   16  C8  UNL     1      20.121   1.707  50.955  1.00  0.00     0.254 C 
HETATM   17  N3  UNL     1      21.042   2.183  51.915  1.00  0.00    -0.325 N 
HETATM   18  H10 UNL     1      20.972   3.093  52.395  1.00  0.00     0.169 HD
HETATM   19  O1  UNL     1      20.134   0.635  50.336  1.00  0.00    -0.270 OA
BRANCH  17  20
HETATM   20  C7  UNL     1      22.231   1.557  52.427  1.00  0.00     0.034 A 
HETATM   21  C6  UNL     1      23.375   2.338  52.363  1.00  0.00     0.032 A 
HETATM   22  C5  UNL     1      24.588   1.824  52.835  1.00  0.00     0.031 A 
HETATM   23  C4  UNL     1      24.634   0.556  53.355  1.00  0.00     0.030 A 
HETATM   24  C19 UNL     1      23.500  -0.206  53.415  1.00  0.00     0.031 A 
HETATM   25  C18 UNL     1      22.288   0.277  52.956  1.00  0.00     0.032 A 
BRANCH  23  26
HETATM   26  N2  UNL     1      25.849   0.008  53.841  1.00  0.00    -0.378 N 
HETATM   27  C3  UNL     1      26.458  -1.227  53.391  1.00  0.00     0.153 C 
HETATM   28  C2  UNL     1      27.733  -0.860  52.668  1.00  0.00     0.291 C 
HETATM   29  N1  UNL     1      28.559  -0.094  53.560  1.00  0.00     0.087 N 
HETATM   30  C1  UNL     1      29.828  -0.769  53.697  1.00  0.00     0.310 C 
HETATM   31  C21 UNL     1      28.003   0.078  54.872  1.00  0.00     0.291 C 
HETATM   32  C20 UNL     1      26.618   0.672  54.878  1.00  0.00     0.153 C 
ENDBRANCH  23  26
ENDBRANCH  17  20
ENDBRANCH   1  16
BRANCH   9  33
HETATM   33  N6  UNL     1      22.347   4.976  47.196  1.00  0.00    -0.397 N 
HETATM   34  H16 UNL     1      22.154   5.771  46.559  1.00  0.00     0.156 HD
HETATM   35  H17 UNL     1      22.532   3.955  47.414  1.00  0.00     0.156 HD
ENDBRANCH   9  33
TORSDOF 4
ENDMDL
MODEL 5
REMARK VINA RESULT:      -8.2      4.386      9.293
REMARK  4 active torsions:
REMARK  status: ('A' for Active; 'I' for Inactive)
REMARK    1  A    between atoms: N2_5  and  C4_6 
REMARK    2  A    between atoms: C7_9  and  N3_10 
REMARK       I    between atoms: N3_10  and  C8_11 
REMARK    3  A    between atoms: C8_11  and  C9_13 
REMARK    4  A    between atoms: C15_21  and  N6_22 
ROOT
HETATM    1  C9  UNL     1      30.960   8.966  45.739  1.00  0.00     0.268 C 
HETATM    2  N4  UNL     1      32.094   8.112  46.140  1.00  0.00    -0.367 N 
HETATM    3  C10 UNL     1      32.398   6.907  45.426  1.00  0.00     0.057 C 
HETATM    4  C11 UNL     1      33.012   5.825  46.125  1.00  0.00     0.021 A 
HETATM    5  C12 UNL     1      33.303   5.943  47.477  1.00  0.00     0.035 A 
HETATM    6  C13 UNL     1      33.894   4.940  48.207  1.00  0.00     0.117 A 
HETATM    7  N5  UNL     1      34.230   3.772  47.656  1.00  0.00    -0.271 NA
HETATM    8  C14 UNL     1      33.985   3.571  46.352  1.00  0.00     0.146 A 
HETATM    9  C15 UNL     1      33.393   4.596  45.653  1.00  0.00     0.056 A 
HETATM   10  C16 UNL     1      32.038   7.003  44.162  1.00  0.00     0.121 C 
HETATM   11  N7  UNL     1      31.426   8.118  43.531  1.00  0.00    -0.333 N 
HETATM   12  C17 UNL     1      31.136   9.312  44.287  1.00  0.00     0.253 C 
HETATM   13  O2  UNL     1      31.069  10.411  43.692  1.00  0.00    -0.270 OA
HETATM   14  H12 UNL     1      32.669   8.438  46.977  1.00  0.00     0.161 HD
HETATM   15  H19 UNL     1      31.185   8.066  42.494  1.00  0.00     0.168 HD
ENDROOT
BRANCH   1  16
HETATM   16  C8  UNL     1      29.738   8.188  45.989  1.00  0.00     0.254 C 
HETATM   17  N3  UNL     1      29.655   7.626  47.283  1.00  0.00    -0.325 N 
HETATM   18  H10 UNL     1      30.372   7.732  48.016  1.00  0.00     0.169 HD
HETATM   19  O1  UNL     1      28.928   8.108  45.057  1.00  0.00    -0.270 OA
BRANCH  17  20
HETATM   20  C7  UNL     1      28.615   6.818  47.860  1.00  0.00     0.034 A 
HETATM   21  C6  UNL     1      27.410   7.475  48.060  1.00  0.00     0.032 A 
HETATM   22  C5  UNL     1      26.330   6.781  48.616  1.00  0.00     0.031 A 
HETATM   23  C4  UNL     1      26.473   5.460  48.958  1.00  0.00     0.030 A 
HETATM   24  C19 UNL     1      27.665   4.821  48.755  1.00  0.00     0.031 A 
HETATM   25  C18 UNL     1      28.748   5.483  48.208  1.00  0.00     0.032 A 
BRANCH  23  26
HETATM   26  N2  UNL     1      25.396   4.730  49.524  1.00  0.00    -0.378 N 
HETATM   27  C3  UNL     1      24.019   5.174  49.593  1.00  0.00     0.153 C 
HETATM   28  C2  UNL     1      23.214   4.283  48.676  1.00  0.00     0.291 C 
HETATM   29  N1  UNL     1      23.408   2.918  49.080  1.00  0.00     0.087 N 
HETATM   30  C1  UNL     1      22.117   2.346  49.382  1.00  0.00     0.310 C 
HETATM   31  C21 UNL     1      24.245   2.762  50.237  1.00  0.00     0.291 C 
HETATM   32  C20 UNL     1      25.596   3.416  50.108  1.00  0.00     0.153 C 
ENDBRANCH  23  26
ENDBRANCH  17  20
ENDBRANCH   1  16
BRANCH   9  33
HETATM   33  N6  UNL     1      33.168   4.303  44.284  1.00  0.00    -0.397 N 
HETATM   34  H16 UNL     1      32.607   5.114  43.962  1.00  0.00     0.156 HD
HETATM   35  H17 UNL     1      33.666   3.376  44.150  1.00  0.00     0.156 HD
ENDBRANCH   9  33
TORSDOF 4
ENDMDL
MODEL 6
REMARK VINA RESULT:      -8.2      1.942      2.686
REMARK  4 active torsions:
REMARK  status: ('A' for Active; 'I' for Inactive)
REMARK    1  A    between atoms: N2_5  and  C4_6 
REMARK    2  A    between atoms: C7_9  and  N3_10 
REMARK       I    between atoms: N3_10  and  C8_11 
REMARK    3  A    between atoms: C8_11  and  C9_13 
REMARK    4  A    between atoms: C15_21  and  N6_22 
ROOT
HETATM    1  C9  UNL     1      23.134   4.538  50.218  1.00  0.00     0.268 C 
HETATM    2  N4  UNL     1      23.684   3.275  50.744  1.00  0.00    -0.367 N 
HETATM    3  C10 UNL     1      24.308   3.224  52.034  1.00  0.00     0.057 C 
HETATM    4  C11 UNL     1      25.340   2.266  52.266  1.00  0.00     0.021 A 
HETATM    5  C12 UNL     1      25.731   1.403  51.252  1.00  0.00     0.035 A 
HETATM    6  C13 UNL     1      26.716   0.457  51.411  1.00  0.00     0.117 A 
HETATM    7  N5  UNL     1      27.369   0.307  52.566  1.00  0.00    -0.271 NA
HETATM    8  C14 UNL     1      27.054   1.100  53.601  1.00  0.00     0.146 A 
HETATM    9  C15 UNL     1      26.063   2.034  53.407  1.00  0.00     0.056 A 
HETATM   10  C16 UNL     1      23.793   4.127  52.844  1.00  0.00     0.121 C 
HETATM   11  N7  UNL     1      22.762   5.056  52.542  1.00  0.00    -0.333 N 
HETATM   12  C17 UNL     1      22.162   5.074  51.230  1.00  0.00     0.253 C 
HETATM   13  O2  UNL     1      20.992   5.502  51.100  1.00  0.00    -0.270 OA
HETATM   14  H12 UNL     1      23.591   2.413  50.123  1.00  0.00     0.161 HD
HETATM   15  H19 UNL     1      22.435   5.737  53.294  1.00  0.00     0.168 HD
ENDROOT
BRANCH   1  16
HETATM   16  C8  UNL     1      24.276   5.437  50.001  1.00  0.00     0.254 C 
HETATM   17  N3  UNL     1      25.243   4.949  49.093  1.00  0.00    -0.325 N 
HETATM   18  H10 UNL     1      25.185   4.043  48.605  1.00  0.00     0.169 HD
HETATM   19  O1  UNL     1      24.270   6.505  50.626  1.00  0.00    -0.270 OA
BRANCH  17  20
HETATM   20  C7  UNL     1      26.469   5.558  48.654  1.00  0.00     0.034 A 
HETATM   21  C6  UNL     1      27.585   4.738  48.724  1.00  0.00     0.032 A 
HETATM   22  C5  UNL     1      28.831   5.231  48.320  1.00  0.00     0.031 A 
HETATM   23  C4  UNL     1      28.936   6.519  47.861  1.00  0.00     0.030 A 
HETATM   24  C19 UNL     1      27.829   7.320  47.795  1.00  0.00     0.031 A 
HETATM   25  C18 UNL     1      26.587   6.858  48.187  1.00  0.00     0.032 A 
BRANCH  23  26
HETATM   26  N2  UNL     1      30.185   7.048  47.445  1.00  0.00    -0.378 N 
HETATM   27  C3  UNL     1      30.395   7.929  46.314  1.00  0.00     0.153 C 
HETATM   28  C2  UNL     1      30.808   9.274  46.865  1.00  0.00     0.291 C 
HETATM   29  N1  UNL     1      31.972   9.093  47.687  1.00  0.00     0.087 N 
HETATM   30  C1  UNL     1      33.030   9.926  47.168  1.00  0.00     0.310 C 
HETATM   31  C21 UNL     1      32.453   7.740  47.733  1.00  0.00     0.291 C 
HETATM   32  C20 UNL     1      31.413   6.734  48.152  1.00  0.00     0.153 C 
ENDBRANCH  23  26
ENDBRANCH  17  20
ENDBRANCH   1  16
BRANCH   9  33
HETATM   33  N6  UNL     1      25.793   2.830  54.548  1.00  0.00    -0.397 N 
HETATM   34  H16 UNL     1      25.524   3.744  54.136  1.00  0.00     0.156 HD
HETATM   35  H17 UNL     1      25.976   2.168  55.355  1.00  0.00     0.156 HD
ENDBRANCH   9  33
TORSDOF 4
ENDMDL
MODEL 7
REMARK VINA RESULT:      -8.0      4.525      9.976
REMARK  4 active torsions:
REMARK  status: ('A' for Active; 'I' for Inactive)
REMARK    1  A    between atoms: N2_5  and  C4_6 
REMARK    2  A    between atoms: C7_9  and  N3_10 
REMARK       I    between atoms: N3_10  and  C8_11 
REMARK    3  A    between atoms: C8_11  and  C9_13 
REMARK    4  A    between atoms: C15_21  and  N6_22 
ROOT
HETATM    1  C9  UNL     1      29.638   6.870  47.421  1.00  0.00     0.268 C 
HETATM    2  N4  UNL     1      30.066   8.215  46.991  1.00  0.00    -0.367 N 
HETATM    3  C10 UNL     1      30.122   9.303  47.924  1.00  0.00     0.057 C 
HETATM    4  C11 UNL     1      29.911  10.632  47.449  1.00  0.00     0.021 A 
HETATM    5  C12 UNL     1      29.650  10.860  46.105  1.00  0.00     0.035 A 
HETATM    6  C13 UNL     1      29.439  12.115  45.585  1.00  0.00     0.117 A 
HETATM    7  N5  UNL     1      29.471  13.209  46.349  1.00  0.00    -0.271 NA
HETATM    8  C14 UNL     1      29.717  13.081  47.662  1.00  0.00     0.146 A 
HETATM    9  C15 UNL     1      29.924  11.811  48.148  1.00  0.00     0.056 A 
HETATM   10  C16 UNL     1      30.377   8.868  49.141  1.00  0.00     0.121 C 
HETATM   11  N7  UNL     1      30.576   7.521  49.543  1.00  0.00    -0.333 N 
HETATM   12  C17 UNL     1      30.509   6.456  48.573  1.00  0.00     0.253 C 
HETATM   13  O2  UNL     1      31.135   5.394  48.788  1.00  0.00    -0.270 OA
HETATM   14  H12 UNL     1      30.330   8.332  45.965  1.00  0.00     0.161 HD
HETATM   15  H19 UNL     1      30.776   7.304  50.568  1.00  0.00     0.168 HD
ENDROOT
BRANCH   1  16
HETATM   16  C8  UNL     1      28.221   6.979  47.795  1.00  0.00     0.254 C 
HETATM   17  N3  UNL     1      27.825   6.125  48.849  1.00  0.00    -0.325 N 
HETATM   18  H10 UNL     1      28.451   5.468  49.338  1.00  0.00     0.169 HD
HETATM   19  O1  UNL     1      27.537   7.791  47.158  1.00  0.00    -0.270 OA
BRANCH  17  20
HETATM   20  C7  UNL     1      26.533   5.972  49.461  1.00  0.00     0.034 A 
HETATM   21  C6  UNL     1      26.006   4.691  49.397  1.00  0.00     0.032 A 
HETATM   22  C5  UNL     1      24.753   4.431  49.963  1.00  0.00     0.031 A 
HETATM   23  C4  UNL     1      24.059   5.445  50.574  1.00  0.00     0.030 A 
HETATM   24  C19 UNL     1      24.588   6.704  50.633  1.00  0.00     0.031 A 
HETATM   25  C18 UNL     1      25.824   6.988  50.082  1.00  0.00     0.032 A 
BRANCH  23  26
HETATM   26  N2  UNL     1      22.786   5.212  51.156  1.00  0.00    -0.378 N 
HETATM   27  C3  UNL     1      21.607   6.031  50.962  1.00  0.00     0.153 C 
HETATM   28  C2  UNL     1      20.614   5.208  50.175  1.00  0.00     0.291 C 
HETATM   29  N1  UNL     1      20.365   3.987  50.891  1.00  0.00     0.087 N 
HETATM   30  C1  UNL     1      18.949   3.896  51.157  1.00  0.00     0.310 C 
HETATM   31  C21 UNL     1      21.060   3.889  52.144  1.00  0.00     0.291 C 
HETATM   32  C20 UNL     1      22.551   4.081  52.035  1.00  0.00     0.153 C 
ENDBRANCH  23  26
ENDBRANCH  17  20
ENDBRANCH   1  16
BRANCH   9  33
HETATM   33  N6  UNL     1      30.175  11.764  49.542  1.00  0.00    -0.397 N 
HETATM   34  H16 UNL     1      30.736  12.621  49.706  1.00  0.00     0.156 HD
HETATM   35  H17 UNL     1      29.688  10.873  49.847  1.00  0.00     0.156 HD
ENDBRANCH   9  33
TORSDOF 4
ENDMDL
MODEL 8
REMARK VINA RESULT:      -8.0      5.542     10.499
REMARK  4 active torsions:
REMARK  status: ('A' for Active; 'I' for Inactive)
REMARK    1  A    between atoms: N2_5  and  C4_6 
REMARK    2  A    between atoms: C7_9  and  N3_10 
REMARK       I    between atoms: N3_10  and  C8_11 
REMARK    3  A    between atoms: C8_11  and  C9_13 
REMARK    4  A    between atoms: C15_21  and  N6_22 
ROOT
HETATM    1  C9  UNL     1      24.311   0.698  52.178  1.00  0.00     0.268 C 
HETATM    2  N4  UNL     1      24.522   1.832  51.258  1.00  0.00    -0.367 N 
HETATM    3  C10 UNL     1      24.402   3.185  51.717  1.00  0.00     0.057 C 
HETATM    4  C11 UNL     1      23.985   4.193  50.796  1.00  0.00     0.021 A 
HETATM    5  C12 UNL     1      23.697   3.860  49.480  1.00  0.00     0.035 A 
HETATM    6  C13 UNL     1      23.292   4.782  48.545  1.00  0.00     0.117 A 
HETATM    7  N5  UNL     1      23.147   6.074  48.846  1.00  0.00    -0.271 NA
HETATM    8  C14 UNL     1      23.405   6.485  50.097  1.00  0.00     0.146 A 
HETATM    9  C15 UNL     1      23.808   5.535  51.007  1.00  0.00     0.056 A 
HETATM   10  C16 UNL     1      24.717   3.281  52.993  1.00  0.00     0.121 C 
HETATM   11  N7  UNL     1      25.125   2.228  53.853  1.00  0.00    -0.333 N 
HETATM   12  C17 UNL     1      25.232   0.879  53.351  1.00  0.00     0.253 C 
HETATM   13  O2  UNL     1      26.018   0.081  53.909  1.00  0.00    -0.270 OA
HETATM   14  H12 UNL     1      24.769   1.593  50.249  1.00  0.00     0.161 HD
HETATM   15  H19 UNL     1      25.353   2.443  54.872  1.00  0.00     0.168 HD
ENDROOT
BRANCH   1  16
HETATM   16  C8  UNL     1      22.893   0.728  52.564  1.00  0.00     0.254 C 
HETATM   17  N3  UNL     1      22.005   1.050  51.512  1.00  0.00    -0.325 N 
HETATM   18  H10 UNL     1      22.293   1.253  50.543  1.00  0.00     0.169 HD
HETATM   19  O1  UNL     1      22.632   0.473  53.746  1.00  0.00    -0.270 OA
BRANCH  17  20
HETATM   20  C7  UNL     1      20.572   1.167  51.534  1.00  0.00     0.034 A 
HETATM   21  C6  UNL     1      20.094   2.468  51.544  1.00  0.00     0.032 A 
HETATM   22  C5  UNL     1      18.713   2.696  51.564  1.00  0.00     0.031 A 
HETATM   23  C4  UNL     1      17.848   1.631  51.573  1.00  0.00     0.030 A 
HETATM   24  C19 UNL     1      18.330   0.351  51.562  1.00  0.00     0.031 A 
HETATM   25  C18 UNL     1      19.690   0.098  51.542  1.00  0.00     0.032 A 
BRANCH  23  26
HETATM   26  N2  UNL     1      16.444   1.830  51.595  1.00  0.00    -0.378 N 
HETATM   27  C3  UNL     1      15.442   0.793  51.451  1.00  0.00     0.153 C 
HETATM   28  C2  UNL     1      14.734   0.667  52.779  1.00  0.00     0.291 C 
HETATM   29  N1  UNL     1      14.197   1.952  53.134  1.00  0.00     0.087 N 
HETATM   30  C1  UNL     1      12.772   1.814  53.318  1.00  0.00     0.310 C 
HETATM   31  C21 UNL     1      14.421   2.974  52.151  1.00  0.00     0.291 C 
HETATM   32  C20 UNL     1      15.869   3.151  51.770  1.00  0.00     0.153 C 
ENDBRANCH  23  26
ENDBRANCH  17  20
ENDBRANCH   1  16
BRANCH   9  33
HETATM   33  N6  UNL     1      24.059   6.052  52.303  1.00  0.00    -0.397 N 
HETATM   34  H16 UNL     1      25.092   6.143  52.321  1.00  0.00     0.156 HD
HETATM   35  H17 UNL     1      23.089   6.134  52.723  1.00  0.00     0.156 HD
ENDBRANCH   9  33
TORSDOF 4
ENDMDL
MODEL 9
REMARK VINA RESULT:      -8.0      4.531      8.939
REMARK  4 active torsions:
REMARK  status: ('A' for Active; 'I' for Inactive)
REMARK    1  A    between atoms: N2_5  and  C4_6 
REMARK    2  A    between atoms: C7_9  and  N3_10 
REMARK       I    between atoms: N3_10  and  C8_11 
REMARK    3  A    between atoms: C8_11  and  C9_13 
REMARK    4  A    between atoms: C15_21  and  N6_22 
ROOT
HETATM    1  C9  UNL     1      32.033   8.903  48.048  1.00  0.00     0.268 C 
HETATM    2  N4  UNL     1      33.086   7.909  47.769  1.00  0.00    -0.367 N 
HETATM    3  C10 UNL     1      32.863   6.839  46.840  1.00  0.00     0.057 C 
HETATM    4  C11 UNL     1      33.551   5.604  47.030  1.00  0.00     0.021 A 
HETATM    5  C12 UNL     1      34.419   5.446  48.101  1.00  0.00     0.035 A 
HETATM    6  C13 UNL     1      35.113   4.283  48.339  1.00  0.00     0.117 A 
HETATM    7  N5  UNL     1      34.994   3.217  47.544  1.00  0.00    -0.271 NA
HETATM    8  C14 UNL     1      34.176   3.282  46.483  1.00  0.00     0.146 A 
HETATM    9  C15 UNL     1      33.499   4.461  46.275  1.00  0.00     0.056 A 
HETATM   10  C16 UNL     1      32.005   7.197  45.906  1.00  0.00     0.121 C 
HETATM   11  N7  UNL     1      31.353   8.452  45.780  1.00  0.00    -0.333 N 
HETATM   12  C17 UNL     1      31.606   9.501  46.737  1.00  0.00     0.253 C 
HETATM   13  O2  UNL     1      31.451  10.694  46.391  1.00  0.00    -0.270 OA
HETATM   14  H12 UNL     1      34.012   8.029  48.285  1.00  0.00     0.161 HD
HETATM   15  H19 UNL     1      30.678   8.612  44.971  1.00  0.00     0.168 HD
ENDROOT
BRANCH   1  16
HETATM   16  C8  UNL     1      30.943   8.184  48.722  1.00  0.00     0.254 C 
HETATM   17  N3  UNL     1      29.646   8.558  48.304  1.00  0.00    -0.325 N 
HETATM   18  H10 UNL     1      29.443   9.273  47.589  1.00  0.00     0.169 HD
HETATM   19  O1  UNL     1      31.271   7.342  49.568  1.00  0.00    -0.270 OA
BRANCH  17  20
HETATM   20  C7  UNL     1      28.369   8.067  48.746  1.00  0.00     0.034 A 
HETATM   21  C6  UNL     1      27.975   6.869  48.170  1.00  0.00     0.032 A 
HETATM   22  C5  UNL     1      26.748   6.301  48.531  1.00  0.00     0.031 A 
HETATM   23  C4  UNL     1      25.949   6.934  49.449  1.00  0.00     0.030 A 
HETATM   24  C19 UNL     1      26.347   8.115  50.012  1.00  0.00     0.031 A 
HETATM   25  C18 UNL     1      27.555   8.697  49.674  1.00  0.00     0.032 A 
BRANCH  23  26
HETATM   26  N2  UNL     1      24.699   6.383  49.834  1.00  0.00    -0.378 N 
HETATM   27  C3  UNL     1      24.269   5.019  49.600  1.00  0.00     0.153 C 
HETATM   28  C2  UNL     1      24.186   4.339  50.946  1.00  0.00     0.291 C 
HETATM   29  N1  UNL     1      23.298   5.094  51.786  1.00  0.00     0.087 N 
HETATM   30  C1  UNL     1      22.234   4.222  52.223  1.00  0.00     0.310 C 
HETATM   31  C21 UNL     1      22.703   6.230  51.139  1.00  0.00     0.291 C 
HETATM   32  C20 UNL     1      23.702   7.179  50.527  1.00  0.00     0.153 C 
ENDBRANCH  23  26
ENDBRANCH  17  20
ENDBRANCH   1  16
BRANCH   9  33
HETATM   33  N6  UNL     1      32.657   4.446  45.135  1.00  0.00    -0.397 N 
HETATM   34  H16 UNL     1      32.234   5.393  45.146  1.00  0.00     0.156 HD
HETATM   35  H17 UNL     1      32.803   3.474  44.738  1.00  0.00     0.156 HD
ENDBRANCH   9  33
TORSDOF 4
ENDMDL
