MODEL 1
REMARK VINA RESULT:      -7.6      0.000      0.000
REMARK  10 active torsions:
REMARK  status: ('A' for Active; 'I' for Inactive)
REMARK    1  A    between atoms: O1_2  and  C2_3 
REMARK    2  A    between atoms: C2_3  and  C3_4 
REMARK    3  A    between atoms: C3_4  and  O2_5 
REMARK    4  A    between atoms: C3_4  and  C11_14 
REMARK    5  A    between atoms: O2_5  and  C4_6 
REMARK    6  A    between atoms: C4_6  and  C5_7 
REMARK    7  A    between atoms: C5_7  and  C6_8 
REMARK    8  A    between atoms: C6_8  and  N1_9 
REMARK    9  A    between atoms: C15_20  and  N4_21 
REMARK   10  A    between atoms: N4_21  and  C16_22 
ROOT
HETATM    1  C11 UNL     1      21.511   0.612  52.721  1.00  0.00     0.043 A 
HETATM    2  C12 UNL     1      20.414  -0.220  52.979  1.00  0.00     0.044 A 
HETATM    3  C13 UNL     1      19.139  -0.086  52.275  1.00  0.00     0.071 C 
HETATM    4  N2  UNL     1      20.459  -1.206  53.893  1.00  0.00    -0.246 NA
HETATM    5  C14 UNL     1      21.552  -1.446  54.606  1.00  0.00     0.235 A 
HETATM    6  N3  UNL     1      22.600  -0.677  54.384  1.00  0.00    -0.224 NA
HETATM    7  C15 UNL     1      22.642   0.322  53.497  1.00  0.00     0.140 A 
ENDROOT
BRANCH   1   8
HETATM    8  C3  UNL     1      21.421   1.679  51.715  1.00  0.00     0.184 C 
BRANCH   8   9
HETATM    9  C2  UNL     1      22.193   1.354  50.451  1.00  0.00     0.203 C 
BRANCH   9  10
HETATM   10  O1  UNL     1      21.421   0.719  49.488  1.00  0.00    -0.393 OA
HETATM   11  C1  UNL     1      20.997   1.706  48.598  1.00  0.00     0.201 C 
ENDBRANCH   9  10
ENDBRANCH   8   9
BRANCH   8  12
HETATM   12  O2  UNL     1      21.856   2.851  52.303  1.00  0.00    -0.379 OA
BRANCH  12  13
HETATM   13  C4  UNL     1      21.877   3.965  51.514  1.00  0.00     0.170 C 
BRANCH  13  14
HETATM   14  C5  UNL     1      23.153   4.712  51.690  1.00  0.00     0.056 C 
BRANCH  14  15
HETATM   15  C6  UNL     1      23.716   5.202  50.350  1.00  0.00     0.274 C 
BRANCH  15  16
HETATM   16  N1  UNL     1      25.145   4.951  50.401  1.00  0.00     0.088 N 
HETATM   17  C7  UNL     1      25.442   3.538  50.478  1.00  0.00     0.272 C 
HETATM   18  C8  UNL     1      26.594   3.238  49.580  1.00  0.00     0.032 C 
HETATM   19  C9  UNL     1      26.999   4.544  48.985  1.00  0.00     0.032 C 
HETATM   20  C10 UNL     1      25.830   5.465  49.248  1.00  0.00     0.272 C 
ENDBRANCH  15  16
ENDBRANCH  14  15
ENDBRANCH  13  14
ENDBRANCH  12  13
ENDBRANCH   8  12
ENDBRANCH   1   8
BRANCH   7  21
HETATM   21  N4  UNL     1      23.813   1.100  53.314  1.00  0.00    -0.340 N 
HETATM   22  H25 UNL     1      23.714   2.131  53.182  1.00  0.00     0.167 HD
BRANCH  21  23
HETATM   23  C16 UNL     1      25.186   0.739  53.269  1.00  0.00     0.035 A 
HETATM   24  C17 UNL     1      25.640  -0.558  52.996  1.00  0.00     0.032 A 
HETATM   25  C18 UNL     1      26.976  -0.865  52.961  1.00  0.00     0.046 A 
HETATM   26  C19 UNL     1      27.935   0.091  53.196  1.00  0.00     0.138 A 
HETATM   27  F1  UNL     1      29.194  -0.343  53.132  1.00  0.00    -0.204 F 
HETATM   28  C20 UNL     1      27.527   1.372  53.467  1.00  0.00     0.074 A 
HETATM   29 CL1  UNL     1      28.816   2.522  53.753  1.00  0.00    -0.081 Cl
HETATM   30  C21 UNL     1      26.185   1.656  53.496  1.00  0.00     0.056 A 
ENDBRANCH  21  23
ENDBRANCH   7  21
TORSDOF 10
ENDMDL
MODEL 2
REMARK VINA RESULT:      -7.5      1.800      5.701
REMARK  10 active torsions:
REMARK  status: ('A' for Active; 'I' for Inactive)
REMARK    1  A    between atoms: O1_2  and  C2_3 
REMARK    2  A    between atoms: C2_3  and  C3_4 
REMARK    3  A    between atoms: C3_4  and  O2_5 
REMARK    4  A    between atoms: C3_4  and  C11_14 
REMARK    5  A    between atoms: O2_5  and  C4_6 
REMARK    6  A    between atoms: C4_6  and  C5_7 
REMARK    7  A    between atoms: C5_7  and  C6_8 
REMARK    8  A    between atoms: C6_8  and  N1_9 
REMARK    9  A    between atoms: C15_20  and  N4_21 
REMARK   10  A    between atoms: N4_21  and  C16_22 
ROOT
HETATM    1  C11 UNL     1      24.746   3.884  50.401  1.00  0.00     0.043 A 
HETATM    2  C12 UNL     1      24.873   4.702  49.271  1.00  0.00     0.044 A 
HETATM    3  C13 UNL     1      23.727   5.341  48.627  1.00  0.00     0.071 C 
HETATM    4  N2  UNL     1      26.064   4.959  48.699  1.00  0.00    -0.246 NA
HETATM    5  C14 UNL     1      27.191   4.449  49.178  1.00  0.00     0.235 A 
HETATM    6  N3  UNL     1      27.101   3.675  50.242  1.00  0.00    -0.224 NA
HETATM    7  C15 UNL     1      25.961   3.368  50.871  1.00  0.00     0.140 A 
ENDROOT
BRANCH   1   8
HETATM    8  C3  UNL     1      23.427   3.627  50.995  1.00  0.00     0.184 C 
BRANCH   8   9
HETATM    9  C2  UNL     1      23.203   4.406  52.276  1.00  0.00     0.203 C 
BRANCH   9  10
HETATM   10  O1  UNL     1      21.866   4.686  52.518  1.00  0.00    -0.393 OA
HETATM   11  C1  UNL     1      21.318   5.107  51.306  1.00  0.00     0.201 C 
ENDBRANCH   9  10
ENDBRANCH   8   9
BRANCH   8  12
HETATM   12  O2  UNL     1      23.309   2.264  51.188  1.00  0.00    -0.379 OA
BRANCH  12  13
HETATM   13  C4  UNL     1      22.386   1.611  50.426  1.00  0.00     0.170 C 
BRANCH  13  14
HETATM   14  C5  UNL     1      21.595   0.659  51.254  1.00  0.00     0.056 C 
BRANCH  14  15
HETATM   15  C6  UNL     1      20.652   1.389  52.218  1.00  0.00     0.274 C 
BRANCH  15  16
HETATM   16  N1  UNL     1      20.781   0.711  53.495  1.00  0.00     0.088 N 
HETATM   17  C7  UNL     1      20.050  -0.536  53.519  1.00  0.00     0.272 C 
HETATM   18  C8  UNL     1      20.883  -1.569  54.199  1.00  0.00     0.032 C 
HETATM   19  C9  UNL     1      22.136  -0.876  54.614  1.00  0.00     0.032 C 
HETATM   20  C10 UNL     1      22.147   0.407  53.815  1.00  0.00     0.272 C 
ENDBRANCH  15  16
ENDBRANCH  14  15
ENDBRANCH  13  14
ENDBRANCH  12  13
ENDBRANCH   8  12
ENDBRANCH   1   8
BRANCH   7  21
HETATM   21  N4  UNL     1      25.951   2.531  52.016  1.00  0.00    -0.340 N 
HETATM   22  H25 UNL     1      25.131   2.573  52.660  1.00  0.00     0.167 HD
BRANCH  21  23
HETATM   23  C16 UNL     1      26.893   1.584  52.498  1.00  0.00     0.035 A 
HETATM   24  C17 UNL     1      28.081   1.933  53.155  1.00  0.00     0.032 A 
HETATM   25  C18 UNL     1      28.964   0.986  53.605  1.00  0.00     0.046 A 
HETATM   26  C19 UNL     1      28.724  -0.356  53.431  1.00  0.00     0.138 A 
HETATM   27  F1  UNL     1      29.664  -1.167  53.916  1.00  0.00    -0.204 F 
HETATM   28  C20 UNL     1      27.571  -0.734  52.792  1.00  0.00     0.074 A 
HETATM   29 CL1  UNL     1      27.349  -2.463  52.615  1.00  0.00    -0.081 Cl
HETATM   30  C21 UNL     1      26.701   0.230  52.350  1.00  0.00     0.056 A 
ENDBRANCH  21  23
ENDBRANCH   7  21
TORSDOF 10
ENDMDL
MODEL 3
REMARK VINA RESULT:      -6.9      2.373      5.959
REMARK  10 active torsions:
REMARK  status: ('A' for Active; 'I' for Inactive)
REMARK    1  A    between atoms: O1_2  and  C2_3 
REMARK    2  A    between atoms: C2_3  and  C3_4 
REMARK    3  A    between atoms: C3_4  and  O2_5 
REMARK    4  A    between atoms: C3_4  and  C11_14 
REMARK    5  A    between atoms: O2_5  and  C4_6 
REMARK    6  A    between atoms: C4_6  and  C5_7 
REMARK    7  A    between atoms: C5_7  and  C6_8 
REMARK    8  A    between atoms: C6_8  and  N1_9 
REMARK    9  A    between atoms: C15_20  and  N4_21 
REMARK   10  A    between atoms: N4_21  and  C16_22 
ROOT
HETATM    1  C11 UNL     1      25.312   4.665  49.472  1.00  0.00     0.043 A 
HETATM    2  C12 UNL     1      25.606   5.914  48.911  1.00  0.00     0.044 A 
HETATM    3  C13 UNL     1      24.606   6.972  48.771  1.00  0.00     0.071 C 
HETATM    4  N2  UNL     1      26.835   6.230  48.463  1.00  0.00    -0.246 NA
HETATM    5  C14 UNL     1      27.842   5.369  48.528  1.00  0.00     0.235 A 
HETATM    6  N3  UNL     1      27.594   4.185  49.051  1.00  0.00    -0.224 NA
HETATM    7  C15 UNL     1      26.405   3.790  49.520  1.00  0.00     0.140 A 
ENDROOT
BRANCH   1   8
HETATM    8  C3  UNL     1      23.956   4.359  49.949  1.00  0.00     0.184 C 
BRANCH   8   9
HETATM    9  C2  UNL     1      23.822   4.500  51.452  1.00  0.00     0.203 C 
BRANCH   9  10
HETATM   10  O1  UNL     1      22.504   4.510  51.885  1.00  0.00    -0.393 OA
HETATM   11  C1  UNL     1      21.907   5.642  51.329  1.00  0.00     0.201 C 
ENDBRANCH   9  10
ENDBRANCH   8   9
BRANCH   8  12
HETATM   12  O2  UNL     1      23.633   3.088  49.515  1.00  0.00    -0.379 OA
BRANCH  12  13
HETATM   13  C4  UNL     1      22.772   2.997  48.461  1.00  0.00     0.170 C 
BRANCH  13  14
HETATM   14  C5  UNL     1      21.430   2.538  48.913  1.00  0.00     0.056 C 
BRANCH  14  15
HETATM   15  C6  UNL     1      21.394   1.022  49.147  1.00  0.00     0.274 C 
BRANCH  15  16
HETATM   16  N1  UNL     1      20.773   0.832  50.445  1.00  0.00     0.088 N 
HETATM   17  C7  UNL     1      21.748   0.533  51.470  1.00  0.00     0.272 C 
HETATM   18  C8  UNL     1      21.397   1.292  52.705  1.00  0.00     0.032 C 
HETATM   19  C9  UNL     1      20.145   2.035  52.385  1.00  0.00     0.032 C 
HETATM   20  C10 UNL     1      20.047   1.993  50.878  1.00  0.00     0.272 C 
ENDBRANCH  15  16
ENDBRANCH  14  15
ENDBRANCH  13  14
ENDBRANCH  12  13
ENDBRANCH   8  12
ENDBRANCH   1   8
BRANCH   7  21
HETATM   21  N4  UNL     1      26.222   2.497  50.074  1.00  0.00    -0.340 N 
HETATM   22  H25 UNL     1      25.946   1.715  49.440  1.00  0.00     0.167 HD
BRANCH  21  23
HETATM   23  C16 UNL     1      26.343   2.018  51.405  1.00  0.00     0.035 A 
HETATM   24  C17 UNL     1      27.387   2.376  52.269  1.00  0.00     0.032 A 
HETATM   25  C18 UNL     1      27.467   1.890  53.549  1.00  0.00     0.046 A 
HETATM   26  C19 UNL     1      26.521   1.025  54.045  1.00  0.00     0.138 A 
HETATM   27  F1  UNL     1      26.720   0.630  55.302  1.00  0.00    -0.204 F 
HETATM   28  C20 UNL     1      25.485   0.652  53.227  1.00  0.00     0.074 A 
HETATM   29 CL1  UNL     1      24.329  -0.452  53.943  1.00  0.00    -0.081 Cl
HETATM   30  C21 UNL     1      25.425   1.151  51.950  1.00  0.00     0.056 A 
ENDBRANCH  21  23
ENDBRANCH   7  21
TORSDOF 10
ENDMDL
MODEL 4
REMARK VINA RESULT:      -6.8      3.498      6.141
REMARK  10 active torsions:
REMARK  status: ('A' for Active; 'I' for Inactive)
REMARK    1  A    between atoms: O1_2  and  C2_3 
REMARK    2  A    between atoms: C2_3  and  C3_4 
REMARK    3  A    between atoms: C3_4  and  O2_5 
REMARK    4  A    between atoms: C3_4  and  C11_14 
REMARK    5  A    between atoms: O2_5  and  C4_6 
REMARK    6  A    between atoms: C4_6  and  C5_7 
REMARK    7  A    between atoms: C5_7  and  C6_8 
REMARK    8  A    between atoms: C6_8  and  N1_9 
REMARK    9  A    between atoms: C15_20  and  N4_21 
REMARK   10  A    between atoms: N4_21  and  C16_22 
ROOT
HETATM    1  C11 UNL     1      22.525   2.768  49.562  1.00  0.00     0.043 A 
HETATM    2  C12 UNL     1      21.521   2.139  48.816  1.00  0.00     0.044 A 
HETATM    3  C13 UNL     1      20.789   0.970  49.303  1.00  0.00     0.071 C 
HETATM    4  N2  UNL     1      21.156   2.569  47.594  1.00  0.00    -0.246 NA
HETATM    5  C14 UNL     1      21.733   3.621  47.025  1.00  0.00     0.235 A 
HETATM    6  N3  UNL     1      22.682   4.232  47.706  1.00  0.00    -0.224 NA
HETATM    7  C15 UNL     1      23.104   3.872  48.923  1.00  0.00     0.140 A 
ENDROOT
BRANCH   1   8
HETATM    8  C3  UNL     1      22.894   2.266  50.893  1.00  0.00     0.184 C 
BRANCH   8   9
HETATM    9  C2  UNL     1      22.333   3.120  52.014  1.00  0.00     0.203 C 
BRANCH   9  10
HETATM   10  O1  UNL     1      21.224   2.555  52.628  1.00  0.00    -0.393 OA
HETATM   11  C1  UNL     1      20.117   3.296  52.217  1.00  0.00     0.201 C 
ENDBRANCH   9  10
ENDBRANCH   8   9
BRANCH   8  12
HETATM   12  O2  UNL     1      24.272   2.180  50.945  1.00  0.00    -0.379 OA
BRANCH  12  13
HETATM   13  C4  UNL     1      24.805   1.425  51.948  1.00  0.00     0.170 C 
BRANCH  13  14
HETATM   14  C5  UNL     1      26.262   1.212  51.732  1.00  0.00     0.056 C 
BRANCH  14  15
HETATM   15  C6  UNL     1      26.675  -0.238  52.013  1.00  0.00     0.274 C 
BRANCH  15  16
HETATM   16  N1  UNL     1      27.518  -0.193  53.194  1.00  0.00     0.088 N 
HETATM   17  C7  UNL     1      28.479  -1.273  53.212  1.00  0.00     0.272 C 
HETATM   18  C8  UNL     1      29.794  -0.741  53.672  1.00  0.00     0.032 C 
HETATM   19  C9  UNL     1      29.570   0.704  53.964  1.00  0.00     0.032 C 
HETATM   20  C10 UNL     1      28.259   1.034  53.288  1.00  0.00     0.272 C 
ENDBRANCH  15  16
ENDBRANCH  14  15
ENDBRANCH  13  14
ENDBRANCH  12  13
ENDBRANCH   8  12
ENDBRANCH   1   8
BRANCH   7  21
HETATM   21  N4  UNL     1      24.129   4.589  49.592  1.00  0.00    -0.340 N 
HETATM   22  H25 UNL     1      23.988   4.847  50.593  1.00  0.00     0.167 HD
BRANCH  21  23
HETATM   23  C16 UNL     1      25.393   5.060  49.147  1.00  0.00     0.035 A 
HETATM   24  C17 UNL     1      26.562   4.287  49.167  1.00  0.00     0.032 A 
HETATM   25  C18 UNL     1      27.763   4.781  48.727  1.00  0.00     0.046 A 
HETATM   26  C19 UNL     1      27.875   6.063  48.244  1.00  0.00     0.138 A 
HETATM   27  F1  UNL     1      29.100   6.414  47.851  1.00  0.00    -0.204 F 
HETATM   28  C20 UNL     1      26.752   6.847  48.210  1.00  0.00     0.074 A 
HETATM   29 CL1  UNL     1      26.989   8.464  47.580  1.00  0.00    -0.081 Cl
HETATM   30  C21 UNL     1      25.560   6.333  48.655  1.00  0.00     0.056 A 
ENDBRANCH  21  23
ENDBRANCH   7  21
TORSDOF 10
ENDMDL
MODEL 5
REMARK VINA RESULT:      -6.7      2.126      3.707
REMARK  10 active torsions:
REMARK  status: ('A' for Active; 'I' for Inactive)
REMARK    1  A    between atoms: O1_2  and  C2_3 
REMARK    2  A    between atoms: C2_3  and  C3_4 
REMARK    3  A    between atoms: C3_4  and  O2_5 
REMARK    4  A    between atoms: C3_4  and  C11_14 
REMARK    5  A    between atoms: O2_5  and  C4_6 
REMARK    6  A    between atoms: C4_6  and  C5_7 
REMARK    7  A    between atoms: C5_7  and  C6_8 
REMARK    8  A    between atoms: C6_8  and  N1_9 
REMARK    9  A    between atoms: C15_20  and  N4_21 
REMARK   10  A    between atoms: N4_21  and  C16_22 
ROOT
HETATM    1  C11 UNL     1      22.176   2.555  51.662  1.00  0.00     0.043 A 
HETATM    2  C12 UNL     1      21.374   3.665  51.955  1.00  0.00     0.044 A 
HETATM    3  C13 UNL     1      19.913   3.606  51.951  1.00  0.00     0.071 C 
HETATM    4  N2  UNL     1      21.894   4.867  52.264  1.00  0.00    -0.246 NA
HETATM    5  C14 UNL     1      23.205   5.068  52.308  1.00  0.00     0.235 A 
HETATM    6  N3  UNL     1      23.984   4.040  52.036  1.00  0.00    -0.224 NA
HETATM    7  C15 UNL     1      23.552   2.814  51.721  1.00  0.00     0.140 A 
ENDROOT
BRANCH   1   8
HETATM    8  C3  UNL     1      21.568   1.260  51.328  1.00  0.00     0.184 C 
BRANCH   8   9
HETATM    9  C2  UNL     1      21.823   0.206  52.388  1.00  0.00     0.203 C 
BRANCH   9  10
HETATM   10  O1  UNL     1      20.922   0.264  53.442  1.00  0.00    -0.393 OA
HETATM   11  C1  UNL     1      19.687  -0.142  52.938  1.00  0.00     0.201 C 
ENDBRANCH   9  10
ENDBRANCH   8   9
BRANCH   8  12
HETATM   12  O2  UNL     1      22.045   0.876  50.089  1.00  0.00    -0.379 OA
BRANCH  12  13
HETATM   13  C4  UNL     1      21.357   1.322  48.999  1.00  0.00     0.170 C 
BRANCH  13  14
HETATM   14  C5  UNL     1      22.293   1.733  47.916  1.00  0.00     0.056 C 
BRANCH  14  15
HETATM   15  C6  UNL     1      21.917   3.098  47.325  1.00  0.00     0.274 C 
BRANCH  15  16
HETATM   16  N1  UNL     1      21.897   4.026  48.442  1.00  0.00     0.088 N 
HETATM   17  C7  UNL     1      23.124   4.786  48.532  1.00  0.00     0.272 C 
HETATM   18  C8  UNL     1      22.790   6.204  48.848  1.00  0.00     0.032 C 
HETATM   19  C9  UNL     1      21.306   6.255  48.978  1.00  0.00     0.032 C 
HETATM   20  C10 UNL     1      20.820   4.972  48.345  1.00  0.00     0.272 C 
ENDBRANCH  15  16
ENDBRANCH  14  15
ENDBRANCH  13  14
ENDBRANCH  12  13
ENDBRANCH   8  12
ENDBRANCH   1   8
BRANCH   7  21
HETATM   21  N4  UNL     1      24.458   1.758  51.447  1.00  0.00    -0.340 N 
HETATM   22  H25 UNL     1      24.372   1.247  50.541  1.00  0.00     0.167 HD
BRANCH  21  23
HETATM   23  C16 UNL     1      25.530   1.217  52.205  1.00  0.00     0.035 A 
HETATM   24  C17 UNL     1      25.594  -0.120  52.618  1.00  0.00     0.032 A 
HETATM   25  C18 UNL     1      26.649  -0.603  53.349  1.00  0.00     0.046 A 
HETATM   26  C19 UNL     1      27.697   0.209  53.713  1.00  0.00     0.138 A 
HETATM   27  F1  UNL     1      28.655  -0.388  54.422  1.00  0.00    -0.204 F 
HETATM   28  C20 UNL     1      27.668   1.524  53.326  1.00  0.00     0.074 A 
HETATM   29 CL1  UNL     1      29.043   2.482  53.833  1.00  0.00    -0.081 Cl
HETATM   30  C21 UNL     1      26.602   1.985  52.594  1.00  0.00     0.056 A 
ENDBRANCH  21  23
ENDBRANCH   7  21
TORSDOF 10
ENDMDL
MODEL 6
REMARK VINA RESULT:      -6.7      1.790      2.289
REMARK  10 active torsions:
REMARK  status: ('A' for Active; 'I' for Inactive)
REMARK    1  A    between atoms: O1_2  and  C2_3 
REMARK    2  A    between atoms: C2_3  and  C3_4 
REMARK    3  A    between atoms: C3_4  and  O2_5 
REMARK    4  A    between atoms: C3_4  and  C11_14 
REMARK    5  A    between atoms: O2_5  and  C4_6 
REMARK    6  A    between atoms: C4_6  and  C5_7 
REMARK    7  A    between atoms: C5_7  and  C6_8 
REMARK    8  A    between atoms: C6_8  and  N1_9 
REMARK    9  A    between atoms: C15_20  and  N4_21 
REMARK   10  A    between atoms: N4_21  and  C16_22 
ROOT
HETATM    1  C11 UNL     1      22.677   1.257  52.611  1.00  0.00     0.043 A 
HETATM    2  C12 UNL     1      21.469   0.835  53.181  1.00  0.00     0.044 A 
HETATM    3  C13 UNL     1      20.195   1.502  52.914  1.00  0.00     0.071 C 
HETATM    4  N2  UNL     1      21.396  -0.219  54.014  1.00  0.00    -0.246 NA
HETATM    5  C14 UNL     1      22.473  -0.922  54.344  1.00  0.00     0.235 A 
HETATM    6  N3  UNL     1      23.624  -0.546  53.822  1.00  0.00    -0.224 NA
HETATM    7  C15 UNL     1      23.785   0.486  52.987  1.00  0.00     0.140 A 
ENDROOT
BRANCH   1   8
HETATM    8  C3  UNL     1      22.714   2.414  51.706  1.00  0.00     0.184 C 
BRANCH   8   9
HETATM    9  C2  UNL     1      22.899   2.013  50.255  1.00  0.00     0.203 C 
BRANCH   9  10
HETATM   10  O1  UNL     1      21.775   2.249  49.476  1.00  0.00    -0.393 OA
HETATM   11  C1  UNL     1      21.354   1.011  48.991  1.00  0.00     0.201 C 
ENDBRANCH   9  10
ENDBRANCH   8   9
BRANCH   8  12
HETATM   12  O2  UNL     1      23.715   3.259  52.142  1.00  0.00    -0.379 OA
BRANCH  12  13
HETATM   13  C4  UNL     1      23.348   4.534  52.463  1.00  0.00     0.170 C 
BRANCH  13  14
HETATM   14  C5  UNL     1      23.874   5.502  51.462  1.00  0.00     0.056 C 
BRANCH  14  15
HETATM   15  C6  UNL     1      22.753   6.351  50.847  1.00  0.00     0.274 C 
BRANCH  15  16
HETATM   16  N1  UNL     1      22.271   5.607  49.697  1.00  0.00     0.088 N 
HETATM   17  C7  UNL     1      21.187   6.291  49.029  1.00  0.00     0.272 C 
HETATM   18  C8  UNL     1      21.387   6.186  47.555  1.00  0.00     0.032 C 
HETATM   19  C9  UNL     1      22.625   5.376  47.367  1.00  0.00     0.032 C 
HETATM   20  C10 UNL     1      23.300   5.388  48.719  1.00  0.00     0.272 C 
ENDBRANCH  15  16
ENDBRANCH  14  15
ENDBRANCH  13  14
ENDBRANCH  12  13
ENDBRANCH   8  12
ENDBRANCH   1   8
BRANCH   7  21
HETATM   21  N4  UNL     1      25.060   0.821  52.463  1.00  0.00    -0.340 N 
HETATM   22  H25 UNL     1      25.111   1.465  51.644  1.00  0.00     0.167 HD
BRANCH  21  23
HETATM   23  C16 UNL     1      26.369   0.431  52.851  1.00  0.00     0.035 A 
HETATM   24  C17 UNL     1      26.885  -0.859  52.663  1.00  0.00     0.032 A 
HETATM   25  C18 UNL     1      28.155  -1.194  53.052  1.00  0.00     0.046 A 
HETATM   26  C19 UNL     1      28.986  -0.276  53.648  1.00  0.00     0.138 A 
HETATM   27  F1  UNL     1      30.194  -0.735  53.977  1.00  0.00    -0.204 F 
HETATM   28  C20 UNL     1      28.515   0.996  53.849  1.00  0.00     0.074 A 
HETATM   29 CL1  UNL     1      29.641   2.097  54.615  1.00  0.00    -0.081 Cl
HETATM   30  C21 UNL     1      27.239   1.310  53.451  1.00  0.00     0.056 A 
ENDBRANCH  21  23
ENDBRANCH   7  21
TORSDOF 10
ENDMDL
MODEL 7
REMARK VINA RESULT:      -6.6      3.354      6.054
REMARK  10 active torsions:
REMARK  status: ('A' for Active; 'I' for Inactive)
REMARK    1  A    between atoms: O1_2  and  C2_3 
REMARK    2  A    between atoms: C2_3  and  C3_4 
REMARK    3  A    between atoms: C3_4  and  O2_5 
REMARK    4  A    between atoms: C3_4  and  C11_14 
REMARK    5  A    between atoms: O2_5  and  C4_6 
REMARK    6  A    between atoms: C4_6  and  C5_7 
REMARK    7  A    between atoms: C5_7  and  C6_8 
REMARK    8  A    between atoms: C6_8  and  N1_9 
REMARK    9  A    between atoms: C15_20  and  N4_21 
REMARK   10  A    between atoms: N4_21  and  C16_22 
ROOT
HETATM    1  C11 UNL     1      24.886   2.754  50.979  1.00  0.00     0.043 A 
HETATM    2  C12 UNL     1      26.253   2.851  50.694  1.00  0.00     0.044 A 
HETATM    3  C13 UNL     1      26.759   3.338  49.411  1.00  0.00     0.071 C 
HETATM    4  N2  UNL     1      27.200   2.504  51.585  1.00  0.00    -0.246 NA
HETATM    5  C14 UNL     1      26.888   2.047  52.791  1.00  0.00     0.235 A 
HETATM    6  N3  UNL     1      25.607   1.945  53.086  1.00  0.00    -0.224 NA
HETATM    7  C15 UNL     1      24.604   2.268  52.263  1.00  0.00     0.140 A 
ENDROOT
BRANCH   1   8
HETATM    8  C3  UNL     1      23.883   3.142  49.978  1.00  0.00     0.184 C 
BRANCH   8   9
HETATM    9  C2  UNL     1      23.214   4.463  50.306  1.00  0.00     0.203 C 
BRANCH   9  10
HETATM   10  O1  UNL     1      22.014   4.313  50.987  1.00  0.00    -0.393 OA
HETATM   11  C1  UNL     1      21.894   5.414  51.836  1.00  0.00     0.201 C 
ENDBRANCH   9  10
ENDBRANCH   8   9
BRANCH   8  12
HETATM   12  O2  UNL     1      22.970   2.110  49.872  1.00  0.00    -0.379 OA
BRANCH  12  13
HETATM   13  C4  UNL     1      22.361   1.948  48.662  1.00  0.00     0.170 C 
BRANCH  13  14
HETATM   14  C5  UNL     1      20.923   1.604  48.837  1.00  0.00     0.056 C 
BRANCH  14  15
HETATM   15  C6  UNL     1      20.013   2.515  48.003  1.00  0.00     0.274 C 
BRANCH  15  16
HETATM   16  N1  UNL     1      18.910   2.883  48.872  1.00  0.00     0.088 N 
HETATM   17  C7  UNL     1      18.884   2.083  50.077  1.00  0.00     0.272 C 
HETATM   18  C8  UNL     1      18.572   2.968  51.236  1.00  0.00     0.032 C 
HETATM   19  C9  UNL     1      18.378   4.332  50.667  1.00  0.00     0.032 C 
HETATM   20  C10 UNL     1      18.972   4.259  49.280  1.00  0.00     0.272 C 
ENDBRANCH  15  16
ENDBRANCH  14  15
ENDBRANCH  13  14
ENDBRANCH  12  13
ENDBRANCH   8  12
ENDBRANCH   1   8
BRANCH   7  21
HETATM   21  N4  UNL     1      23.249   2.134  52.661  1.00  0.00    -0.340 N 
HETATM   22  H25 UNL     1      22.636   2.979  52.644  1.00  0.00     0.167 HD
BRANCH  21  23
HETATM   23  C16 UNL     1      22.506   1.010  53.109  1.00  0.00     0.035 A 
HETATM   24  C17 UNL     1      23.044  -0.014  53.900  1.00  0.00     0.032 A 
HETATM   25  C18 UNL     1      22.292  -1.083  54.312  1.00  0.00     0.046 A 
HETATM   26  C19 UNL     1      20.967  -1.200  53.965  1.00  0.00     0.138 A 
HETATM   27  F1  UNL     1      20.354  -2.288  54.431  1.00  0.00    -0.204 F 
HETATM   28  C20 UNL     1      20.406  -0.218  53.190  1.00  0.00     0.074 A 
HETATM   29 CL1  UNL     1      18.716  -0.450  52.797  1.00  0.00    -0.081 Cl
HETATM   30  C21 UNL     1      21.179   0.844  52.790  1.00  0.00     0.056 A 
ENDBRANCH  21  23
ENDBRANCH   7  21
TORSDOF 10
ENDMDL
MODEL 8
REMARK VINA RESULT:      -6.4      3.708      7.190
REMARK  10 active torsions:
REMARK  status: ('A' for Active; 'I' for Inactive)
REMARK    1  A    between atoms: O1_2  and  C2_3 
REMARK    2  A    between atoms: C2_3  and  C3_4 
REMARK    3  A    between atoms: C3_4  and  O2_5 
REMARK    4  A    between atoms: C3_4  and  C11_14 
REMARK    5  A    between atoms: O2_5  and  C4_6 
REMARK    6  A    between atoms: C4_6  and  C5_7 
REMARK    7  A    between atoms: C5_7  and  C6_8 
REMARK    8  A    between atoms: C6_8  and  N1_9 
REMARK    9  A    between atoms: C15_20  and  N4_21 
REMARK   10  A    between atoms: N4_21  and  C16_22 
ROOT
HETATM    1  C11 UNL     1      23.821   4.670  49.259  1.00  0.00     0.043 A 
HETATM    2  C12 UNL     1      22.956   4.041  48.354  1.00  0.00     0.044 A 
HETATM    3  C13 UNL     1      22.549   2.644  48.494  1.00  0.00     0.071 C 
HETATM    4  N2  UNL     1      22.437   4.682  47.291  1.00  0.00    -0.246 NA
HETATM    5  C14 UNL     1      22.718   5.955  47.040  1.00  0.00     0.235 A 
HETATM    6  N3  UNL     1      23.529   6.572  47.876  1.00  0.00    -0.224 NA
HETATM    7  C15 UNL     1      24.088   6.011  48.955  1.00  0.00     0.140 A 
ENDROOT
BRANCH   1   8
HETATM    8  C3  UNL     1      24.367   3.934  50.407  1.00  0.00     0.184 C 
BRANCH   8   9
HETATM    9  C2  UNL     1      23.699   4.314  51.714  1.00  0.00     0.203 C 
BRANCH   9  10
HETATM   10  O1  UNL     1      22.651   3.471  52.057  1.00  0.00    -0.393 OA
HETATM   11  C1  UNL     1      23.223   2.312  52.582  1.00  0.00     0.201 C 
ENDBRANCH   9  10
ENDBRANCH   8   9
BRANCH   8  12
HETATM   12  O2  UNL     1      25.731   4.152  50.438  1.00  0.00    -0.379 OA
BRANCH  12  13
HETATM   13  C4  UNL     1      26.526   3.155  49.953  1.00  0.00     0.170 C 
BRANCH  13  14
HETATM   14  C5  UNL     1      26.525   1.984  50.872  1.00  0.00     0.056 C 
BRANCH  14  15
HETATM   15  C6  UNL     1      27.252   2.291  52.187  1.00  0.00     0.274 C 
BRANCH  15  16
HETATM   16  N1  UNL     1      27.360   1.026  52.891  1.00  0.00     0.088 N 
HETATM   17  C7  UNL     1      28.658   0.861  53.506  1.00  0.00     0.272 C 
HETATM   18  C8  UNL     1      28.476   0.277  54.866  1.00  0.00     0.032 C 
HETATM   19  C9  UNL     1      27.008   0.066  55.027  1.00  0.00     0.032 C 
HETATM   20  C10 UNL     1      26.379   0.896  53.932  1.00  0.00     0.272 C 
ENDBRANCH  15  16
ENDBRANCH  14  15
ENDBRANCH  13  14
ENDBRANCH  12  13
ENDBRANCH   8  12
ENDBRANCH   1   8
BRANCH   7  21
HETATM   21  N4  UNL     1      24.948   6.748  49.809  1.00  0.00    -0.340 N 
HETATM   22  H25 UNL     1      24.685   6.854  50.813  1.00  0.00     0.167 HD
BRANCH  21  23
HETATM   23  C16 UNL     1      26.175   7.418  49.559  1.00  0.00     0.035 A 
HETATM   24  C17 UNL     1      26.543   8.623  50.173  1.00  0.00     0.032 A 
HETATM   25  C18 UNL     1      27.738   9.237  49.904  1.00  0.00     0.046 A 
HETATM   26  C19 UNL     1      28.635   8.696  49.013  1.00  0.00     0.138 A 
HETATM   27  F1  UNL     1      29.757   9.396  48.845  1.00  0.00    -0.204 F 
HETATM   28  C20 UNL     1      28.308   7.518  48.393  1.00  0.00     0.074 A 
HETATM   29 CL1  UNL     1      29.509   6.904  47.276  1.00  0.00    -0.081 Cl
HETATM   30  C21 UNL     1      27.106   6.920  48.678  1.00  0.00     0.056 A 
ENDBRANCH  21  23
ENDBRANCH   7  21
TORSDOF 10
ENDMDL
MODEL 9
REMARK VINA RESULT:      -6.4      7.605     11.422
REMARK  10 active torsions:
REMARK  status: ('A' for Active; 'I' for Inactive)
REMARK    1  A    between atoms: O1_2  and  C2_3 
REMARK    2  A    between atoms: C2_3  and  C3_4 
REMARK    3  A    between atoms: C3_4  and  O2_5 
REMARK    4  A    between atoms: C3_4  and  C11_14 
REMARK    5  A    between atoms: O2_5  and  C4_6 
REMARK    6  A    between atoms: C4_6  and  C5_7 
REMARK    7  A    between atoms: C5_7  and  C6_8 
REMARK    8  A    between atoms: C6_8  and  N1_9 
REMARK    9  A    between atoms: C15_20  and  N4_21 
REMARK   10  A    between atoms: N4_21  and  C16_22 
ROOT
HETATM    1  C11 UNL     1      32.121   7.215  47.444  1.00  0.00     0.043 A 
HETATM    2  C12 UNL     1      33.348   7.002  48.084  1.00  0.00     0.044 A 
HETATM    3  C13 UNL     1      34.585   7.655  47.657  1.00  0.00     0.071 C 
HETATM    4  N2  UNL     1      33.475   6.180  49.142  1.00  0.00    -0.246 NA
HETATM    5  C14 UNL     1      32.436   5.522  49.641  1.00  0.00     0.235 A 
HETATM    6  N3  UNL     1      31.268   5.704  49.057  1.00  0.00    -0.224 NA
HETATM    7  C15 UNL     1      31.054   6.500  48.004  1.00  0.00     0.140 A 
ENDROOT
BRANCH   1   8
HETATM    8  C3  UNL     1      32.025   8.119  46.290  1.00  0.00     0.184 C 
BRANCH   8   9
HETATM    9  C2  UNL     1      31.208   9.361  46.589  1.00  0.00     0.203 C 
BRANCH   9  10
HETATM   10  O1  UNL     1      31.965  10.399  47.115  1.00  0.00    -0.393 OA
HETATM   11  C1  UNL     1      31.152  11.065  48.031  1.00  0.00     0.201 C 
ENDBRANCH   9  10
ENDBRANCH   8   9
BRANCH   8  12
HETATM   12  O2  UNL     1      31.507   7.399  45.231  1.00  0.00    -0.379 OA
BRANCH  12  13
HETATM   13  C4  UNL     1      32.308   7.249  44.137  1.00  0.00     0.170 C 
BRANCH  13  14
HETATM   14  C5  UNL     1      32.728   5.829  43.981  1.00  0.00     0.056 C 
BRANCH  14  15
HETATM   15  C6  UNL     1      34.069   5.551  44.671  1.00  0.00     0.274 C 
BRANCH  15  16
HETATM   16  N1  UNL     1      33.970   4.207  45.213  1.00  0.00     0.088 N 
HETATM   17  C7  UNL     1      34.963   3.965  46.236  1.00  0.00     0.272 C 
HETATM   18  C8  UNL     1      34.326   3.216  47.357  1.00  0.00     0.032 C 
HETATM   19  C9  UNL     1      32.911   2.989  46.945  1.00  0.00     0.032 C 
HETATM   20  C10 UNL     1      32.686   3.950  45.801  1.00  0.00     0.272 C 
ENDBRANCH  15  16
ENDBRANCH  14  15
ENDBRANCH  13  14
ENDBRANCH  12  13
ENDBRANCH   8  12
ENDBRANCH   1   8
BRANCH   7  21
HETATM   21  N4  UNL     1      29.761   6.645  47.437  1.00  0.00    -0.340 N 
HETATM   22  H25 UNL     1      29.678   7.048  46.478  1.00  0.00     0.167 HD
BRANCH  21  23
HETATM   23  C16 UNL     1      28.472   6.335  47.944  1.00  0.00     0.035 A 
HETATM   24  C17 UNL     1      27.412   7.250  47.986  1.00  0.00     0.032 A 
HETATM   25  C18 UNL     1      26.180   6.910  48.483  1.00  0.00     0.046 A 
HETATM   26  C19 UNL     1      25.928   5.647  48.965  1.00  0.00     0.138 A 
HETATM   27  F1  UNL     1      24.690   5.452  49.419  1.00  0.00    -0.204 F 
HETATM   28  C20 UNL     1      26.943   4.725  48.940  1.00  0.00     0.074 A 
HETATM   29 CL1  UNL     1      26.532   3.145  49.574  1.00  0.00    -0.081 Cl
HETATM   30  C21 UNL     1      28.167   5.088  48.437  1.00  0.00     0.056 A 
ENDBRANCH  21  23
ENDBRANCH   7  21
TORSDOF 10
ENDMDL
