MODEL 1
REMARK VINA RESULT:      -8.2      0.000      0.000
REMARK  4 active torsions:
REMARK  status: ('A' for Active; 'I' for Inactive)
REMARK    1  A    between atoms: O1_2  and  C2_3 
REMARK    2  A    between atoms: C6_7  and  C7_8 
REMARK       I    between atoms: C7_8  and  N1_10 
REMARK    3  A    between atoms: N1_10  and  S1_11 
REMARK    4  A    between atoms: S1_11  and  C8_14 
ROOT
HETATM    1  C7  UNL     1      25.485   2.507  51.296  1.00  0.00     0.239 C 
HETATM    2  O2  UNL     1      24.760   1.818  52.092  1.00  0.00    -0.272 OA
HETATM    3  N1  UNL     1      26.808   2.622  51.858  1.00  0.00    -0.250 N 
HETATM    4  H8  UNL     1      27.612   3.140  51.406  1.00  0.00     0.182 HD
ENDROOT
BRANCH   3   5
HETATM    5  S1  UNL     1      27.393   1.971  53.349  1.00  0.00     0.265 S 
HETATM    6  O3  UNL     1      26.303   2.121  54.381  1.00  0.00    -0.200 OA
HETATM    7  O4  UNL     1      28.558   2.801  53.802  1.00  0.00    -0.200 OA
BRANCH   5   8
HETATM    8  C8  UNL     1      27.848   0.297  53.214  1.00  0.00     0.079 A 
HETATM    9  C9  UNL     1      29.156   0.013  53.601  1.00  0.00     0.025 A 
HETATM   10  C10 UNL     1      29.617  -1.294  53.531  1.00  0.00     0.002 A 
HETATM   11  C11 UNL     1      28.802  -2.303  53.087  1.00  0.00     0.000 A 
HETATM   12  C12 UNL     1      27.509  -2.001  52.708  1.00  0.00     0.002 A 
HETATM   13  C13 UNL     1      27.016  -0.702  52.766  1.00  0.00     0.025 A 
ENDBRANCH   5   8
ENDBRANCH   3   5
BRANCH   1  14
HETATM   14  C6  UNL     1      25.369   3.206  49.989  1.00  0.00     0.107 A 
HETATM   15  C5  UNL     1      26.699   3.468  49.393  1.00  0.00    -0.012 A 
HETATM   16  C4  UNL     1      27.307   4.558  48.962  1.00  0.00    -0.001 A 
HETATM   17  C3  UNL     1      26.531   5.783  49.085  1.00  0.00     0.032 A 
HETATM   18  C2  UNL     1      25.329   5.628  49.609  1.00  0.00     0.046 A 
HETATM   19  C14 UNL     1      24.582   4.466  50.111  1.00  0.00     0.082 A 
BRANCH  18  20
HETATM   20  O1  UNL     1      24.583   6.815  49.726  1.00  0.00    -0.360 OA
HETATM   21  C1  UNL     1      24.147   7.204  51.019  1.00  0.00     0.209 C 
ENDBRANCH  18  20
ENDBRANCH   1  14
TORSDOF 4
ENDMDL
MODEL 2
REMARK VINA RESULT:      -7.9      1.155      1.417
REMARK  4 active torsions:
REMARK  status: ('A' for Active; 'I' for Inactive)
REMARK    1  A    between atoms: O1_2  and  C2_3 
REMARK    2  A    between atoms: C6_7  and  C7_8 
REMARK       I    between atoms: C7_8  and  N1_10 
REMARK    3  A    between atoms: N1_10  and  S1_11 
REMARK    4  A    between atoms: S1_11  and  C8_14 
ROOT
HETATM    1  C7  UNL     1      26.654   2.581  51.190  1.00  0.00     0.239 C 
HETATM    2  O2  UNL     1      27.728   2.647  51.879  1.00  0.00    -0.272 OA
HETATM    3  N1  UNL     1      25.718   1.722  51.873  1.00  0.00    -0.250 N 
HETATM    4  H8  UNL     1      24.746   1.491  51.524  1.00  0.00     0.182 HD
ENDROOT
BRANCH   3   5
HETATM    5  S1  UNL     1      25.936   0.886  53.370  1.00  0.00     0.265 S 
HETATM    6  O3  UNL     1      24.606   0.297  53.772  1.00  0.00    -0.200 OA
HETATM    7  O4  UNL     1      26.319   1.888  54.419  1.00  0.00    -0.200 OA
BRANCH   5   8
HETATM    8  C8  UNL     1      27.130  -0.376  53.263  1.00  0.00     0.079 A 
HETATM    9  C9  UNL     1      28.381  -0.044  53.778  1.00  0.00     0.025 A 
HETATM   10  C10 UNL     1      29.403  -0.982  53.741  1.00  0.00     0.002 A 
HETATM   11  C11 UNL     1      29.194  -2.226  53.203  1.00  0.00     0.000 A 
HETATM   12  C12 UNL     1      27.947  -2.535  52.697  1.00  0.00     0.002 A 
HETATM   13  C13 UNL     1      26.902  -1.618  52.719  1.00  0.00     0.025 A 
ENDBRANCH   5   8
ENDBRANCH   3   5
BRANCH   1  14
HETATM   14  C6  UNL     1      26.097   3.119  49.921  1.00  0.00     0.107 A 
HETATM   15  C5  UNL     1      27.093   3.942  49.196  1.00  0.00    -0.012 A 
HETATM   16  C4  UNL     1      27.091   5.178  48.733  1.00  0.00    -0.001 A 
HETATM   17  C3  UNL     1      25.861   5.920  48.968  1.00  0.00     0.032 A 
HETATM   18  C2  UNL     1      24.923   5.249  49.610  1.00  0.00     0.046 A 
HETATM   19  C14 UNL     1      24.842   3.887  50.156  1.00  0.00     0.082 A 
BRANCH  18  20
HETATM   20  O1  UNL     1      23.736   5.970  49.834  1.00  0.00    -0.360 OA
HETATM   21  C1  UNL     1      22.980   5.665  50.995  1.00  0.00     0.209 C 
ENDBRANCH  18  20
ENDBRANCH   1  14
TORSDOF 4
ENDMDL
MODEL 3
REMARK VINA RESULT:      -7.8      3.119      5.050
REMARK  4 active torsions:
REMARK  status: ('A' for Active; 'I' for Inactive)
REMARK    1  A    between atoms: O1_2  and  C2_3 
REMARK    2  A    between atoms: C6_7  and  C7_8 
REMARK       I    between atoms: C7_8  and  N1_10 
REMARK    3  A    between atoms: N1_10  and  S1_11 
REMARK    4  A    between atoms: S1_11  and  C8_14 
ROOT
HETATM    1  C7  UNL     1      24.100   2.070  52.108  1.00  0.00     0.239 C 
HETATM    2  O2  UNL     1      24.553   3.263  52.174  1.00  0.00    -0.272 OA
HETATM    3  N1  UNL     1      25.162   1.153  52.440  1.00  0.00    -0.250 N 
HETATM    4  H8  UNL     1      25.064   0.099  52.464  1.00  0.00     0.182 HD
ENDROOT
BRANCH   3   5
HETATM    5  S1  UNL     1      26.797   1.524  52.863  1.00  0.00     0.265 S 
HETATM    6  O3  UNL     1      26.778   2.301  54.156  1.00  0.00    -0.200 OA
HETATM    7  O4  UNL     1      27.365   2.425  51.806  1.00  0.00    -0.200 OA
BRANCH   5   8
HETATM    8  C8  UNL     1      27.780   0.099  53.046  1.00  0.00     0.079 A 
HETATM    9  C9  UNL     1      27.148  -1.096  52.711  1.00  0.00     0.025 A 
HETATM   10  C10 UNL     1      27.846  -2.289  52.822  1.00  0.00     0.002 A 
HETATM   11  C11 UNL     1      29.146  -2.303  53.259  1.00  0.00     0.000 A 
HETATM   12  C12 UNL     1      29.754  -1.108  53.587  1.00  0.00     0.002 A 
HETATM   13  C13 UNL     1      29.083   0.105  53.487  1.00  0.00     0.025 A 
ENDBRANCH   5   8
ENDBRANCH   3   5
BRANCH   1  14
HETATM   14  C6  UNL     1      22.828   1.365  51.800  1.00  0.00     0.107 A 
HETATM   15  C5  UNL     1      21.653   2.234  52.042  1.00  0.00    -0.012 A 
HETATM   16  C4  UNL     1      20.560   2.108  52.772  1.00  0.00    -0.001 A 
HETATM   17  C3  UNL     1      20.455   0.859  53.510  1.00  0.00     0.032 A 
HETATM   18  C2  UNL     1      21.468   0.030  53.344  1.00  0.00     0.046 A 
HETATM   19  C14 UNL     1      22.711   0.089  52.561  1.00  0.00     0.082 A 
BRANCH  18  20
HETATM   20  O1  UNL     1      21.363  -1.177  54.059  1.00  0.00    -0.360 OA
HETATM   21  C1  UNL     1      22.333  -1.447  55.058  1.00  0.00     0.209 C 
ENDBRANCH  18  20
ENDBRANCH   1  14
TORSDOF 4
ENDMDL
MODEL 4
REMARK VINA RESULT:      -7.5      2.581      3.245
REMARK  4 active torsions:
REMARK  status: ('A' for Active; 'I' for Inactive)
REMARK    1  A    between atoms: O1_2  and  C2_3 
REMARK    2  A    between atoms: C6_7  and  C7_8 
REMARK       I    between atoms: C7_8  and  N1_10 
REMARK    3  A    between atoms: N1_10  and  S1_11 
REMARK    4  A    between atoms: S1_11  and  C8_14 
ROOT
HETATM    1  C7  UNL     1      26.561   2.595  51.196  1.00  0.00     0.239 C 
HETATM    2  O2  UNL     1      27.640   2.561  51.879  1.00  0.00    -0.272 OA
HETATM    3  N1  UNL     1      25.601   1.707  51.804  1.00  0.00    -0.250 N 
HETATM    4  H8  UNL     1      24.619   1.542  51.444  1.00  0.00     0.182 HD
ENDROOT
BRANCH   3   5
HETATM    5  S1  UNL     1      25.799   0.729  53.215  1.00  0.00     0.265 S 
HETATM    6  O3  UNL     1      26.299   1.615  54.330  1.00  0.00    -0.200 OA
HETATM    7  O4  UNL     1      26.867  -0.289  52.938  1.00  0.00    -0.200 OA
BRANCH   5   8
HETATM    8  C8  UNL     1      24.321  -0.051  53.702  1.00  0.00     0.079 A 
HETATM    9  C9  UNL     1      24.409  -0.791  54.878  1.00  0.00     0.025 A 
HETATM   10  C10 UNL     1      23.285  -1.451  55.352  1.00  0.00     0.002 A 
HETATM   11  C11 UNL     1      22.094  -1.383  54.675  1.00  0.00     0.000 A 
HETATM   12  C12 UNL     1      22.028  -0.644  53.511  1.00  0.00     0.002 A 
HETATM   13  C13 UNL     1      23.136   0.029  53.009  1.00  0.00     0.025 A 
ENDBRANCH   5   8
ENDBRANCH   3   5
BRANCH   1  14
HETATM   14  C6  UNL     1      26.015   3.266  49.987  1.00  0.00     0.107 A 
HETATM   15  C5  UNL     1      27.091   3.870  49.168  1.00  0.00    -0.012 A 
HETATM   16  C4  UNL     1      27.313   5.087  48.707  1.00  0.00    -0.001 A 
HETATM   17  C3  UNL     1      26.301   6.072  49.060  1.00  0.00     0.032 A 
HETATM   18  C2  UNL     1      25.306   5.606  49.792  1.00  0.00     0.046 A 
HETATM   19  C14 UNL     1      24.984   4.283  50.344  1.00  0.00     0.082 A 
BRANCH  18  20
HETATM   20  O1  UNL     1      24.330   6.561  50.131  1.00  0.00    -0.360 OA
HETATM   21  C1  UNL     1      23.481   6.285  51.233  1.00  0.00     0.209 C 
ENDBRANCH  18  20
ENDBRANCH   1  14
TORSDOF 4
ENDMDL
MODEL 5
REMARK VINA RESULT:      -7.4      2.030      6.712
REMARK  4 active torsions:
REMARK  status: ('A' for Active; 'I' for Inactive)
REMARK    1  A    between atoms: O1_2  and  C2_3 
REMARK    2  A    between atoms: C6_7  and  C7_8 
REMARK       I    between atoms: C7_8  and  N1_10 
REMARK    3  A    between atoms: N1_10  and  S1_11 
REMARK    4  A    between atoms: S1_11  and  C8_14 
ROOT
HETATM    1  C7  UNL     1      24.854   1.963  52.936  1.00  0.00     0.239 C 
HETATM    2  O2  UNL     1      23.608   1.826  52.689  1.00  0.00    -0.272 OA
HETATM    3  N1  UNL     1      25.409   2.912  52.004  1.00  0.00    -0.250 N 
HETATM    4  H8  UNL     1      26.423   3.214  51.982  1.00  0.00     0.182 HD
ENDROOT
BRANCH   3   5
HETATM    5  S1  UNL     1      24.596   3.762  50.737  1.00  0.00     0.265 S 
HETATM    6  O3  UNL     1      23.512   4.606  51.364  1.00  0.00    -0.200 OA
HETATM    7  O4  UNL     1      23.925   2.756  49.849  1.00  0.00    -0.200 OA
BRANCH   5   8
HETATM    8  C8  UNL     1      25.670   4.774  49.815  1.00  0.00     0.079 A 
HETATM    9  C9  UNL     1      26.810   4.135  49.335  1.00  0.00     0.025 A 
HETATM   10  C10 UNL     1      27.730   4.855  48.587  1.00  0.00     0.002 A 
HETATM   11  C11 UNL     1      27.529   6.184  48.318  1.00  0.00     0.000 A 
HETATM   12  C12 UNL     1      26.392   6.800  48.802  1.00  0.00     0.002 A 
HETATM   13  C13 UNL     1      25.450   6.107  49.555  1.00  0.00     0.025 A 
ENDBRANCH   5   8
ENDBRANCH   3   5
BRANCH   1  14
HETATM   14  C6  UNL     1      25.876   1.444  53.883  1.00  0.00     0.107 A 
HETATM   15  C5  UNL     1      27.147   2.198  53.777  1.00  0.00    -0.012 A 
HETATM   16  C4  UNL     1      28.400   1.846  53.556  1.00  0.00    -0.001 A 
HETATM   17  C3  UNL     1      28.614   0.418  53.374  1.00  0.00     0.032 A 
HETATM   18  C2  UNL     1      27.524  -0.321  53.455  1.00  0.00     0.046 A 
HETATM   19  C14 UNL     1      26.106  -0.017  53.694  1.00  0.00     0.082 A 
BRANCH  18  20
HETATM   20  O1  UNL     1      27.735  -1.700  53.278  1.00  0.00    -0.360 OA
HETATM   21  C1  UNL     1      29.071  -2.179  53.301  1.00  0.00     0.209 C 
ENDBRANCH  18  20
ENDBRANCH   1  14
TORSDOF 4
ENDMDL
MODEL 6
REMARK VINA RESULT:      -7.4      2.730      6.673
REMARK  4 active torsions:
REMARK  status: ('A' for Active; 'I' for Inactive)
REMARK    1  A    between atoms: O1_2  and  C2_3 
REMARK    2  A    between atoms: C6_7  and  C7_8 
REMARK       I    between atoms: C7_8  and  N1_10 
REMARK    3  A    between atoms: N1_10  and  S1_11 
REMARK    4  A    between atoms: S1_11  and  C8_14 
ROOT
HETATM    1  C7  UNL     1      26.201   2.228  52.072  1.00  0.00     0.239 C 
HETATM    2  O2  UNL     1      26.420   2.165  50.815  1.00  0.00    -0.272 OA
HETATM    3  N1  UNL     1      25.105   3.135  52.306  1.00  0.00    -0.250 N 
HETATM    4  H8  UNL     1      24.713   3.374  53.260  1.00  0.00     0.182 HD
ENDROOT
BRANCH   3   5
HETATM    5  S1  UNL     1      24.191   4.025  51.139  1.00  0.00     0.265 S 
HETATM    6  O3  UNL     1      25.155   4.857  50.330  1.00  0.00    -0.200 OA
HETATM    7  O4  UNL     1      23.286   4.972  51.871  1.00  0.00    -0.200 OA
BRANCH   5   8
HETATM    8  C8  UNL     1      23.272   2.993  50.082  1.00  0.00     0.079 A 
HETATM    9  C9  UNL     1      22.554   1.986  50.723  1.00  0.00     0.025 A 
HETATM   10  C10 UNL     1      21.789   1.110  49.968  1.00  0.00     0.002 A 
HETATM   11  C11 UNL     1      21.733   1.224  48.602  1.00  0.00     0.000 A 
HETATM   12  C12 UNL     1      22.452   2.229  47.986  1.00  0.00     0.002 A 
HETATM   13  C13 UNL     1      23.229   3.123  48.713  1.00  0.00     0.025 A 
ENDBRANCH   5   8
ENDBRANCH   3   5
BRANCH   1  14
HETATM   14  C6  UNL     1      26.732   1.652  53.336  1.00  0.00     0.107 A 
HETATM   15  C5  UNL     1      28.049   2.233  53.687  1.00  0.00    -0.012 A 
HETATM   16  C4  UNL     1      29.235   1.713  53.945  1.00  0.00    -0.001 A 
HETATM   17  C3  UNL     1      29.297   0.260  53.880  1.00  0.00     0.032 A 
HETATM   18  C2  UNL     1      28.157  -0.330  53.572  1.00  0.00     0.046 A 
HETATM   19  C14 UNL     1      26.806   0.165  53.272  1.00  0.00     0.082 A 
BRANCH  18  20
HETATM   20  O1  UNL     1      28.221  -1.734  53.510  1.00  0.00    -0.360 OA
HETATM   21  C1  UNL     1      27.376  -2.400  52.587  1.00  0.00     0.209 C 
ENDBRANCH  18  20
ENDBRANCH   1  14
TORSDOF 4
ENDMDL
MODEL 7
REMARK VINA RESULT:      -7.3      3.190      6.980
REMARK  4 active torsions:
REMARK  status: ('A' for Active; 'I' for Inactive)
REMARK    1  A    between atoms: O1_2  and  C2_3 
REMARK    2  A    between atoms: C6_7  and  C7_8 
REMARK       I    between atoms: C7_8  and  N1_10 
REMARK    3  A    between atoms: N1_10  and  S1_11 
REMARK    4  A    between atoms: S1_11  and  C8_14 
ROOT
HETATM    1  C7  UNL     1      22.424   1.470  52.501  1.00  0.00     0.239 C 
HETATM    2  O2  UNL     1      21.422   2.251  52.637  1.00  0.00    -0.272 OA
HETATM    3  N1  UNL     1      23.503   2.203  51.886  1.00  0.00    -0.250 N 
HETATM    4  H8  UNL     1      24.454   1.799  51.658  1.00  0.00     0.182 HD
ENDROOT
BRANCH   3   5
HETATM    5  S1  UNL     1      23.516   3.858  51.386  1.00  0.00     0.265 S 
HETATM    6  O3  UNL     1      23.509   4.719  52.625  1.00  0.00    -0.200 OA
HETATM    7  O4  UNL     1      22.245   4.136  50.639  1.00  0.00    -0.200 OA
BRANCH   5   8
HETATM    8  C8  UNL     1      24.900   4.249  50.406  1.00  0.00     0.079 A 
HETATM    9  C9  UNL     1      24.950   5.567  49.961  1.00  0.00     0.025 A 
HETATM   10  C10 UNL     1      26.014   5.980  49.173  1.00  0.00     0.002 A 
HETATM   11  C11 UNL     1      27.013   5.105  48.828  1.00  0.00     0.000 A 
HETATM   12  C12 UNL     1      26.945   3.802  49.279  1.00  0.00     0.002 A 
HETATM   13  C13 UNL     1      25.892   3.357  50.071  1.00  0.00     0.025 A 
ENDBRANCH   5   8
ENDBRANCH   3   5
BRANCH   1  14
HETATM   14  C6  UNL     1      22.797   0.060  52.787  1.00  0.00     0.107 A 
HETATM   15  C5  UNL     1      21.939  -0.527  53.842  1.00  0.00    -0.012 A 
HETATM   16  C4  UNL     1      22.187  -1.117  54.997  1.00  0.00    -0.001 A 
HETATM   17  C3  UNL     1      23.598  -1.232  55.337  1.00  0.00     0.032 A 
HETATM   18  C2  UNL     1      24.427  -0.730  54.441  1.00  0.00     0.046 A 
HETATM   19  C14 UNL     1      24.239  -0.063  53.145  1.00  0.00     0.082 A 
BRANCH  18  20
HETATM   20  O1  UNL     1      25.789  -0.844  54.775  1.00  0.00    -0.360 OA
HETATM   21  C1  UNL     1      26.548   0.349  54.894  1.00  0.00     0.209 C 
ENDBRANCH  18  20
ENDBRANCH   1  14
TORSDOF 4
ENDMDL
MODEL 8
REMARK VINA RESULT:      -7.2      3.426      4.261
REMARK  4 active torsions:
REMARK  status: ('A' for Active; 'I' for Inactive)
REMARK    1  A    between atoms: O1_2  and  C2_3 
REMARK    2  A    between atoms: C6_7  and  C7_8 
REMARK       I    between atoms: C7_8  and  N1_10 
REMARK    3  A    between atoms: N1_10  and  S1_11 
REMARK    4  A    between atoms: S1_11  and  C8_14 
ROOT
HETATM    1  C7  UNL     1      23.522   1.920  52.799  1.00  0.00     0.239 C 
HETATM    2  O2  UNL     1      24.001   3.102  52.884  1.00  0.00    -0.272 OA
HETATM    3  N1  UNL     1      24.610   0.975  52.852  1.00  0.00    -0.250 N 
HETATM    4  H8  UNL     1      24.500  -0.076  52.803  1.00  0.00     0.182 HD
ENDROOT
BRANCH   3   5
HETATM    5  S1  UNL     1      26.301   1.304  53.001  1.00  0.00     0.265 S 
HETATM    6  O3  UNL     1      26.513   2.080  54.279  1.00  0.00    -0.200 OA
HETATM    7  O4  UNL     1      26.711   2.193  51.864  1.00  0.00    -0.200 OA
BRANCH   5   8
HETATM    8  C8  UNL     1      27.265  -0.145  53.026  1.00  0.00     0.079 A 
HETATM    9  C9  UNL     1      28.570   0.028  53.479  1.00  0.00     0.025 A 
HETATM   10  C10 UNL     1      29.420  -1.067  53.537  1.00  0.00     0.002 A 
HETATM   11  C11 UNL     1      28.989  -2.311  53.153  1.00  0.00     0.000 A 
HETATM   12  C12 UNL     1      27.692  -2.461  52.707  1.00  0.00     0.002 A 
HETATM   13  C13 UNL     1      26.814  -1.384  52.636  1.00  0.00     0.025 A 
ENDBRANCH   5   8
ENDBRANCH   3   5
BRANCH   1  14
HETATM   14  C6  UNL     1      22.203   1.247  52.668  1.00  0.00     0.107 A 
HETATM   15  C5  UNL     1      22.035   0.637  51.328  1.00  0.00    -0.012 A 
HETATM   16  C4  UNL     1      21.121   0.751  50.383  1.00  0.00    -0.001 A 
HETATM   17  C3  UNL     1      20.029   1.663  50.690  1.00  0.00     0.032 A 
HETATM   18  C2  UNL     1      20.110   2.247  51.871  1.00  0.00     0.046 A 
HETATM   19  C14 UNL     1      21.080   2.180  52.972  1.00  0.00     0.082 A 
BRANCH  18  20
HETATM   20  O1  UNL     1      19.053   3.127  52.163  1.00  0.00    -0.360 OA
HETATM   21  C1  UNL     1      18.474   3.854  51.091  1.00  0.00     0.209 C 
ENDBRANCH  18  20
ENDBRANCH   1  14
TORSDOF 4
ENDMDL
MODEL 9
REMARK VINA RESULT:      -7.0      2.812      6.755
REMARK  4 active torsions:
REMARK  status: ('A' for Active; 'I' for Inactive)
REMARK    1  A    between atoms: O1_2  and  C2_3 
REMARK    2  A    between atoms: C6_7  and  C7_8 
REMARK       I    between atoms: C7_8  and  N1_10 
REMARK    3  A    between atoms: N1_10  and  S1_11 
REMARK    4  A    between atoms: S1_11  and  C8_14 
ROOT
HETATM    1  C7  UNL     1      24.481   3.200  51.726  1.00  0.00     0.239 C 
HETATM    2  O2  UNL     1      23.298   3.414  51.295  1.00  0.00    -0.272 OA
HETATM    3  N1  UNL     1      25.400   4.031  50.988  1.00  0.00    -0.250 N 
HETATM    4  H8  UNL     1      26.447   4.055  51.141  1.00  0.00     0.182 HD
ENDROOT
BRANCH   3   5
HETATM    5  S1  UNL     1      25.042   5.150  49.721  1.00  0.00     0.265 S 
HETATM    6  O3  UNL     1      24.256   6.293  50.317  1.00  0.00    -0.200 OA
HETATM    7  O4  UNL     1      24.153   4.466  48.724  1.00  0.00    -0.200 OA
BRANCH   5   8
HETATM    8  C8  UNL     1      26.475   5.764  48.946  1.00  0.00     0.079 A 
HETATM    9  C9  UNL     1      27.510   4.841  48.814  1.00  0.00     0.025 A 
HETATM   10  C10 UNL     1      28.696   5.232  48.209  1.00  0.00     0.002 A 
HETATM   11  C11 UNL     1      28.857   6.511  47.743  1.00  0.00     0.000 A 
HETATM   12  C12 UNL     1      27.819   7.410  47.883  1.00  0.00     0.002 A 
HETATM   13  C13 UNL     1      26.618   7.051  48.484  1.00  0.00     0.025 A 
ENDBRANCH   5   8
ENDBRANCH   3   5
BRANCH   1  14
HETATM   14  C6  UNL     1      25.173   2.366  52.744  1.00  0.00     0.107 A 
HETATM   15  C5  UNL     1      26.359   1.685  52.173  1.00  0.00    -0.012 A 
HETATM   16  C4  UNL     1      26.743   0.423  52.111  1.00  0.00    -0.001 A 
HETATM   17  C3  UNL     1      25.829  -0.529  52.725  1.00  0.00     0.032 A 
HETATM   18  C2  UNL     1      24.746   0.006  53.257  1.00  0.00     0.046 A 
HETATM   19  C14 UNL     1      24.244   1.383  53.370  1.00  0.00     0.082 A 
BRANCH  18  20
HETATM   20  O1  UNL     1      23.866  -0.917  53.850  1.00  0.00    -0.360 OA
HETATM   21  C1  UNL     1      22.555  -1.023  53.320  1.00  0.00     0.209 C 
ENDBRANCH  18  20
ENDBRANCH   1  14
TORSDOF 4
ENDMDL
