MODEL 1
REMARK VINA RESULT:      -8.7      0.000      0.000
REMARK  2 active torsions:
REMARK  status: ('A' for Active; 'I' for Inactive)
REMARK    1  A    between atoms: C1_2  and  C15_21 
REMARK    2  A    between atoms: N1_3  and  C2_4 
ROOT
HETATM    1  C2  UNL     1      25.378   2.968  50.587  1.00  0.00     0.050 C 
HETATM    2  C3  UNL     1      24.253   3.229  49.814  1.00  0.00     0.010 C 
HETATM    3  C4  UNL     1      22.921   3.400  50.408  1.00  0.00     0.049 C 
HETATM    4  C5  UNL     1      21.639   3.551  50.202  1.00  0.00     0.001 C 
HETATM    5  C6  UNL     1      21.439   3.637  51.701  1.00  0.00     0.148 C 
HETATM    6  N2  UNL     1      20.909   2.564  52.392  1.00  0.00    -0.307 N 
HETATM    7  C7  UNL     1      20.311   1.355  53.177  1.00  0.00     0.088 C 
HETATM    8  C8  UNL     1      21.170   0.372  53.590  1.00  0.00     0.036 C 
HETATM    9  C9  UNL     1      22.290  -0.540  53.926  1.00  0.00    -0.007 C 
HETATM   10  C10 UNL     1      23.676  -0.386  53.646  1.00  0.00     0.078 C 
HETATM   11  C11 UNL     1      23.587   0.890  52.994  1.00  0.00     0.063 C 
HETATM   12  N3  UNL     1      23.999   2.065  52.491  1.00  0.00    -0.155 NA
HETATM   13  N4  UNL     1      25.411   2.194  52.698  1.00  0.00    -0.160 NA
HETATM   14  C12 UNL     1      26.216   2.629  51.761  1.00  0.00     0.170 C 
HETATM   15  C13 UNL     1      22.410   0.456  52.114  1.00  0.00     0.048 C 
HETATM   16  C14 UNL     1      21.333   0.257  51.322  1.00  0.00     0.109 C 
HETATM   17  N5  UNL     1      20.961   1.612  51.227  1.00  0.00    -0.310 N 
HETATM   18  H14 UNL     1      20.709   1.799  50.175  1.00  0.00     0.186 HD
ENDROOT
BRANCH   1  19
HETATM   19  N1  UNL     1      26.426   2.972  49.534  1.00  0.00    -0.333 N 
HETATM   20  C1  UNL     1      26.800   4.235  49.233  1.00  0.00     0.191 C 
HETATM   21  O1  UNL     1      26.069   5.009  50.110  1.00  0.00    -0.171 OA
HETATM   22  H1  UNL     1      27.006   2.466  48.858  1.00  0.00     0.168 HD
BRANCH  20  23
HETATM   23  C15 UNL     1      27.521   5.346  48.553  1.00  0.00     0.035 A 
HETATM   24  C16 UNL     1      28.813   5.408  48.199  1.00  0.00     0.019 A 
HETATM   25  C17 UNL     1      29.159   6.654  47.675  1.00  0.00     0.020 A 
HETATM   26  C18 UNL     1      28.375   7.746  47.505  1.00  0.00     0.116 A 
HETATM   27  N6  UNL     1      27.025   7.669  47.877  1.00  0.00    -0.272 NA
HETATM   28  C19 UNL     1      26.670   6.439  48.388  1.00  0.00     0.132 A 
ENDBRANCH  20  23
ENDBRANCH   1  19
TORSDOF 2
ENDMDL
MODEL 2
REMARK VINA RESULT:      -8.6      3.089      6.488
REMARK  2 active torsions:
REMARK  status: ('A' for Active; 'I' for Inactive)
REMARK    1  A    between atoms: C1_2  and  C15_21 
REMARK    2  A    between atoms: N1_3  and  C2_4 
ROOT
HETATM    1  C2  UNL     1      25.125   2.675  51.748  1.00  0.00     0.050 C 
HETATM    2  C3  UNL     1      25.806   2.877  50.554  1.00  0.00     0.010 C 
HETATM    3  C4  UNL     1      26.009   4.218  49.990  1.00  0.00     0.049 C 
HETATM    4  C5  UNL     1      26.436   4.931  48.981  1.00  0.00     0.001 C 
HETATM    5  C6  UNL     1      26.080   6.184  49.754  1.00  0.00     0.148 C 
HETATM    6  N2  UNL     1      24.952   6.909  49.418  1.00  0.00    -0.307 N 
HETATM    7  C7  UNL     1      23.680   7.731  49.042  1.00  0.00     0.088 C 
HETATM    8  C8  UNL     1      22.485   7.345  49.586  1.00  0.00     0.036 C 
HETATM    9  C9  UNL     1      21.335   6.740  50.299  1.00  0.00    -0.007 C 
HETATM   10  C10 UNL     1      21.327   5.637  51.198  1.00  0.00     0.078 C 
HETATM   11  C11 UNL     1      22.738   5.375  51.172  1.00  0.00     0.063 C 
HETATM   12  N3  UNL     1      23.923   4.880  51.569  1.00  0.00    -0.155 NA
HETATM   13  N4  UNL     1      23.734   4.117  52.767  1.00  0.00    -0.160 NA
HETATM   14  C12 UNL     1      24.295   2.948  52.945  1.00  0.00     0.170 C 
HETATM   15  C13 UNL     1      22.813   5.445  49.644  1.00  0.00     0.048 C 
HETATM   16  C14 UNL     1      23.062   5.544  48.319  1.00  0.00     0.109 C 
HETATM   17  N5  UNL     1      24.421   5.891  48.444  1.00  0.00    -0.310 N 
HETATM   18  H14 UNL     1      24.969   5.302  47.698  1.00  0.00     0.186 HD
ENDROOT
BRANCH   1  19
HETATM   19  N1  UNL     1      25.278   1.204  51.891  1.00  0.00    -0.333 N 
HETATM   20  C1  UNL     1      26.486   0.894  52.410  1.00  0.00     0.191 C 
HETATM   21  O1  UNL     1      27.059   2.125  52.658  1.00  0.00    -0.171 OA
HETATM   22  H1  UNL     1      24.919   0.257  51.743  1.00  0.00     0.168 HD
BRANCH  20  23
HETATM   23  C15 UNL     1      27.612   0.056  52.907  1.00  0.00     0.035 A 
HETATM   24  C16 UNL     1      28.817   0.453  53.343  1.00  0.00     0.019 A 
HETATM   25  C17 UNL     1      29.657  -0.624  53.631  1.00  0.00     0.020 A 
HETATM   26  C18 UNL     1      29.401  -1.949  53.513  1.00  0.00     0.116 A 
HETATM   27  N6  UNL     1      28.137  -2.352  53.057  1.00  0.00    -0.272 NA
HETATM   28  C19 UNL     1      27.297  -1.296  52.779  1.00  0.00     0.132 A 
ENDBRANCH  20  23
ENDBRANCH   1  19
TORSDOF 2
ENDMDL
MODEL 3
REMARK VINA RESULT:      -8.6      4.306      5.214
REMARK  2 active torsions:
REMARK  status: ('A' for Active; 'I' for Inactive)
REMARK    1  A    between atoms: C1_2  and  C15_21 
REMARK    2  A    between atoms: N1_3  and  C2_4 
ROOT
HETATM    1  C2  UNL     1      23.294   0.068  53.158  1.00  0.00     0.050 C 
HETATM    2  C3  UNL     1      23.391   0.980  52.114  1.00  0.00     0.010 C 
HETATM    3  C4  UNL     1      22.385   2.029  51.899  1.00  0.00     0.049 C 
HETATM    4  C5  UNL     1      21.951   2.991  51.129  1.00  0.00     0.001 C 
HETATM    5  C6  UNL     1      20.850   3.258  52.134  1.00  0.00     0.148 C 
HETATM    6  N2  UNL     1      19.555   2.852  51.868  1.00  0.00    -0.307 N 
HETATM    7  C7  UNL     1      18.093   2.395  51.573  1.00  0.00     0.088 C 
HETATM    8  C8  UNL     1      17.746   1.111  51.895  1.00  0.00     0.036 C 
HETATM    9  C9  UNL     1      17.621  -0.300  52.334  1.00  0.00    -0.007 C 
HETATM   10  C10 UNL     1      18.601  -1.130  52.947  1.00  0.00     0.078 C 
HETATM   11  C11 UNL     1      19.654  -0.157  52.997  1.00  0.00     0.063 C 
HETATM   12  N3  UNL     1      20.810   0.413  53.380  1.00  0.00    -0.155 NA
HETATM   13  N4  UNL     1      21.451  -0.430  54.345  1.00  0.00    -0.160 NA
HETATM   14  C12 UNL     1      22.733  -0.692  54.299  1.00  0.00     0.170 C 
HETATM   15  C13 UNL     1      19.447   0.272  51.541  1.00  0.00     0.048 C 
HETATM   16  C14 UNL     1      19.349   0.812  50.306  1.00  0.00     0.109 C 
HETATM   17  N5  UNL     1      19.911   2.060  50.638  1.00  0.00    -0.310 N 
HETATM   18  H14 UNL     1      20.609   2.318  49.832  1.00  0.00     0.186 HD
ENDROOT
BRANCH   1  19
HETATM   19  N1  UNL     1      24.563  -0.682  52.968  1.00  0.00    -0.333 N 
HETATM   20  C1  UNL     1      25.623   0.063  53.350  1.00  0.00     0.191 C 
HETATM   21  O1  UNL     1      25.049   1.222  53.833  1.00  0.00    -0.171 OA
HETATM   22  H1  UNL     1      25.061  -1.512  52.634  1.00  0.00     0.168 HD
BRANCH  20  23
HETATM   23  C15 UNL     1      27.043   0.436  53.599  1.00  0.00     0.035 A 
HETATM   24  C16 UNL     1      28.112  -0.369  53.691  1.00  0.00     0.019 A 
HETATM   25  C17 UNL     1      29.270   0.326  54.039  1.00  0.00     0.020 A 
HETATM   26  C18 UNL     1      29.418   1.650  54.287  1.00  0.00     0.116 A 
HETATM   27  N6  UNL     1      28.294   2.482  54.186  1.00  0.00    -0.272 NA
HETATM   28  C19 UNL     1      27.145   1.807  53.835  1.00  0.00     0.132 A 
ENDBRANCH  20  23
ENDBRANCH   1  19
TORSDOF 2
ENDMDL
MODEL 4
REMARK VINA RESULT:      -8.6      3.194      5.838
REMARK  2 active torsions:
REMARK  status: ('A' for Active; 'I' for Inactive)
REMARK    1  A    between atoms: C1_2  and  C15_21 
REMARK    2  A    between atoms: N1_3  and  C2_4 
ROOT
HETATM    1  C2  UNL     1      24.721   1.863  52.321  1.00  0.00     0.050 C 
HETATM    2  C3  UNL     1      23.763   0.997  52.836  1.00  0.00     0.010 C 
HETATM    3  C4  UNL     1      22.527   0.681  52.108  1.00  0.00     0.049 C 
HETATM    4  C5  UNL     1      21.364   0.086  52.128  1.00  0.00     0.001 C 
HETATM    5  C6  UNL     1      21.143   0.535  50.698  1.00  0.00     0.148 C 
HETATM    6  N2  UNL     1      20.281   1.581  50.426  1.00  0.00    -0.307 N 
HETATM    7  C7  UNL     1      19.309   2.761  50.113  1.00  0.00     0.088 C 
HETATM    8  C8  UNL     1      19.806   4.035  50.183  1.00  0.00     0.036 C 
HETATM    9  C9  UNL     1      20.574   5.295  50.319  1.00  0.00    -0.007 C 
HETATM   10  C10 UNL     1      21.950   5.466  50.639  1.00  0.00     0.078 C 
HETATM   11  C11 UNL     1      22.284   4.075  50.744  1.00  0.00     0.063 C 
HETATM   12  N3  UNL     1      23.059   2.978  50.794  1.00  0.00    -0.155 NA
HETATM   13  N4  UNL     1      24.433   3.369  50.678  1.00  0.00    -0.160 NA
HETATM   14  C12 UNL     1      25.368   2.866  51.444  1.00  0.00     0.170 C 
HETATM   15  C13 UNL     1      21.066   3.758  51.617  1.00  0.00     0.048 C 
HETATM   16  C14 UNL     1      20.012   3.300  52.328  1.00  0.00     0.109 C 
HETATM   17  N5  UNL     1      20.080   1.971  51.866  1.00  0.00    -0.310 N 
HETATM   18  H14 UNL     1      19.940   1.324  52.741  1.00  0.00     0.186 HD
ENDROOT
BRANCH   1  19
HETATM   19  N1  UNL     1      25.759   1.763  53.380  1.00  0.00    -0.333 N 
HETATM   20  C1  UNL     1      26.601   0.735  53.133  1.00  0.00     0.191 C 
HETATM   21  O1  UNL     1      26.161   0.239  51.923  1.00  0.00    -0.171 OA
HETATM   22  H1  UNL     1      26.147   2.078  54.274  1.00  0.00     0.168 HD
BRANCH  20  23
HETATM   23  C15 UNL     1      27.730  -0.215  53.331  1.00  0.00     0.035 A 
HETATM   24  C16 UNL     1      28.998   0.057  53.674  1.00  0.00     0.019 A 
HETATM   25  C17 UNL     1      29.805  -1.081  53.662  1.00  0.00     0.020 A 
HETATM   26  C18 UNL     1      29.466  -2.354  53.348  1.00  0.00     0.116 A 
HETATM   27  N6  UNL     1      28.137  -2.627  52.991  1.00  0.00    -0.272 NA
HETATM   28  C19 UNL     1      27.328  -1.511  53.010  1.00  0.00     0.132 A 
ENDBRANCH  20  23
ENDBRANCH   1  19
TORSDOF 2
ENDMDL
MODEL 5
REMARK VINA RESULT:      -8.6      3.021      6.120
REMARK  2 active torsions:
REMARK  status: ('A' for Active; 'I' for Inactive)
REMARK    1  A    between atoms: C1_2  and  C15_21 
REMARK    2  A    between atoms: N1_3  and  C2_4 
ROOT
HETATM    1  C2  UNL     1      25.617   2.626  51.707  1.00  0.00     0.050 C 
HETATM    2  C3  UNL     1      24.510   2.497  52.537  1.00  0.00     0.010 C 
HETATM    3  C4  UNL     1      23.138   2.498  52.013  1.00  0.00     0.049 C 
HETATM    4  C5  UNL     1      21.859   2.503  52.285  1.00  0.00     0.001 C 
HETATM    5  C6  UNL     1      21.574   2.460  50.798  1.00  0.00     0.148 C 
HETATM    6  N2  UNL     1      21.145   3.598  50.141  1.00  0.00    -0.307 N 
HETATM    7  C7  UNL     1      20.662   4.882  49.395  1.00  0.00     0.088 C 
HETATM    8  C8  UNL     1      21.613   5.755  48.943  1.00  0.00     0.036 C 
HETATM    9  C9  UNL     1      22.818   6.527  48.553  1.00  0.00    -0.007 C 
HETATM   10  C10 UNL     1      24.187   6.200  48.760  1.00  0.00     0.078 C 
HETATM   11  C11 UNL     1      23.975   4.938  49.409  1.00  0.00     0.063 C 
HETATM   12  N3  UNL     1      24.264   3.714  49.883  1.00  0.00    -0.155 NA
HETATM   13  N4  UNL     1      25.637   3.416  49.602  1.00  0.00    -0.160 NA
HETATM   14  C12 UNL     1      26.429   2.874  50.493  1.00  0.00     0.170 C 
HETATM   15  C13 UNL     1      22.908   5.502  50.351  1.00  0.00     0.048 C 
HETATM   16  C14 UNL     1      21.905   5.823  51.200  1.00  0.00     0.109 C 
HETATM   17  N5  UNL     1      21.374   4.523  51.307  1.00  0.00    -0.310 N 
HETATM   18  H14 UNL     1      21.156   4.356  52.370  1.00  0.00     0.186 HD
ENDROOT
BRANCH   1  19
HETATM   19  N1  UNL     1      26.709   2.481  52.703  1.00  0.00    -0.333 N 
HETATM   20  C1  UNL     1      27.209   1.226  52.689  1.00  0.00     0.191 C 
HETATM   21  O1  UNL     1      26.511   0.609  51.672  1.00  0.00    -0.171 OA
HETATM   22  H1  UNL     1      27.272   2.870  53.465  1.00  0.00     0.168 HD
BRANCH  20  23
HETATM   23  C15 UNL     1      28.058   0.064  53.070  1.00  0.00     0.035 A 
HETATM   24  C16 UNL     1      29.335   0.064  53.482  1.00  0.00     0.019 A 
HETATM   25  C17 UNL     1      29.837  -1.228  53.648  1.00  0.00     0.020 A 
HETATM   26  C18 UNL     1      29.211  -2.410  53.441  1.00  0.00     0.116 A 
HETATM   27  N6  UNL     1      27.875  -2.398  53.012  1.00  0.00    -0.272 NA
HETATM   28  C19 UNL     1      27.366  -1.127  52.853  1.00  0.00     0.132 A 
ENDBRANCH  20  23
ENDBRANCH   1  19
TORSDOF 2
ENDMDL
MODEL 6
REMARK VINA RESULT:      -8.6      1.720      3.268
REMARK  2 active torsions:
REMARK  status: ('A' for Active; 'I' for Inactive)
REMARK    1  A    between atoms: C1_2  and  C15_21 
REMARK    2  A    between atoms: N1_3  and  C2_4 
ROOT
HETATM    1  C2  UNL     1      23.196   2.741  50.866  1.00  0.00     0.050 C 
HETATM    2  C3  UNL     1      23.877   2.569  52.065  1.00  0.00     0.010 C 
HETATM    3  C4  UNL     1      23.907   1.278  52.766  1.00  0.00     0.049 C 
HETATM    4  C5  UNL     1      24.259   0.621  53.839  1.00  0.00     0.001 C 
HETATM    5  C6  UNL     1      23.709  -0.642  53.210  1.00  0.00     0.148 C 
HETATM    6  N2  UNL     1      22.501  -1.160  53.638  1.00  0.00    -0.307 N 
HETATM    7  C7  UNL     1      21.137  -1.749  54.119  1.00  0.00     0.088 C 
HETATM    8  C8  UNL     1      19.993  -1.256  53.554  1.00  0.00     0.036 C 
HETATM    9  C9  UNL     1      18.918  -0.569  52.798  1.00  0.00    -0.007 C 
HETATM   10  C10 UNL     1      19.038   0.424  51.786  1.00  0.00     0.078 C 
HETATM   11  C11 UNL     1      20.472   0.483  51.763  1.00  0.00     0.063 C 
HETATM   12  N3  UNL     1      21.702   0.761  51.298  1.00  0.00    -0.155 NA
HETATM   13  N4  UNL     1      21.586   1.414  50.028  1.00  0.00    -0.160 NA
HETATM   14  C12 UNL     1      22.301   2.467  49.718  1.00  0.00     0.170 C 
HETATM   15  C13 UNL     1      20.582   0.563  53.288  1.00  0.00     0.048 C 
HETATM   16  C14 UNL     1      20.854   0.567  54.613  1.00  0.00     0.109 C 
HETATM   17  N5  UNL     1      22.147   0.018  54.505  1.00  0.00    -0.310 N 
HETATM   18  H14 UNL     1      22.794   0.598  55.176  1.00  0.00     0.186 HD
ENDROOT
BRANCH   1  19
HETATM   19  N1  UNL     1      23.550   4.152  50.565  1.00  0.00    -0.333 N 
HETATM   20  C1  UNL     1      24.747   4.226  49.944  1.00  0.00     0.191 C 
HETATM   21  O1  UNL     1      25.115   2.905  49.789  1.00  0.00    -0.171 OA
HETATM   22  H1  UNL     1      23.343   5.153  50.637  1.00  0.00     0.168 HD
BRANCH  20  23
HETATM   23  C15 UNL     1      25.941   4.834  49.296  1.00  0.00     0.035 A 
HETATM   24  C16 UNL     1      27.124   4.262  49.023  1.00  0.00     0.019 A 
HETATM   25  C17 UNL     1      28.046   5.173  48.505  1.00  0.00     0.020 A 
HETATM   26  C18 UNL     1      27.884   6.497  48.272  1.00  0.00     0.116 A 
HETATM   27  N6  UNL     1      26.643   7.085  48.560  1.00  0.00    -0.272 NA
HETATM   28  C19 UNL     1      25.722   6.192  49.063  1.00  0.00     0.132 A 
ENDBRANCH  20  23
ENDBRANCH   1  19
TORSDOF 2
ENDMDL
MODEL 7
REMARK VINA RESULT:      -8.2      3.208      4.698
REMARK  2 active torsions:
REMARK  status: ('A' for Active; 'I' for Inactive)
REMARK    1  A    between atoms: C1_2  and  C15_21 
REMARK    2  A    between atoms: N1_3  and  C2_4 
ROOT
HETATM    1  C2  UNL     1      24.378   3.784  50.638  1.00  0.00     0.050 C 
HETATM    2  C3  UNL     1      24.333   3.111  49.423  1.00  0.00     0.010 C 
HETATM    3  C4  UNL     1      23.091   2.982  48.649  1.00  0.00     0.049 C 
HETATM    4  C5  UNL     1      22.493   2.450  47.616  1.00  0.00     0.001 C 
HETATM    5  C6  UNL     1      21.232   3.196  48.000  1.00  0.00     0.148 C 
HETATM    6  N2  UNL     1      20.181   2.521  48.593  1.00  0.00    -0.307 N 
HETATM    7  C7  UNL     1      18.993   1.763  49.263  1.00  0.00     0.088 C 
HETATM    8  C8  UNL     1      19.022   1.599  50.621  1.00  0.00     0.036 C 
HETATM    9  C9  UNL     1      19.283   1.558  52.080  1.00  0.00    -0.007 C 
HETATM   10  C10 UNL     1      20.375   2.115  52.803  1.00  0.00     0.078 C 
HETATM   11  C11 UNL     1      21.053   2.700  51.682  1.00  0.00     0.063 C 
HETATM   12  N3  UNL     1      21.905   3.499  51.017  1.00  0.00    -0.155 NA
HETATM   13  N4  UNL     1      22.633   4.295  51.961  1.00  0.00    -0.160 NA
HETATM   14  C12 UNL     1      23.926   4.482  51.864  1.00  0.00     0.170 C 
HETATM   15  C13 UNL     1      20.932   1.431  50.834  1.00  0.00     0.048 C 
HETATM   16  C14 UNL     1      20.848   0.424  49.936  1.00  0.00     0.109 C 
HETATM   17  N5  UNL     1      20.938   1.234  48.788  1.00  0.00    -0.310 N 
HETATM   18  H14 UNL     1      21.628   0.732  48.098  1.00  0.00     0.186 HD
ENDROOT
BRANCH   1  19
HETATM   19  N1  UNL     1      25.831   3.691  50.935  1.00  0.00    -0.333 N 
HETATM   20  C1  UNL     1      26.113   2.552  51.605  1.00  0.00     0.191 C 
HETATM   21  O1  UNL     1      24.896   1.905  51.672  1.00  0.00    -0.171 OA
HETATM   22  H1  UNL     1      26.767   4.105  50.920  1.00  0.00     0.168 HD
BRANCH  20  23
HETATM   23  C15 UNL     1      26.916   1.523  52.320  1.00  0.00     0.035 A 
HETATM   24  C16 UNL     1      26.889   0.191  52.168  1.00  0.00     0.019 A 
HETATM   25  C17 UNL     1      27.708  -0.464  53.089  1.00  0.00     0.020 A 
HETATM   26  C18 UNL     1      28.475   0.073  54.068  1.00  0.00     0.116 A 
HETATM   27  N6  UNL     1      28.497   1.467  54.217  1.00  0.00    -0.272 NA
HETATM   28  C19 UNL     1      27.698   2.124  53.306  1.00  0.00     0.132 A 
ENDBRANCH  20  23
ENDBRANCH   1  19
TORSDOF 2
ENDMDL
MODEL 8
REMARK VINA RESULT:      -8.2      2.126      7.713
REMARK  2 active torsions:
REMARK  status: ('A' for Active; 'I' for Inactive)
REMARK    1  A    between atoms: C1_2  and  C15_21 
REMARK    2  A    between atoms: N1_3  and  C2_4 
ROOT
HETATM    1  C2  UNL     1      24.310   3.472  51.545  1.00  0.00     0.050 C 
HETATM    2  C3  UNL     1      23.586   4.595  51.928  1.00  0.00     0.010 C 
HETATM    3  C4  UNL     1      23.185   5.629  50.966  1.00  0.00     0.049 C 
HETATM    4  C5  UNL     1      22.643   6.804  50.780  1.00  0.00     0.001 C 
HETATM    5  C6  UNL     1      22.831   6.621  49.288  1.00  0.00     0.148 C 
HETATM    6  N2  UNL     1      23.838   7.301  48.629  1.00  0.00    -0.307 N 
HETATM    7  C7  UNL     1      24.974   8.066  47.880  1.00  0.00     0.088 C 
HETATM    8  C8  UNL     1      26.221   7.503  47.863  1.00  0.00     0.036 C 
HETATM    9  C9  UNL     1      27.459   6.695  47.983  1.00  0.00    -0.007 C 
HETATM   10  C10 UNL     1      27.639   5.435  48.618  1.00  0.00     0.078 C 
HETATM   11  C11 UNL     1      26.279   5.250  49.038  1.00  0.00     0.063 C 
HETATM   12  N3  UNL     1      25.184   4.602  49.472  1.00  0.00    -0.155 NA
HETATM   13  N4  UNL     1      25.501   3.217  49.655  1.00  0.00    -0.160 NA
HETATM   14  C12 UNL     1      25.115   2.548  50.713  1.00  0.00     0.170 C 
HETATM   15  C13 UNL     1      26.168   6.669  49.602  1.00  0.00     0.048 C 
HETATM   16  C14 UNL     1      25.883   7.902  50.079  1.00  0.00     0.109 C 
HETATM   17  N5  UNL     1      24.491   7.825  49.880  1.00  0.00    -0.310 N 
HETATM   18  H14 UNL     1      24.019   8.233  50.783  1.00  0.00     0.186 HD
ENDROOT
BRANCH   1  19
HETATM   19  N1  UNL     1      24.370   2.745  52.840  1.00  0.00    -0.333 N 
HETATM   20  C1  UNL     1      23.442   1.764  52.884  1.00  0.00     0.191 C 
HETATM   21  O1  UNL     1      22.857   1.814  51.635  1.00  0.00    -0.171 OA
HETATM   22  H1  UNL     1      24.758   2.642  53.782  1.00  0.00     0.168 HD
BRANCH  20  23
HETATM   23  C15 UNL     1      22.641   0.633  53.425  1.00  0.00     0.035 A 
HETATM   24  C16 UNL     1      23.077  -0.523  53.948  1.00  0.00     0.019 A 
HETATM   25  C17 UNL     1      22.030  -1.393  54.256  1.00  0.00     0.020 A 
HETATM   26  C18 UNL     1      20.700  -1.208  54.083  1.00  0.00     0.116 A 
HETATM   27  N6  UNL     1      20.255   0.005  53.536  1.00  0.00    -0.272 NA
HETATM   28  C19 UNL     1      21.280   0.876  53.237  1.00  0.00     0.132 A 
ENDBRANCH  20  23
ENDBRANCH   1  19
TORSDOF 2
ENDMDL
MODEL 9
REMARK VINA RESULT:      -8.2      3.197      5.078
REMARK  2 active torsions:
REMARK  status: ('A' for Active; 'I' for Inactive)
REMARK    1  A    between atoms: C1_2  and  C15_21 
REMARK    2  A    between atoms: N1_3  and  C2_4 
ROOT
HETATM    1  C2  UNL     1      25.267   2.804  51.900  1.00  0.00     0.050 C 
HETATM    2  C3  UNL     1      25.156   2.720  50.518  1.00  0.00     0.010 C 
HETATM    3  C4  UNL     1      23.897   3.008  49.818  1.00  0.00     0.049 C 
HETATM    4  C5  UNL     1      23.247   3.006  48.684  1.00  0.00     0.001 C 
HETATM    5  C6  UNL     1      22.048   3.587  49.405  1.00  0.00     0.148 C 
HETATM    6  N2  UNL     1      20.961   2.786  49.699  1.00  0.00    -0.307 N 
HETATM    7  C7  UNL     1      19.731   1.886  50.034  1.00  0.00     0.088 C 
HETATM    8  C8  UNL     1      19.769   1.154  51.190  1.00  0.00     0.036 C 
HETATM    9  C9  UNL     1      20.048   0.477  52.479  1.00  0.00    -0.007 C 
HETATM   10  C10 UNL     1      21.187   0.605  53.321  1.00  0.00     0.078 C 
HETATM   11  C11 UNL     1      21.889   1.574  52.528  1.00  0.00     0.063 C 
HETATM   12  N3  UNL     1      22.786   2.528  52.230  1.00  0.00    -0.155 NA
HETATM   13  N4  UNL     1      23.583   2.800  53.390  1.00  0.00    -0.160 NA
HETATM   14  C12 UNL     1      24.884   2.934  53.325  1.00  0.00     0.170 C 
HETATM   15  C13 UNL     1      21.665   0.799  51.226  1.00  0.00     0.048 C 
HETATM   16  C14 UNL     1      21.495   0.281  49.989  1.00  0.00     0.109 C 
HETATM   17  N5  UNL     1      21.626   1.498  49.293  1.00  0.00    -0.310 N 
HETATM   18  H14 UNL     1      22.268   1.300  48.425  1.00  0.00     0.186 HD
ENDROOT
BRANCH   1  19
HETATM   19  N1  UNL     1      26.714   2.508  52.065  1.00  0.00    -0.333 N 
HETATM   20  C1  UNL     1      26.904   1.216  52.410  1.00  0.00     0.191 C 
HETATM   21  O1  UNL     1      25.630   0.685  52.399  1.00  0.00    -0.171 OA
HETATM   22  H1  UNL     1      27.687   2.826  52.089  1.00  0.00     0.168 HD
BRANCH  20  23
HETATM   23  C15 UNL     1      27.626  -0.029  52.792  1.00  0.00     0.035 A 
HETATM   24  C16 UNL     1      28.881  -0.159  53.245  1.00  0.00     0.019 A 
HETATM   25  C17 UNL     1      29.254  -1.495  53.398  1.00  0.00     0.020 A 
HETATM   26  C18 UNL     1      28.526  -2.609  53.142  1.00  0.00     0.116 A 
HETATM   27  N6  UNL     1      27.214  -2.461  52.669  1.00  0.00    -0.272 NA
HETATM   28  C19 UNL     1      26.833  -1.145  52.523  1.00  0.00     0.132 A 
ENDBRANCH  20  23
ENDBRANCH   1  19
TORSDOF 2
ENDMDL
