MODEL 1
REMARK VINA RESULT:      -8.5      0.000      0.000
REMARK  5 active torsions:
REMARK  status: ('A' for Active; 'I' for Inactive)
REMARK    1  A    between atoms: O1_2  and  C2_3 
REMARK    2  A    between atoms: C2_3  and  C3_4 
REMARK    3  A    between atoms: C3_4  and  O2_5 
REMARK    4  A    between atoms: O2_5  and  C4_6 
REMARK    5  A    between atoms: C8_10  and  C9_11 
ROOT
HETATM    1  C9  UNL     1      25.749   0.424  52.972  1.00  0.00    -0.034 A 
HETATM    2  C10 UNL     1      26.124  -0.858  52.605  1.00  0.00     0.014 A 
HETATM    3  C11 UNL     1      27.394  -1.332  52.832  1.00  0.00     0.045 A 
HETATM    4  C12 UNL     1      28.351  -0.531  53.444  1.00  0.00     0.137 A 
HETATM    5  F1  UNL     1      29.622  -0.975  53.683  1.00  0.00    -0.204 F 
HETATM    6  C13 UNL     1      28.008   0.772  53.830  1.00  0.00     0.084 A 
HETATM    7  C14 UNL     1      29.012   1.607  54.471  1.00  0.00     0.102 C 
HETATM    8  N1  UNL     1      29.814   2.293  54.980  1.00  0.00    -0.191 NA
HETATM    9  C15 UNL     1      26.709   1.219  53.583  1.00  0.00     0.037 A 
ENDROOT
BRANCH   1  10
HETATM   10  C8  UNL     1      24.415   0.991  52.783  1.00  0.00     0.021 C 
HETATM   11  C7  UNL     1      23.180   0.575  52.992  1.00  0.00    -0.018 A 
HETATM   12  C6  UNL     1      22.818  -0.751  53.548  1.00  0.00     0.071 A 
HETATM   13  C16 UNL     1      22.146   1.553  52.615  1.00  0.00     0.111 A 
HETATM   14  C5  UNL     1      21.332  -0.908  53.663  1.00  0.00     0.018 A 
HETATM   15  C4  UNL     1      20.409  -0.019  53.322  1.00  0.00     0.101 A 
HETATM   16  C17 UNL     1      20.879   1.242  52.783  1.00  0.00     0.135 A 
HETATM   17  O3  UNL     1      19.847   2.129  52.443  1.00  0.00    -0.344 OA
HETATM   18  C18 UNL     1      20.163   3.296  51.675  1.00  0.00     0.202 C 
HETATM   19  C19 UNL     1      21.470   3.834  52.278  1.00  0.00     0.202 C 
HETATM   20  O4  UNL     1      22.429   2.807  52.085  1.00  0.00    -0.345 OA
BRANCH  15  21
HETATM   21  O2  UNL     1      19.146  -0.487  53.558  1.00  0.00    -0.346 OA
BRANCH  21  22
HETATM   22  C3  UNL     1      18.304  -0.833  52.479  1.00  0.00     0.201 C 
BRANCH  22  23
HETATM   23  C2  UNL     1      17.187  -1.679  53.114  1.00  0.00     0.193 C 
BRANCH  23  24
HETATM   24  O1  UNL     1      17.820  -2.708  53.838  1.00  0.00    -0.394 OA
HETATM   25  C1  UNL     1      17.127  -3.887  53.618  1.00  0.00     0.201 C 
ENDBRANCH  23  24
ENDBRANCH  22  23
ENDBRANCH  21  22
ENDBRANCH  15  21
ENDBRANCH   1  10
TORSDOF 5
ENDMDL
MODEL 2
REMARK VINA RESULT:      -8.4      1.789      3.501
REMARK  5 active torsions:
REMARK  status: ('A' for Active; 'I' for Inactive)
REMARK    1  A    between atoms: O1_2  and  C2_3 
REMARK    2  A    between atoms: C2_3  and  C3_4 
REMARK    3  A    between atoms: C3_4  and  O2_5 
REMARK    4  A    between atoms: O2_5  and  C4_6 
REMARK    5  A    between atoms: C8_10  and  C9_11 
ROOT
HETATM    1  C9  UNL     1      26.467  -0.569  53.424  1.00  0.00    -0.034 A 
HETATM    2  C10 UNL     1      27.166  -1.651  52.913  1.00  0.00     0.014 A 
HETATM    3  C11 UNL     1      28.537  -1.718  52.973  1.00  0.00     0.045 A 
HETATM    4  C12 UNL     1      29.273  -0.692  53.554  1.00  0.00     0.137 A 
HETATM    5  F1  UNL     1      30.638  -0.731  53.628  1.00  0.00    -0.204 F 
HETATM    6  C13 UNL     1      28.601   0.419  54.082  1.00  0.00     0.084 A 
HETATM    7  C14 UNL     1      29.374   1.490  54.690  1.00  0.00     0.102 C 
HETATM    8  N1  UNL     1      29.986   2.364  55.174  1.00  0.00    -0.191 NA
HETATM    9  C15 UNL     1      27.208   0.453  54.002  1.00  0.00     0.037 A 
ENDROOT
BRANCH   1  10
HETATM   10  C8  UNL     1      25.011  -0.435  53.416  1.00  0.00     0.021 C 
HETATM   11  C7  UNL     1      24.141   0.320  52.771  1.00  0.00    -0.018 A 
HETATM   12  C6  UNL     1      24.498   1.346  51.763  1.00  0.00     0.071 A 
HETATM   13  C16 UNL     1      22.739   0.067  53.140  1.00  0.00     0.111 A 
HETATM   14  C5  UNL     1      23.278   2.022  51.215  1.00  0.00     0.018 A 
HETATM   15  C4  UNL     1      22.017   1.785  51.554  1.00  0.00     0.101 A 
HETATM   16  C17 UNL     1      21.789   0.764  52.557  1.00  0.00     0.135 A 
HETATM   17  O3  UNL     1      20.433   0.571  52.865  1.00  0.00    -0.344 OA
HETATM   18  C18 UNL     1      20.090  -0.221  54.007  1.00  0.00     0.202 C 
HETATM   19  C19 UNL     1      21.046  -1.424  53.966  1.00  0.00     0.202 C 
HETATM   20  O4  UNL     1      22.349  -0.878  54.084  1.00  0.00    -0.345 OA
BRANCH  15  21
HETATM   21  O2  UNL     1      21.150   2.583  50.861  1.00  0.00    -0.346 OA
BRANCH  21  22
HETATM   22  C3  UNL     1      20.907   3.907  51.288  1.00  0.00     0.201 C 
BRANCH  22  23
HETATM   23  C2  UNL     1      19.397   4.110  51.082  1.00  0.00     0.193 C 
BRANCH  23  24
HETATM   24  O1  UNL     1      18.746   3.357  52.079  1.00  0.00    -0.394 OA
HETATM   25  C1  UNL     1      17.651   2.730  51.508  1.00  0.00     0.201 C 
ENDBRANCH  23  24
ENDBRANCH  22  23
ENDBRANCH  21  22
ENDBRANCH  15  21
ENDBRANCH   1  10
TORSDOF 5
ENDMDL
MODEL 3
REMARK VINA RESULT:      -8.1      5.115      7.040
REMARK  5 active torsions:
REMARK  status: ('A' for Active; 'I' for Inactive)
REMARK    1  A    between atoms: O1_2  and  C2_3 
REMARK    2  A    between atoms: C2_3  and  C3_4 
REMARK    3  A    between atoms: C3_4  and  O2_5 
REMARK    4  A    between atoms: O2_5  and  C4_6 
REMARK    5  A    between atoms: C8_10  and  C9_11 
ROOT
HETATM    1  C9  UNL     1      26.131   5.198  49.044  1.00  0.00    -0.034 A 
HETATM    2  C10 UNL     1      25.746   6.448  48.589  1.00  0.00     0.014 A 
HETATM    3  C11 UNL     1      26.634   7.300  47.977  1.00  0.00     0.045 A 
HETATM    4  C12 UNL     1      27.961   6.928  47.794  1.00  0.00     0.137 A 
HETATM    5  F1  UNL     1      28.867   7.754  47.189  1.00  0.00    -0.204 F 
HETATM    6  C13 UNL     1      28.388   5.670  48.241  1.00  0.00     0.084 A 
HETATM    7  C14 UNL     1      29.777   5.285  48.047  1.00  0.00     0.102 C 
HETATM    8  N1  UNL     1      30.895   4.966  47.905  1.00  0.00    -0.191 NA
HETATM    9  C15 UNL     1      27.457   4.833  48.858  1.00  0.00     0.037 A 
ENDROOT
BRANCH   1  10
HETATM   10  C8  UNL     1      25.242   4.230  49.684  1.00  0.00     0.021 C 
HETATM   11  C7  UNL     1      25.406   3.164  50.445  1.00  0.00    -0.018 A 
HETATM   12  C6  UNL     1      26.719   2.637  50.887  1.00  0.00     0.071 A 
HETATM   13  C16 UNL     1      24.148   2.506  50.836  1.00  0.00     0.111 A 
HETATM   14  C5  UNL     1      26.557   1.418  51.745  1.00  0.00     0.018 A 
HETATM   15  C4  UNL     1      25.418   0.835  52.092  1.00  0.00     0.101 A 
HETATM   16  C17 UNL     1      24.196   1.435  51.596  1.00  0.00     0.135 A 
HETATM   17  O3  UNL     1      23.033   0.761  52.002  1.00  0.00    -0.344 OA
HETATM   18  C18 UNL     1      21.787   1.099  51.381  1.00  0.00     0.202 C 
HETATM   19  C19 UNL     1      21.790   2.632  51.278  1.00  0.00     0.202 C 
HETATM   20  O4  UNL     1      22.891   2.955  50.444  1.00  0.00    -0.345 OA
BRANCH  15  21
HETATM   21  O2  UNL     1      25.633  -0.260  52.883  1.00  0.00    -0.346 OA
BRANCH  21  22
HETATM   22  C3  UNL     1      25.231  -0.249  54.236  1.00  0.00     0.201 C 
BRANCH  22  23
HETATM   23  C2  UNL     1      26.473   0.228  55.006  1.00  0.00     0.193 C 
BRANCH  23  24
HETATM   24  O1  UNL     1      27.538  -0.608  54.616  1.00  0.00    -0.394 OA
HETATM   25  C1  UNL     1      28.713   0.123  54.680  1.00  0.00     0.201 C 
ENDBRANCH  23  24
ENDBRANCH  22  23
ENDBRANCH  21  22
ENDBRANCH  15  21
ENDBRANCH   1  10
TORSDOF 5
ENDMDL
MODEL 4
REMARK VINA RESULT:      -8.1      1.811      2.260
REMARK  5 active torsions:
REMARK  status: ('A' for Active; 'I' for Inactive)
REMARK    1  A    between atoms: O1_2  and  C2_3 
REMARK    2  A    between atoms: C2_3  and  C3_4 
REMARK    3  A    between atoms: C3_4  and  O2_5 
REMARK    4  A    between atoms: O2_5  and  C4_6 
REMARK    5  A    between atoms: C8_10  and  C9_11 
ROOT
HETATM    1  C9  UNL     1      26.129   1.065  52.512  1.00  0.00    -0.034 A 
HETATM    2  C10 UNL     1      26.901   2.160  52.867  1.00  0.00     0.014 A 
HETATM    3  C11 UNL     1      28.186   2.017  53.333  1.00  0.00     0.045 A 
HETATM    4  C12 UNL     1      28.757   0.758  53.462  1.00  0.00     0.137 A 
HETATM    5  F1  UNL     1      30.033   0.585  53.923  1.00  0.00    -0.204 F 
HETATM    6  C13 UNL     1      28.008  -0.374  53.112  1.00  0.00     0.084 A 
HETATM    7  C14 UNL     1      28.610  -1.691  53.249  1.00  0.00     0.102 C 
HETATM    8  N1  UNL     1      29.080  -2.757  53.362  1.00  0.00    -0.191 NA
HETATM    9  C15 UNL     1      26.706  -0.190  52.644  1.00  0.00     0.037 A 
ENDROOT
BRANCH   1  10
HETATM   10  C8  UNL     1      24.766   1.137  51.990  1.00  0.00     0.021 C 
HETATM   11  C7  UNL     1      23.574   0.773  52.424  1.00  0.00    -0.018 A 
HETATM   12  C6  UNL     1      23.315   0.118  53.728  1.00  0.00     0.071 A 
HETATM   13  C16 UNL     1      22.478   1.068  51.487  1.00  0.00     0.111 A 
HETATM   14  C5  UNL     1      21.854  -0.160  53.920  1.00  0.00     0.018 A 
HETATM   15  C4  UNL     1      20.874   0.112  53.068  1.00  0.00     0.101 A 
HETATM   16  C17 UNL     1      21.247   0.747  51.821  1.00  0.00     0.135 A 
HETATM   17  O3  UNL     1      20.159   1.001  50.971  1.00  0.00    -0.344 OA
HETATM   18  C18 UNL     1      20.415   1.391  49.617  1.00  0.00     0.202 C 
HETATM   19  C19 UNL     1      21.576   2.396  49.700  1.00  0.00     0.202 C 
HETATM   20  O4  UNL     1      22.665   1.674  50.249  1.00  0.00    -0.345 OA
BRANCH  15  21
HETATM   21  O2  UNL     1      19.659  -0.277  53.559  1.00  0.00    -0.346 OA
BRANCH  21  22
HETATM   22  C3  UNL     1      19.346  -1.649  53.678  1.00  0.00     0.201 C 
BRANCH  22  23
HETATM   23  C2  UNL     1      17.831  -1.725  53.426  1.00  0.00     0.193 C 
BRANCH  23  24
HETATM   24  O1  UNL     1      17.581  -1.006  52.241  1.00  0.00    -0.394 OA
HETATM   25  C1  UNL     1      16.283  -0.523  52.289  1.00  0.00     0.201 C 
ENDBRANCH  23  24
ENDBRANCH  22  23
ENDBRANCH  21  22
ENDBRANCH  15  21
ENDBRANCH   1  10
TORSDOF 5
ENDMDL
MODEL 5
REMARK VINA RESULT:      -7.9      4.335      7.587
REMARK  5 active torsions:
REMARK  status: ('A' for Active; 'I' for Inactive)
REMARK    1  A    between atoms: O1_2  and  C2_3 
REMARK    2  A    between atoms: C2_3  and  C3_4 
REMARK    3  A    between atoms: C3_4  and  O2_5 
REMARK    4  A    between atoms: O2_5  and  C4_6 
REMARK    5  A    between atoms: C8_10  and  C9_11 
ROOT
HETATM    1  C9  UNL     1      22.564   2.566  49.917  1.00  0.00    -0.034 A 
HETATM    2  C10 UNL     1      22.258   2.133  48.637  1.00  0.00     0.014 A 
HETATM    3  C11 UNL     1      22.209   3.002  47.573  1.00  0.00     0.045 A 
HETATM    4  C12 UNL     1      22.469   4.355  47.751  1.00  0.00     0.137 A 
HETATM    5  F1  UNL     1      22.428   5.243  46.712  1.00  0.00    -0.204 F 
HETATM    6  C13 UNL     1      22.782   4.831  49.031  1.00  0.00     0.084 A 
HETATM    7  C14 UNL     1      23.053   6.248  49.213  1.00  0.00     0.102 C 
HETATM    8  N1  UNL     1      23.265   7.389  49.374  1.00  0.00    -0.191 NA
HETATM    9  C15 UNL     1      22.821   3.919  50.088  1.00  0.00     0.037 A 
ENDROOT
BRANCH   1  10
HETATM   10  C8  UNL     1      22.655   1.702  51.093  1.00  0.00     0.021 C 
HETATM   11  C7  UNL     1      23.639   1.192  51.809  1.00  0.00    -0.018 A 
HETATM   12  C6  UNL     1      25.080   1.418  51.545  1.00  0.00     0.071 A 
HETATM   13  C16 UNL     1      23.191   0.347  52.928  1.00  0.00     0.111 A 
HETATM   14  C5  UNL     1      25.938   0.702  52.545  1.00  0.00     0.018 A 
HETATM   15  C4  UNL     1      25.523  -0.055  53.551  1.00  0.00     0.101 A 
HETATM   16  C17 UNL     1      24.091  -0.210  53.709  1.00  0.00     0.135 A 
HETATM   17  O3  UNL     1      23.729  -1.027  54.791  1.00  0.00    -0.344 OA
HETATM   18  C18 UNL     1      22.369  -1.461  54.905  1.00  0.00     0.202 C 
HETATM   19  C19 UNL     1      21.521  -0.227  54.557  1.00  0.00     0.202 C 
HETATM   20  O4  UNL     1      21.854   0.097  53.217  1.00  0.00    -0.345 OA
BRANCH  15  21
HETATM   21  O2  UNL     1      26.572  -0.559  54.269  1.00  0.00    -0.346 OA
BRANCH  21  22
HETATM   22  C3  UNL     1      27.879  -0.524  53.735  1.00  0.00     0.201 C 
BRANCH  22  23
HETATM   23  C2  UNL     1      28.748   0.037  54.873  1.00  0.00     0.193 C 
BRANCH  23  24
HETATM   24  O1  UNL     1      28.472   1.415  54.953  1.00  0.00    -0.394 OA
HETATM   25  C1  UNL     1      29.022   2.036  53.843  1.00  0.00     0.201 C 
ENDBRANCH  23  24
ENDBRANCH  22  23
ENDBRANCH  21  22
ENDBRANCH  15  21
ENDBRANCH   1  10
TORSDOF 5
ENDMDL
MODEL 6
REMARK VINA RESULT:      -7.8      5.400      7.097
REMARK  5 active torsions:
REMARK  status: ('A' for Active; 'I' for Inactive)
REMARK    1  A    between atoms: O1_2  and  C2_3 
REMARK    2  A    between atoms: C2_3  and  C3_4 
REMARK    3  A    between atoms: C3_4  and  O2_5 
REMARK    4  A    between atoms: O2_5  and  C4_6 
REMARK    5  A    between atoms: C8_10  and  C9_11 
ROOT
HETATM    1  C9  UNL     1      26.467   5.387  49.066  1.00  0.00    -0.034 A 
HETATM    2  C10 UNL     1      27.673   5.003  48.503  1.00  0.00     0.014 A 
HETATM    3  C11 UNL     1      28.645   5.920  48.182  1.00  0.00     0.045 A 
HETATM    4  C12 UNL     1      28.446   7.276  48.417  1.00  0.00     0.137 A 
HETATM    5  F1  UNL     1      29.394   8.211  48.109  1.00  0.00    -0.204 F 
HETATM    6  C13 UNL     1      27.238   7.702  48.985  1.00  0.00     0.084 A 
HETATM    7  C14 UNL     1      27.033   9.121  49.230  1.00  0.00     0.102 C 
HETATM    8  N1  UNL     1      26.853  10.262  49.423  1.00  0.00    -0.191 NA
HETATM    9  C15 UNL     1      26.274   6.742  49.297  1.00  0.00     0.037 A 
ENDROOT
BRANCH   1  10
HETATM   10  C8  UNL     1      25.395   4.470  49.452  1.00  0.00     0.021 C 
HETATM   11  C7  UNL     1      25.294   3.431  50.260  1.00  0.00    -0.018 A 
HETATM   12  C6  UNL     1      26.405   2.885  51.075  1.00  0.00     0.071 A 
HETATM   13  C16 UNL     1      23.953   2.825  50.292  1.00  0.00     0.111 A 
HETATM   14  C5  UNL     1      25.959   1.706  51.887  1.00  0.00     0.018 A 
HETATM   15  C4  UNL     1      24.746   1.169  51.910  1.00  0.00     0.101 A 
HETATM   16  C17 UNL     1      23.741   1.783  51.066  1.00  0.00     0.135 A 
HETATM   17  O3  UNL     1      22.486   1.160  51.141  1.00  0.00    -0.344 OA
HETATM   18  C18 UNL     1      21.483   1.507  50.180  1.00  0.00     0.202 C 
HETATM   19  C19 UNL     1      21.574   3.035  50.036  1.00  0.00     0.202 C 
HETATM   20  O4  UNL     1      22.878   3.293  49.544  1.00  0.00    -0.345 OA
BRANCH  15  21
HETATM   21  O2  UNL     1      24.684   0.101  52.760  1.00  0.00    -0.346 OA
BRANCH  21  22
HETATM   22  C3  UNL     1      25.869  -0.547  53.175  1.00  0.00     0.201 C 
BRANCH  22  23
HETATM   23  C2  UNL     1      25.833  -0.475  54.710  1.00  0.00     0.193 C 
BRANCH  23  24
HETATM   24  O1  UNL     1      27.124  -0.095  55.129  1.00  0.00    -0.394 OA
HETATM   25  C1  UNL     1      28.014  -0.371  54.103  1.00  0.00     0.201 C 
ENDBRANCH  23  24
ENDBRANCH  22  23
ENDBRANCH  21  22
ENDBRANCH  15  21
ENDBRANCH   1  10
TORSDOF 5
ENDMDL
MODEL 7
REMARK VINA RESULT:      -7.7      5.532      8.980
REMARK  5 active torsions:
REMARK  status: ('A' for Active; 'I' for Inactive)
REMARK    1  A    between atoms: O1_2  and  C2_3 
REMARK    2  A    between atoms: C2_3  and  C3_4 
REMARK    3  A    between atoms: C3_4  and  O2_5 
REMARK    4  A    between atoms: O2_5  and  C4_6 
REMARK    5  A    between atoms: C8_10  and  C9_11 
ROOT
HETATM    1  C9  UNL     1      24.082   2.641  51.754  1.00  0.00    -0.034 A 
HETATM    2  C10 UNL     1      22.929   1.941  51.440  1.00  0.00     0.014 A 
HETATM    3  C11 UNL     1      22.660   0.709  51.987  1.00  0.00     0.045 A 
HETATM    4  C12 UNL     1      23.547   0.122  52.881  1.00  0.00     0.137 A 
HETATM    5  F1  UNL     1      23.306  -1.103  53.441  1.00  0.00    -0.204 F 
HETATM    6  C13 UNL     1      24.724   0.800  53.224  1.00  0.00     0.084 A 
HETATM    7  C14 UNL     1      25.649   0.182  54.161  1.00  0.00     0.102 C 
HETATM    8  N1  UNL     1      26.406  -0.308  54.908  1.00  0.00    -0.191 NA
HETATM    9  C15 UNL     1      24.964   2.049  52.648  1.00  0.00     0.037 A 
ENDROOT
BRANCH   1  10
HETATM   10  C8  UNL     1      24.428   3.962  51.232  1.00  0.00     0.021 C 
HETATM   11  C7  UNL     1      25.347   4.437  50.412  1.00  0.00    -0.018 A 
HETATM   12  C6  UNL     1      26.382   3.616  49.739  1.00  0.00     0.071 A 
HETATM   13  C16 UNL     1      25.275   5.893  50.208  1.00  0.00     0.111 A 
HETATM   14  C5  UNL     1      27.267   4.459  48.871  1.00  0.00     0.018 A 
HETATM   15  C4  UNL     1      27.192   5.771  48.694  1.00  0.00     0.101 A 
HETATM   16  C17 UNL     1      26.144   6.470  49.408  1.00  0.00     0.135 A 
HETATM   17  O3  UNL     1      26.129   7.854  49.173  1.00  0.00    -0.344 OA
HETATM   18  C18 UNL     1      25.312   8.687  50.003  1.00  0.00     0.202 C 
HETATM   19  C19 UNL     1      23.989   7.922  50.166  1.00  0.00     0.202 C 
HETATM   20  O4  UNL     1      24.329   6.710  50.819  1.00  0.00    -0.345 OA
BRANCH  15  21
HETATM   21  O2  UNL     1      28.158   6.219  47.835  1.00  0.00    -0.346 OA
BRANCH  21  22
HETATM   22  C3  UNL     1      29.517   6.185  48.216  1.00  0.00     0.201 C 
BRANCH  22  23
HETATM   23  C2  UNL     1      30.033   7.607  47.940  1.00  0.00     0.193 C 
BRANCH  23  24
HETATM   24  O1  UNL     1      30.572   8.085  49.150  1.00  0.00    -0.394 OA
HETATM   25  C1  UNL     1      31.697   7.336  49.453  1.00  0.00     0.201 C 
ENDBRANCH  23  24
ENDBRANCH  22  23
ENDBRANCH  21  22
ENDBRANCH  15  21
ENDBRANCH   1  10
TORSDOF 5
ENDMDL
MODEL 8
REMARK VINA RESULT:      -7.7      4.655      8.162
REMARK  5 active torsions:
REMARK  status: ('A' for Active; 'I' for Inactive)
REMARK    1  A    between atoms: O1_2  and  C2_3 
REMARK    2  A    between atoms: C2_3  and  C3_4 
REMARK    3  A    between atoms: C3_4  and  O2_5 
REMARK    4  A    between atoms: O2_5  and  C4_6 
REMARK    5  A    between atoms: C8_10  and  C9_11 
ROOT
HETATM    1  C9  UNL     1      21.601   0.594  52.406  1.00  0.00    -0.034 A 
HETATM    2  C10 UNL     1      21.598  -0.280  53.481  1.00  0.00     0.014 A 
HETATM    3  C11 UNL     1      20.449  -0.909  53.898  1.00  0.00     0.045 A 
HETATM    4  C12 UNL     1      19.242  -0.685  53.246  1.00  0.00     0.137 A 
HETATM    5  F1  UNL     1      18.083  -1.296  53.637  1.00  0.00    -0.204 F 
HETATM    6  C13 UNL     1      19.205   0.193  52.154  1.00  0.00     0.084 A 
HETATM    7  C14 UNL     1      17.941   0.423  51.474  1.00  0.00     0.102 C 
HETATM    8  N1  UNL     1      16.927   0.624  50.923  1.00  0.00    -0.191 NA
HETATM    9  C15 UNL     1      20.392   0.813  51.760  1.00  0.00     0.037 A 
ENDROOT
BRANCH   1  10
HETATM   10  C8  UNL     1      22.783   1.284  51.892  1.00  0.00     0.021 C 
HETATM   11  C7  UNL     1      24.073   1.268  52.169  1.00  0.00    -0.018 A 
HETATM   12  C6  UNL     1      24.702   0.423  53.211  1.00  0.00     0.071 A 
HETATM   13  C16 UNL     1      24.875   2.186  51.343  1.00  0.00     0.111 A 
HETATM   14  C5  UNL     1      26.185   0.638  53.268  1.00  0.00     0.018 A 
HETATM   15  C4  UNL     1      26.898   1.467  52.518  1.00  0.00     0.101 A 
HETATM   16  C17 UNL     1      26.174   2.249  51.535  1.00  0.00     0.135 A 
HETATM   17  O3  UNL     1      26.994   3.104  50.782  1.00  0.00    -0.344 OA
HETATM   18  C18 UNL     1      26.379   4.103  49.959  1.00  0.00     0.202 C 
HETATM   19  C19 UNL     1      25.186   3.399  49.293  1.00  0.00     0.202 C 
HETATM   20  O4  UNL     1      24.336   3.005  50.357  1.00  0.00    -0.345 OA
BRANCH  15  21
HETATM   21  O2  UNL     1      28.227   1.416  52.833  1.00  0.00    -0.346 OA
BRANCH  21  22
HETATM   22  C3  UNL     1      28.666   0.657  53.940  1.00  0.00     0.201 C 
BRANCH  22  23
HETATM   23  C2  UNL     1      30.075   0.182  53.550  1.00  0.00     0.193 C 
BRANCH  23  24
HETATM   24  O1  UNL     1      30.143  -1.189  53.866  1.00  0.00    -0.394 OA
HETATM   25  C1  UNL     1      29.099  -1.837  53.227  1.00  0.00     0.201 C 
ENDBRANCH  23  24
ENDBRANCH  22  23
ENDBRANCH  21  22
ENDBRANCH  15  21
ENDBRANCH   1  10
TORSDOF 5
ENDMDL
MODEL 9
REMARK VINA RESULT:      -7.6      2.179      4.711
REMARK  5 active torsions:
REMARK  status: ('A' for Active; 'I' for Inactive)
REMARK    1  A    between atoms: O1_2  and  C2_3 
REMARK    2  A    between atoms: C2_3  and  C3_4 
REMARK    3  A    between atoms: C3_4  and  O2_5 
REMARK    4  A    between atoms: O2_5  and  C4_6 
REMARK    5  A    between atoms: C8_10  and  C9_11 
ROOT
HETATM    1  C9  UNL     1      25.936  -0.027  52.954  1.00  0.00    -0.034 A 
HETATM    2  C10 UNL     1      26.438  -1.272  52.612  1.00  0.00     0.014 A 
HETATM    3  C11 UNL     1      27.743  -1.619  52.865  1.00  0.00     0.045 A 
HETATM    4  C12 UNL     1      28.609  -0.722  53.479  1.00  0.00     0.137 A 
HETATM    5  F1  UNL     1      29.912  -1.039  53.743  1.00  0.00    -0.204 F 
HETATM    6  C13 UNL     1      28.138   0.547  53.839  1.00  0.00     0.084 A 
HETATM    7  C14 UNL     1      29.047   1.484  54.482  1.00  0.00     0.102 C 
HETATM    8  N1  UNL     1      29.771   2.249  54.991  1.00  0.00    -0.191 NA
HETATM    9  C15 UNL     1      26.806   0.864  53.566  1.00  0.00     0.037 A 
ENDROOT
BRANCH   1  10
HETATM   10  C8  UNL     1      24.557   0.407  52.736  1.00  0.00     0.021 C 
HETATM   11  C7  UNL     1      23.952   1.571  52.587  1.00  0.00    -0.018 A 
HETATM   12  C6  UNL     1      24.635   2.886  52.606  1.00  0.00     0.071 A 
HETATM   13  C16 UNL     1      22.495   1.469  52.399  1.00  0.00     0.111 A 
HETATM   14  C5  UNL     1      23.663   4.009  52.403  1.00  0.00     0.018 A 
HETATM   15  C4  UNL     1      22.352   3.906  52.233  1.00  0.00     0.101 A 
HETATM   16  C17 UNL     1      21.793   2.569  52.239  1.00  0.00     0.135 A 
HETATM   17  O3  UNL     1      20.401   2.540  52.056  1.00  0.00    -0.344 OA
HETATM   18  C18 UNL     1      19.699   1.314  52.290  1.00  0.00     0.202 C 
HETATM   19  C19 UNL     1      20.579   0.219  51.665  1.00  0.00     0.202 C 
HETATM   20  O4  UNL     1      21.803   0.263  52.379  1.00  0.00    -0.345 OA
BRANCH  15  21
HETATM   21  O2  UNL     1      21.765   5.132  52.078  1.00  0.00    -0.346 OA
BRANCH  21  22
HETATM   22  C3  UNL     1      21.876   5.822  50.851  1.00  0.00     0.201 C 
BRANCH  22  23
HETATM   23  C2  UNL     1      20.512   5.624  50.170  1.00  0.00     0.193 C 
BRANCH  23  24
HETATM   24  O1  UNL     1      20.383   6.651  49.214  1.00  0.00    -0.394 OA
HETATM   25  C1  UNL     1      21.643   7.165  48.953  1.00  0.00     0.201 C 
ENDBRANCH  23  24
ENDBRANCH  22  23
ENDBRANCH  21  22
ENDBRANCH  15  21
ENDBRANCH   1  10
TORSDOF 5
ENDMDL
