MODEL 1
REMARK VINA RESULT:      -8.9      0.000      0.000
REMARK  7 active torsions:
REMARK  status: ('A' for Active; 'I' for Inactive)
REMARK    1  A    between atoms: O1_2  and  C2_3 
REMARK    2  A    between atoms: C6_9  and  N3_10 
REMARK    3  A    between atoms: N3_10  and  C7_11 
REMARK    4  A    between atoms: C15_21  and  O2_22 
REMARK    5  A    between atoms: O2_22  and  C16_23 
REMARK    6  A    between atoms: C16_23  and  C17_24 
REMARK    7  A    between atoms: C17_24  and  C18_25 
ROOT
HETATM    1  C2  UNL     1      22.358  -0.260  52.794  1.00  0.00     0.103 A 
HETATM    2  C3  UNL     1      21.381   0.246  51.928  1.00  0.00     0.072 A 
HETATM    3  C4  UNL     1      21.554   1.490  51.335  1.00  0.00     0.075 A 
HETATM    4  N1  UNL     1      20.589   1.933  50.511  1.00  0.00    -0.241 NA
HETATM    5  C5  UNL     1      20.697   3.127  49.907  1.00  0.00     0.236 A 
HETATM    6  N2  UNL     1      21.795   3.842  50.163  1.00  0.00    -0.224 NA
HETATM    7  C6  UNL     1      22.799   3.479  50.966  1.00  0.00     0.142 A 
HETATM    8  C13 UNL     1      22.672   2.257  51.574  1.00  0.00     0.042 A 
HETATM    9  C14 UNL     1      23.587   1.708  52.428  1.00  0.00     0.057 A 
HETATM   10  C15 UNL     1      23.516   0.495  53.063  1.00  0.00     0.103 A 
ENDROOT
BRANCH   7  11
HETATM   11  N3  UNL     1      23.951   4.261  51.216  1.00  0.00    -0.340 N 
HETATM   12  H6  UNL     1      24.108   4.717  52.134  1.00  0.00     0.167 HD
BRANCH  11  13
HETATM   13  C7  UNL     1      25.044   4.574  50.371  1.00  0.00     0.035 A 
HETATM   14  C8  UNL     1      26.073   3.699  50.026  1.00  0.00     0.032 A 
HETATM   15  C9  UNL     1      27.114   4.044  49.201  1.00  0.00     0.046 A 
HETATM   16  C10 UNL     1      27.199   5.306  48.657  1.00  0.00     0.138 A 
HETATM   17  F1  UNL     1      28.268   5.523  47.863  1.00  0.00    -0.204 F 
HETATM   18  C11 UNL     1      26.205   6.208  48.969  1.00  0.00     0.074 A 
HETATM   19 CL1  UNL     1      26.367   7.793  48.249  1.00  0.00    -0.081 Cl
HETATM   20  C12 UNL     1      25.180   5.819  49.801  1.00  0.00     0.056 A 
ENDBRANCH  11  13
ENDBRANCH   7  11
BRANCH  10  21
HETATM   21  O2  UNL     1      24.320  -0.169  53.912  1.00  0.00    -0.348 OA
BRANCH  21  22
HETATM   22  C16 UNL     1      25.571  -0.742  53.770  1.00  0.00     0.176 C 
BRANCH  22  23
HETATM   23  C17 UNL     1      26.219  -0.318  52.499  1.00  0.00     0.031 C 
BRANCH  23  24
HETATM   24  C18 UNL     1      27.515   0.436  52.725  1.00  0.00    -0.009 C 
HETATM   25  C19 UNL     1      28.196  -0.237  53.903  1.00  0.00     0.031 C 
HETATM   26  C20 UNL     1      29.481   0.474  54.297  1.00  0.00     0.168 C 
HETATM   27  O3  UNL     1      29.145   1.777  54.629  1.00  0.00    -0.391 OA
HETATM   28  C21 UNL     1      28.622   2.452  53.540  1.00  0.00     0.168 C 
HETATM   29  C22 UNL     1      27.301   1.876  53.071  1.00  0.00     0.031 C 
ENDBRANCH  23  24
ENDBRANCH  22  23
ENDBRANCH  21  22
ENDBRANCH  10  21
BRANCH   1  30
HETATM   30  O1  UNL     1      22.117  -1.527  53.360  1.00  0.00    -0.353 OA
HETATM   31  C1  UNL     1      21.055  -1.616  54.282  1.00  0.00     0.210 C 
ENDBRANCH   1  30
TORSDOF 7
ENDMDL
MODEL 2
REMARK VINA RESULT:      -8.5      3.540      5.854
REMARK  7 active torsions:
REMARK  status: ('A' for Active; 'I' for Inactive)
REMARK    1  A    between atoms: O1_2  and  C2_3 
REMARK    2  A    between atoms: C6_9  and  N3_10 
REMARK    3  A    between atoms: N3_10  and  C7_11 
REMARK    4  A    between atoms: C15_21  and  O2_22 
REMARK    5  A    between atoms: O2_22  and  C16_23 
REMARK    6  A    between atoms: C16_23  and  C17_24 
REMARK    7  A    between atoms: C17_24  and  C18_25 
ROOT
HETATM    1  C2  UNL     1      20.324   2.662  52.414  1.00  0.00     0.103 A 
HETATM    2  C3  UNL     1      20.287   1.496  53.187  1.00  0.00     0.072 A 
HETATM    3  C4  UNL     1      21.443   0.751  53.377  1.00  0.00     0.075 A 
HETATM    4  N1  UNL     1      21.359  -0.361  54.128  1.00  0.00    -0.241 NA
HETATM    5  C5  UNL     1      22.441  -1.124  54.350  1.00  0.00     0.236 A 
HETATM    6  N2  UNL     1      23.588  -0.729  53.794  1.00  0.00    -0.224 NA
HETATM    7  C6  UNL     1      23.761   0.357  53.037  1.00  0.00     0.142 A 
HETATM    8  C13 UNL     1      22.647   1.125  52.821  1.00  0.00     0.042 A 
HETATM    9  C14 UNL     1      22.616   2.271  52.077  1.00  0.00     0.057 A 
HETATM   10  C15 UNL     1      21.537   3.079  51.828  1.00  0.00     0.103 A 
ENDROOT
BRANCH   7  11
HETATM   11  N3  UNL     1      24.994   0.749  52.463  1.00  0.00    -0.340 N 
HETATM   12  H6  UNL     1      25.033   1.386  51.646  1.00  0.00     0.167 HD
BRANCH  11  13
HETATM   13  C7  UNL     1      26.320   0.406  52.824  1.00  0.00     0.035 A 
HETATM   14  C8  UNL     1      26.901  -0.851  52.663  1.00  0.00     0.032 A 
HETATM   15  C9  UNL     1      28.193  -1.138  53.026  1.00  0.00     0.046 A 
HETATM   16  C10 UNL     1      29.004  -0.176  53.585  1.00  0.00     0.138 A 
HETATM   17  F1  UNL     1      30.251  -0.581  53.900  1.00  0.00    -0.204 F 
HETATM   18  C11 UNL     1      28.474   1.084  53.766  1.00  0.00     0.074 A 
HETATM   19 CL1  UNL     1      29.550   2.263  54.478  1.00  0.00    -0.081 Cl
HETATM   20  C12 UNL     1      27.173   1.328  53.386  1.00  0.00     0.056 A 
ENDBRANCH  11  13
ENDBRANCH   7  11
BRANCH  10  21
HETATM   21  O2  UNL     1      21.354   4.215  51.133  1.00  0.00    -0.348 OA
BRANCH  21  22
HETATM   22  C16 UNL     1      22.225   5.177  50.657  1.00  0.00     0.176 C 
BRANCH  22  23
HETATM   23  C17 UNL     1      23.052   4.651  49.537  1.00  0.00     0.031 C 
BRANCH  23  24
HETATM   24  C18 UNL     1      24.540   4.725  49.821  1.00  0.00    -0.009 C 
HETATM   25  C19 UNL     1      25.121   5.675  48.790  1.00  0.00     0.031 C 
HETATM   26  C20 UNL     1      26.633   5.781  48.905  1.00  0.00     0.168 C 
HETATM   27  O3  UNL     1      27.150   4.509  48.717  1.00  0.00    -0.391 OA
HETATM   28  C21 UNL     1      26.725   3.644  49.710  1.00  0.00     0.168 C 
HETATM   29  C22 UNL     1      25.229   3.404  49.678  1.00  0.00     0.031 C 
ENDBRANCH  23  24
ENDBRANCH  22  23
ENDBRANCH  21  22
ENDBRANCH  10  21
BRANCH   1  30
HETATM   30  O1  UNL     1      19.115   3.369  52.262  1.00  0.00    -0.353 OA
HETATM   31  C1  UNL     1      18.112   2.747  51.491  1.00  0.00     0.210 C 
ENDBRANCH   1  30
TORSDOF 7
ENDMDL
MODEL 3
REMARK VINA RESULT:      -8.4      1.434      1.786
REMARK  7 active torsions:
REMARK  status: ('A' for Active; 'I' for Inactive)
REMARK    1  A    between atoms: O1_2  and  C2_3 
REMARK    2  A    between atoms: C6_9  and  N3_10 
REMARK    3  A    between atoms: N3_10  and  C7_11 
REMARK    4  A    between atoms: C15_21  and  O2_22 
REMARK    5  A    between atoms: O2_22  and  C16_23 
REMARK    6  A    between atoms: C16_23  and  C17_24 
REMARK    7  A    between atoms: C17_24  and  C18_25 
ROOT
HETATM    1  C2  UNL     1      21.745   0.505  53.449  1.00  0.00     0.103 A 
HETATM    2  C3  UNL     1      20.576   1.258  53.287  1.00  0.00     0.072 A 
HETATM    3  C4  UNL     1      20.530   2.276  52.343  1.00  0.00     0.075 A 
HETATM    4  N1  UNL     1      19.386   2.972  52.224  1.00  0.00    -0.241 NA
HETATM    5  C5  UNL     1      19.278   3.967  51.330  1.00  0.00     0.236 A 
HETATM    6  N2  UNL     1      20.349   4.228  50.576  1.00  0.00    -0.224 NA
HETATM    7  C6  UNL     1      21.520   3.589  50.629  1.00  0.00     0.142 A 
HETATM    8  C13 UNL     1      21.613   2.575  51.547  1.00  0.00     0.042 A 
HETATM    9  C14 UNL     1      22.723   1.805  51.754  1.00  0.00     0.057 A 
HETATM   10  C15 UNL     1      22.874   0.780  52.653  1.00  0.00     0.103 A 
ENDROOT
BRANCH   7  11
HETATM   11  N3  UNL     1      22.638   3.890  49.815  1.00  0.00    -0.340 N 
HETATM   12  H6  UNL     1      22.850   3.342  48.961  1.00  0.00     0.167 HD
BRANCH  11  13
HETATM   13  C7  UNL     1      23.623   4.899  49.953  1.00  0.00     0.035 A 
HETATM   14  C8  UNL     1      23.509   6.034  50.755  1.00  0.00     0.032 A 
HETATM   15  C9  UNL     1      24.492   6.986  50.860  1.00  0.00     0.046 A 
HETATM   16  C10 UNL     1      25.671   6.869  50.159  1.00  0.00     0.138 A 
HETATM   17  F1  UNL     1      26.557   7.869  50.345  1.00  0.00    -0.204 F 
HETATM   18  C11 UNL     1      25.831   5.764  49.351  1.00  0.00     0.074 A 
HETATM   19 CL1  UNL     1      27.348   5.670  48.487  1.00  0.00    -0.081 Cl
HETATM   20  C12 UNL     1      24.819   4.833  49.276  1.00  0.00     0.056 A 
ENDBRANCH  11  13
ENDBRANCH   7  11
BRANCH  10  21
HETATM   21  O2  UNL     1      23.881  -0.054  52.965  1.00  0.00    -0.348 OA
BRANCH  21  22
HETATM   22  C16 UNL     1      25.137   0.148  53.508  1.00  0.00     0.176 C 
BRANCH  22  23
HETATM   23  C17 UNL     1      26.208  -0.294  52.574  1.00  0.00     0.031 C 
BRANCH  23  24
HETATM   24  C18 UNL     1      27.493   0.493  52.741  1.00  0.00    -0.009 C 
HETATM   25  C19 UNL     1      28.315  -0.253  53.775  1.00  0.00     0.031 C 
HETATM   26  C20 UNL     1      29.608   0.475  54.105  1.00  0.00     0.168 C 
HETATM   27  O3  UNL     1      29.263   1.726  54.592  1.00  0.00    -0.391 OA
HETATM   28  C21 UNL     1      28.607   2.474  53.630  1.00  0.00     0.168 C 
HETATM   29  C22 UNL     1      27.265   1.885  53.242  1.00  0.00     0.031 C 
ENDBRANCH  23  24
ENDBRANCH  22  23
ENDBRANCH  21  22
ENDBRANCH  10  21
BRANCH   1  30
HETATM   30  O1  UNL     1      21.722  -0.511  54.424  1.00  0.00    -0.353 OA
HETATM   31  C1  UNL     1      20.833  -1.582  54.201  1.00  0.00     0.210 C 
ENDBRANCH   1  30
TORSDOF 7
ENDMDL
MODEL 4
REMARK VINA RESULT:      -8.4      3.443      5.828
REMARK  7 active torsions:
REMARK  status: ('A' for Active; 'I' for Inactive)
REMARK    1  A    between atoms: O1_2  and  C2_3 
REMARK    2  A    between atoms: C6_9  and  N3_10 
REMARK    3  A    between atoms: N3_10  and  C7_11 
REMARK    4  A    between atoms: C15_21  and  O2_22 
REMARK    5  A    between atoms: O2_22  and  C16_23 
REMARK    6  A    between atoms: C16_23  and  C17_24 
REMARK    7  A    between atoms: C17_24  and  C18_25 
ROOT
HETATM    1  C2  UNL     1      19.911   0.154  51.773  1.00  0.00     0.103 A 
HETATM    2  C3  UNL     1      20.098  -0.425  53.034  1.00  0.00     0.072 A 
HETATM    3  C4  UNL     1      21.376  -0.546  53.562  1.00  0.00     0.075 A 
HETATM    4  N1  UNL     1      21.506  -1.108  54.776  1.00  0.00    -0.241 NA
HETATM    5  C5  UNL     1      22.715  -1.253  55.341  1.00  0.00     0.236 A 
HETATM    6  N2  UNL     1      23.767  -0.816  54.646  1.00  0.00    -0.224 NA
HETATM    7  C6  UNL     1      23.730  -0.248  53.438  1.00  0.00     0.142 A 
HETATM    8  C13 UNL     1      22.488  -0.108  52.876  1.00  0.00     0.042 A 
HETATM    9  C14 UNL     1      22.239   0.446  51.652  1.00  0.00     0.057 A 
HETATM   10  C15 UNL     1      21.023   0.614  51.040  1.00  0.00     0.103 A 
ENDROOT
BRANCH   7  11
HETATM   11  N3  UNL     1      24.866   0.205  52.727  1.00  0.00    -0.340 N 
HETATM   12  H6  UNL     1      24.776   0.783  51.871  1.00  0.00     0.167 HD
BRANCH  11  13
HETATM   13  C7  UNL     1      26.245   0.001  52.983  1.00  0.00     0.035 A 
HETATM   14  C8  UNL     1      26.933  -1.197  52.796  1.00  0.00     0.032 A 
HETATM   15  C9  UNL     1      28.272  -1.348  53.056  1.00  0.00     0.046 A 
HETATM   16  C10 UNL     1      29.026  -0.298  53.529  1.00  0.00     0.138 A 
HETATM   17  F1  UNL     1      30.328  -0.572  53.748  1.00  0.00    -0.204 F 
HETATM   18  C11 UNL     1      28.390   0.909  53.732  1.00  0.00     0.074 A 
HETATM   19 CL1  UNL     1      29.398   2.205  54.333  1.00  0.00    -0.081 Cl
HETATM   20  C12 UNL     1      27.045   1.016  53.457  1.00  0.00     0.056 A 
ENDBRANCH  11  13
ENDBRANCH   7  11
BRANCH  10  21
HETATM   21  O2  UNL     1      20.626   1.133  49.865  1.00  0.00    -0.348 OA
BRANCH  21  22
HETATM   22  C16 UNL     1      21.171   2.088  49.026  1.00  0.00     0.176 C 
BRANCH  22  23
HETATM   23  C17 UNL     1      21.108   3.444  49.637  1.00  0.00     0.031 C 
BRANCH  23  24
HETATM   24  C18 UNL     1      22.454   3.921  50.146  1.00  0.00    -0.009 C 
HETATM   25  C19 UNL     1      23.490   2.991  49.541  1.00  0.00     0.031 C 
HETATM   26  C20 UNL     1      24.893   3.304  50.036  1.00  0.00     0.168 C 
HETATM   27  O3  UNL     1      24.882   3.165  51.415  1.00  0.00    -0.391 OA
HETATM   28  C21 UNL     1      24.027   4.080  52.004  1.00  0.00     0.168 C 
HETATM   29  C22 UNL     1      22.576   3.848  51.635  1.00  0.00     0.031 C 
ENDBRANCH  23  24
ENDBRANCH  22  23
ENDBRANCH  21  22
ENDBRANCH  10  21
BRANCH   1  30
HETATM   30  O1  UNL     1      18.588   0.243  51.299  1.00  0.00    -0.353 OA
HETATM   31  C1  UNL     1      17.591  -0.362  52.090  1.00  0.00     0.210 C 
ENDBRANCH   1  30
TORSDOF 7
ENDMDL
MODEL 5
REMARK VINA RESULT:      -8.3      3.627      6.536
REMARK  7 active torsions:
REMARK  status: ('A' for Active; 'I' for Inactive)
REMARK    1  A    between atoms: O1_2  and  C2_3 
REMARK    2  A    between atoms: C6_9  and  N3_10 
REMARK    3  A    between atoms: N3_10  and  C7_11 
REMARK    4  A    between atoms: C15_21  and  O2_22 
REMARK    5  A    between atoms: O2_22  and  C16_23 
REMARK    6  A    between atoms: C16_23  and  C17_24 
REMARK    7  A    between atoms: C17_24  and  C18_25 
ROOT
HETATM    1  C2  UNL     1      22.324   5.001  49.813  1.00  0.00     0.103 A 
HETATM    2  C3  UNL     1      23.541   5.287  49.183  1.00  0.00     0.072 A 
HETATM    3  C4  UNL     1      24.695   4.612  49.559  1.00  0.00     0.075 A 
HETATM    4  N1  UNL     1      25.839   4.920  48.925  1.00  0.00    -0.241 NA
HETATM    5  C5  UNL     1      26.988   4.303  49.243  1.00  0.00     0.236 A 
HETATM    6  N2  UNL     1      26.937   3.380  50.206  1.00  0.00    -0.224 NA
HETATM    7  C6  UNL     1      25.847   3.014  50.886  1.00  0.00     0.142 A 
HETATM    8  C13 UNL     1      24.683   3.654  50.549  1.00  0.00     0.042 A 
HETATM    9  C14 UNL     1      23.466   3.422  51.125  1.00  0.00     0.057 A 
HETATM   10  C15 UNL     1      22.272   4.027  50.830  1.00  0.00     0.103 A 
ENDROOT
BRANCH   7  11
HETATM   11  N3  UNL     1      25.827   2.030  51.903  1.00  0.00    -0.340 N 
HETATM   12  H6  UNL     1      24.946   1.756  52.374  1.00  0.00     0.167 HD
BRANCH  11  13
HETATM   13  C7  UNL     1      26.885   1.269  52.459  1.00  0.00     0.035 A 
HETATM   14  C8  UNL     1      27.994   1.793  53.122  1.00  0.00     0.032 A 
HETATM   15  C9  UNL     1      28.996   1.016  53.647  1.00  0.00     0.046 A 
HETATM   16  C10 UNL     1      28.959  -0.356  53.544  1.00  0.00     0.138 A 
HETATM   17  F1  UNL     1      30.002  -1.007  54.098  1.00  0.00    -0.204 F 
HETATM   18  C11 UNL     1      27.882  -0.922  52.895  1.00  0.00     0.074 A 
HETATM   19 CL1  UNL     1      27.890  -2.667  52.795  1.00  0.00    -0.081 Cl
HETATM   20  C12 UNL     1      26.899  -0.105  52.384  1.00  0.00     0.056 A 
ENDBRANCH  11  13
ENDBRANCH   7  11
BRANCH  10  21
HETATM   21  O2  UNL     1      21.017   3.907  51.297  1.00  0.00    -0.348 OA
BRANCH  21  22
HETATM   22  C16 UNL     1      20.486   3.306  52.424  1.00  0.00     0.176 C 
BRANCH  22  23
HETATM   23  C17 UNL     1      20.400   1.829  52.261  1.00  0.00     0.031 C 
BRANCH  23  24
HETATM   24  C18 UNL     1      21.291   1.079  53.232  1.00  0.00    -0.009 C 
HETATM   25  C19 UNL     1      22.271   0.289  52.384  1.00  0.00     0.031 C 
HETATM   26  C20 UNL     1      23.181  -0.584  53.233  1.00  0.00     0.168 C 
HETATM   27  O3  UNL     1      22.370  -1.451  53.948  1.00  0.00    -0.391 OA
HETATM   28  C21 UNL     1      21.541  -0.761  54.815  1.00  0.00     0.168 C 
HETATM   29  C22 UNL     1      20.537   0.116  54.093  1.00  0.00     0.031 C 
ENDBRANCH  23  24
ENDBRANCH  22  23
ENDBRANCH  21  22
ENDBRANCH  10  21
BRANCH   1  30
HETATM   30  O1  UNL     1      21.195   5.724  49.382  1.00  0.00    -0.353 OA
HETATM   31  C1  UNL     1      21.155   7.093  49.716  1.00  0.00     0.210 C 
ENDBRANCH   1  30
TORSDOF 7
ENDMDL
MODEL 6
REMARK VINA RESULT:      -8.3      2.307      5.058
REMARK  7 active torsions:
REMARK  status: ('A' for Active; 'I' for Inactive)
REMARK    1  A    between atoms: O1_2  and  C2_3 
REMARK    2  A    between atoms: C6_9  and  N3_10 
REMARK    3  A    between atoms: N3_10  and  C7_11 
REMARK    4  A    between atoms: C15_21  and  O2_22 
REMARK    5  A    between atoms: O2_22  and  C16_23 
REMARK    6  A    between atoms: C16_23  and  C17_24 
REMARK    7  A    between atoms: C17_24  and  C18_25 
ROOT
HETATM    1  C2  UNL     1      23.378  -0.258  53.422  1.00  0.00     0.103 A 
HETATM    2  C3  UNL     1      24.723  -0.105  53.779  1.00  0.00     0.072 A 
HETATM    3  C4  UNL     1      25.540   0.755  53.057  1.00  0.00     0.075 A 
HETATM    4  N1  UNL     1      26.825   0.869  53.437  1.00  0.00    -0.241 NA
HETATM    5  C5  UNL     1      27.666   1.684  52.781  1.00  0.00     0.236 A 
HETATM    6  N2  UNL     1      27.169   2.366  51.746  1.00  0.00    -0.224 NA
HETATM    7  C6  UNL     1      25.910   2.312  51.302  1.00  0.00     0.142 A 
HETATM    8  C13 UNL     1      25.066   1.476  51.984  1.00  0.00     0.042 A 
HETATM    9  C14 UNL     1      23.746   1.282  51.687  1.00  0.00     0.057 A 
HETATM   10  C15 UNL     1      22.855   0.463  52.330  1.00  0.00     0.103 A 
ENDROOT
BRANCH   7  11
HETATM   11  N3  UNL     1      25.415   3.050  50.201  1.00  0.00    -0.340 N 
HETATM   12  H6  UNL     1      24.559   2.758  49.694  1.00  0.00     0.167 HD
BRANCH  11  13
HETATM   13  C7  UNL     1      25.910   4.231  49.595  1.00  0.00     0.035 A 
HETATM   14  C8  UNL     1      25.189   5.410  49.417  1.00  0.00     0.032 A 
HETATM   15  C9  UNL     1      25.711   6.533  48.825  1.00  0.00     0.046 A 
HETATM   16  C10 UNL     1      27.007   6.554  48.363  1.00  0.00     0.138 A 
HETATM   17  F1  UNL     1      27.403   7.714  47.800  1.00  0.00    -0.204 F 
HETATM   18  C11 UNL     1      27.762   5.410  48.515  1.00  0.00     0.074 A 
HETATM   19 CL1  UNL     1      29.399   5.497  47.909  1.00  0.00    -0.081 Cl
HETATM   20  C12 UNL     1      27.198   4.307  49.115  1.00  0.00     0.056 A 
ENDBRANCH  11  13
ENDBRANCH   7  11
BRANCH  10  21
HETATM   21  O2  UNL     1      21.553   0.174  52.161  1.00  0.00    -0.348 OA
BRANCH  21  22
HETATM   22  C16 UNL     1      20.444   0.953  51.884  1.00  0.00     0.176 C 
BRANCH  22  23
HETATM   23  C17 UNL     1      19.942   0.711  50.505  1.00  0.00     0.031 C 
BRANCH  23  24
HETATM   24  C18 UNL     1      20.475   1.716  49.502  1.00  0.00    -0.009 C 
HETATM   25  C19 UNL     1      21.610   1.023  48.770  1.00  0.00     0.031 C 
HETATM   26  C20 UNL     1      22.298   1.951  47.781  1.00  0.00     0.168 C 
HETATM   27  O3  UNL     1      22.789   3.028  48.502  1.00  0.00    -0.391 OA
HETATM   28  C21 UNL     1      21.764   3.747  49.091  1.00  0.00     0.168 C 
HETATM   29  C22 UNL     1      21.020   2.951  50.146  1.00  0.00     0.031 C 
ENDBRANCH  23  24
ENDBRANCH  22  23
ENDBRANCH  21  22
ENDBRANCH  10  21
BRANCH   1  30
HETATM   30  O1  UNL     1      22.607  -1.147  54.197  1.00  0.00    -0.353 OA
HETATM   31  C1  UNL     1      23.054  -1.391  55.511  1.00  0.00     0.210 C 
ENDBRANCH   1  30
TORSDOF 7
ENDMDL
MODEL 7
REMARK VINA RESULT:      -8.1      3.031      5.767
REMARK  7 active torsions:
REMARK  status: ('A' for Active; 'I' for Inactive)
REMARK    1  A    between atoms: O1_2  and  C2_3 
REMARK    2  A    between atoms: C6_9  and  N3_10 
REMARK    3  A    between atoms: N3_10  and  C7_11 
REMARK    4  A    between atoms: C15_21  and  O2_22 
REMARK    5  A    between atoms: O2_22  and  C16_23 
REMARK    6  A    between atoms: C16_23  and  C17_24 
REMARK    7  A    between atoms: C17_24  and  C18_25 
ROOT
HETATM    1  C2  UNL     1      26.700   0.481  53.503  1.00  0.00     0.103 A 
HETATM    2  C3  UNL     1      26.046  -0.239  54.510  1.00  0.00     0.072 A 
HETATM    3  C4  UNL     1      24.687  -0.505  54.404  1.00  0.00     0.075 A 
HETATM    4  N1  UNL     1      24.103  -1.199  55.396  1.00  0.00    -0.241 NA
HETATM    5  C5  UNL     1      22.792  -1.489  55.352  1.00  0.00     0.236 A 
HETATM    6  N2  UNL     1      22.109  -1.058  54.290  1.00  0.00    -0.224 NA
HETATM    7  C6  UNL     1      22.608  -0.364  53.263  1.00  0.00     0.142 A 
HETATM    8  C13 UNL     1      23.947  -0.077  53.324  1.00  0.00     0.042 A 
HETATM    9  C14 UNL     1      24.643   0.620  52.377  1.00  0.00     0.057 A 
HETATM   10  C15 UNL     1      25.977   0.935  52.382  1.00  0.00     0.103 A 
ENDROOT
BRANCH   7  11
HETATM   11  N3  UNL     1      21.855   0.079  52.150  1.00  0.00    -0.340 N 
HETATM   12  H6  UNL     1      21.245  -0.567  51.617  1.00  0.00     0.167 HD
BRANCH  11  13
HETATM   13  C7  UNL     1      21.762   1.365  51.563  1.00  0.00     0.035 A 
HETATM   14  C8  UNL     1      21.313   2.516  52.209  1.00  0.00     0.032 A 
HETATM   15  C9  UNL     1      21.242   3.744  51.601  1.00  0.00     0.046 A 
HETATM   16  C10 UNL     1      21.617   3.909  50.287  1.00  0.00     0.138 A 
HETATM   17  F1  UNL     1      21.500   5.162  49.804  1.00  0.00    -0.204 F 
HETATM   18  C11 UNL     1      22.068   2.799  49.605  1.00  0.00     0.074 A 
HETATM   19 CL1  UNL     1      22.531   3.069  47.941  1.00  0.00    -0.081 Cl
HETATM   20  C12 UNL     1      22.124   1.586  50.254  1.00  0.00     0.056 A 
ENDBRANCH  11  13
ENDBRANCH   7  11
BRANCH  10  21
HETATM   21  O2  UNL     1      26.789   1.598  51.540  1.00  0.00    -0.348 OA
BRANCH  21  22
HETATM   22  C16 UNL     1      26.795   2.896  51.064  1.00  0.00     0.176 C 
BRANCH  22  23
HETATM   23  C17 UNL     1      26.319   2.959  49.655  1.00  0.00     0.031 C 
BRANCH  23  24
HETATM   24  C18 UNL     1      25.780   4.325  49.278  1.00  0.00    -0.009 C 
HETATM   25  C19 UNL     1      26.978   5.148  48.844  1.00  0.00     0.031 C 
HETATM   26  C20 UNL     1      26.593   6.581  48.513  1.00  0.00     0.168 C 
HETATM   27  O3  UNL     1      26.033   7.131  49.656  1.00  0.00    -0.391 OA
HETATM   28  C21 UNL     1      24.873   6.468  50.014  1.00  0.00     0.168 C 
HETATM   29  C22 UNL     1      25.121   5.029  50.423  1.00  0.00     0.031 C 
ENDBRANCH  23  24
ENDBRANCH  22  23
ENDBRANCH  21  22
ENDBRANCH  10  21
BRANCH   1  30
HETATM   30  O1  UNL     1      28.078   0.715  53.675  1.00  0.00    -0.353 OA
HETATM   31  C1  UNL     1      28.711   0.021  54.726  1.00  0.00     0.210 C 
ENDBRANCH   1  30
TORSDOF 7
ENDMDL
MODEL 8
REMARK VINA RESULT:      -7.9      4.606      6.816
REMARK  7 active torsions:
REMARK  status: ('A' for Active; 'I' for Inactive)
REMARK    1  A    between atoms: O1_2  and  C2_3 
REMARK    2  A    between atoms: C6_9  and  N3_10 
REMARK    3  A    between atoms: N3_10  and  C7_11 
REMARK    4  A    between atoms: C15_21  and  O2_22 
REMARK    5  A    between atoms: O2_22  and  C16_23 
REMARK    6  A    between atoms: C16_23  and  C17_24 
REMARK    7  A    between atoms: C17_24  and  C18_25 
ROOT
HETATM    1  C2  UNL     1      25.340   5.299  49.240  1.00  0.00     0.103 A 
HETATM    2  C3  UNL     1      25.603   6.550  48.672  1.00  0.00     0.072 A 
HETATM    3  C4  UNL     1      26.873   6.845  48.194  1.00  0.00     0.075 A 
HETATM    4  N1  UNL     1      27.077   8.060  47.657  1.00  0.00    -0.241 NA
HETATM    5  C5  UNL     1      28.282   8.406  47.177  1.00  0.00     0.236 A 
HETATM    6  N2  UNL     1      29.254   7.495  47.260  1.00  0.00    -0.224 NA
HETATM    7  C6  UNL     1      29.139   6.268  47.777  1.00  0.00     0.142 A 
HETATM    8  C13 UNL     1      27.902   5.932  48.261  1.00  0.00     0.042 A 
HETATM    9  C14 UNL     1      27.582   4.730  48.827  1.00  0.00     0.057 A 
HETATM   10  C15 UNL     1      26.367   4.337  49.326  1.00  0.00     0.103 A 
ENDROOT
BRANCH   7  11
HETATM   11  N3  UNL     1      30.191   5.324  47.849  1.00  0.00    -0.340 N 
HETATM   12  H6  UNL     1      30.014   4.307  47.755  1.00  0.00     0.167 HD
BRANCH  11  13
HETATM   13  C7  UNL     1      31.581   5.519  48.044  1.00  0.00     0.035 A 
HETATM   14  C8  UNL     1      32.168   6.665  48.578  1.00  0.00     0.032 A 
HETATM   15  C9  UNL     1      33.522   6.809  48.751  1.00  0.00     0.046 A 
HETATM   16  C10 UNL     1      34.394   5.805  48.397  1.00  0.00     0.138 A 
HETATM   17  F1  UNL     1      35.699   6.067  48.614  1.00  0.00    -0.204 F 
HETATM   18  C11 UNL     1      33.861   4.651  47.863  1.00  0.00     0.074 A 
HETATM   19 CL1  UNL     1      35.016   3.411  47.433  1.00  0.00    -0.081 Cl
HETATM   20  C12 UNL     1      32.497   4.548  47.708  1.00  0.00     0.056 A 
ENDBRANCH  11  13
ENDBRANCH   7  11
BRANCH  10  21
HETATM   21  O2  UNL     1      25.906   3.212  49.899  1.00  0.00    -0.348 OA
BRANCH  21  22
HETATM   22  C16 UNL     1      26.359   2.437  50.951  1.00  0.00     0.176 C 
BRANCH  22  23
HETATM   23  C17 UNL     1      25.241   2.034  51.847  1.00  0.00     0.031 C 
BRANCH  23  24
HETATM   24  C18 UNL     1      25.563   0.800  52.667  1.00  0.00    -0.009 C 
HETATM   25  C19 UNL     1      26.081   1.302  54.002  1.00  0.00     0.031 C 
HETATM   26  C20 UNL     1      26.525   0.161  54.904  1.00  0.00     0.168 C 
HETATM   27  O3  UNL     1      27.528  -0.524  54.237  1.00  0.00    -0.391 OA
HETATM   28  C21 UNL     1      27.055  -1.090  53.066  1.00  0.00     0.168 C 
HETATM   29  C22 UNL     1      26.624  -0.054  52.047  1.00  0.00     0.031 C 
ENDBRANCH  23  24
ENDBRANCH  22  23
ENDBRANCH  21  22
ENDBRANCH  10  21
BRANCH   1  30
HETATM   30  O1  UNL     1      24.030   5.068  49.704  1.00  0.00    -0.353 OA
HETATM   31  C1  UNL     1      23.041   4.850  48.724  1.00  0.00     0.210 C 
ENDBRANCH   1  30
TORSDOF 7
ENDMDL
MODEL 9
REMARK VINA RESULT:      -7.8      4.504      7.458
REMARK  7 active torsions:
REMARK  status: ('A' for Active; 'I' for Inactive)
REMARK    1  A    between atoms: O1_2  and  C2_3 
REMARK    2  A    between atoms: C6_9  and  N3_10 
REMARK    3  A    between atoms: N3_10  and  C7_11 
REMARK    4  A    between atoms: C15_21  and  O2_22 
REMARK    5  A    between atoms: O2_22  and  C16_23 
REMARK    6  A    between atoms: C16_23  and  C17_24 
REMARK    7  A    between atoms: C17_24  and  C18_25 
ROOT
HETATM    1  C2  UNL     1      26.884   1.164  53.026  1.00  0.00     0.103 A 
HETATM    2  C3  UNL     1      26.526   0.159  53.932  1.00  0.00     0.072 A 
HETATM    3  C4  UNL     1      25.186  -0.127  54.160  1.00  0.00     0.075 A 
HETATM    4  N1  UNL     1      24.891  -1.101  55.038  1.00  0.00    -0.241 NA
HETATM    5  C5  UNL     1      23.615  -1.425  55.302  1.00  0.00     0.236 A 
HETATM    6  N2  UNL     1      22.668  -0.741  54.656  1.00  0.00    -0.224 NA
HETATM    7  C6  UNL     1      22.871   0.237  53.770  1.00  0.00     0.142 A 
HETATM    8  C13 UNL     1      24.179   0.556  53.513  1.00  0.00     0.042 A 
HETATM    9  C14 UNL     1      24.595   1.524  52.643  1.00  0.00     0.057 A 
HETATM   10  C15 UNL     1      25.883   1.885  52.345  1.00  0.00     0.103 A 
ENDROOT
BRANCH   7  11
HETATM   11  N3  UNL     1      21.843   0.944  53.102  1.00  0.00    -0.340 N 
HETATM   12  H6  UNL     1      21.922   1.958  52.905  1.00  0.00     0.167 HD
BRANCH  11  13
HETATM   13  C7  UNL     1      20.600   0.487  52.598  1.00  0.00     0.035 A 
HETATM   14  C8  UNL     1      20.004   0.916  51.413  1.00  0.00     0.032 A 
HETATM   15  C9  UNL     1      18.797   0.444  50.961  1.00  0.00     0.046 A 
HETATM   16  C10 UNL     1      18.093  -0.501  51.672  1.00  0.00     0.138 A 
HETATM   17  F1  UNL     1      16.921  -0.884  51.125  1.00  0.00    -0.204 F 
HETATM   18  C11 UNL     1      18.642  -0.957  52.852  1.00  0.00     0.074 A 
HETATM   19 CL1  UNL     1      17.703  -2.156  53.711  1.00  0.00    -0.081 Cl
HETATM   20  C12 UNL     1      19.855  -0.456  53.268  1.00  0.00     0.056 A 
ENDBRANCH  11  13
ENDBRANCH   7  11
BRANCH  10  21
HETATM   21  O2  UNL     1      26.439   2.795  51.527  1.00  0.00    -0.348 OA
BRANCH  21  22
HETATM   22  C16 UNL     1      26.420   2.962  50.154  1.00  0.00     0.176 C 
BRANCH  22  23
HETATM   23  C17 UNL     1      25.403   3.968  49.745  1.00  0.00     0.031 C 
BRANCH  23  24
HETATM   24  C18 UNL     1      26.000   5.121  48.962  1.00  0.00    -0.009 C 
HETATM   25  C19 UNL     1      27.481   4.818  48.824  1.00  0.00     0.031 C 
HETATM   26  C20 UNL     1      28.228   5.942  48.125  1.00  0.00     0.168 C 
HETATM   27  O3  UNL     1      28.051   7.088  48.884  1.00  0.00    -0.391 OA
HETATM   28  C21 UNL     1      26.717   7.454  48.936  1.00  0.00     0.168 C 
HETATM   29  C22 UNL     1      25.857   6.437  49.661  1.00  0.00     0.031 C 
ENDBRANCH  23  24
ENDBRANCH  22  23
ENDBRANCH  21  22
ENDBRANCH  10  21
BRANCH   1  30
HETATM   30  O1  UNL     1      28.261   1.401  52.845  1.00  0.00    -0.353 OA
HETATM   31  C1  UNL     1      28.977   1.856  53.970  1.00  0.00     0.210 C 
ENDBRANCH   1  30
TORSDOF 7
ENDMDL
