MODEL 1
REMARK VINA RESULT:      -6.7      0.000      0.000
REMARK  7 active torsions:
REMARK  status: ('A' for Active; 'I' for Inactive)
REMARK    1  A    between atoms: N1_1  and  C1_2 
REMARK    2  A    between atoms: C6_7  and  C7_8 
REMARK    3  A    between atoms: C8_11  and  S1_12 
REMARK    4  A    between atoms: S1_12  and  C9_13 
REMARK    5  A    between atoms: C9_13  and  C10_14 
REMARK    6  A    between atoms: C11_15  and  C12_16 
REMARK    7  A    between atoms: C13_17  and  C14_18 
ROOT
HETATM    1  C7  UNL     1      25.687  -0.667  54.355  1.00  0.00     0.205 A 
HETATM    2  N2  UNL     1      25.178  -1.124  55.535  1.00  0.00    -0.120 NA
HETATM    3  N3  UNL     1      23.867  -1.201  55.346  1.00  0.00    -0.114 NA
HETATM    4  C8  UNL     1      23.572  -0.804  54.088  1.00  0.00     0.231 A 
HETATM    5  O1  UNL     1      24.714  -0.480  53.497  1.00  0.00    -0.263 OA
ENDROOT
BRANCH   1   6
HETATM    6  C6  UNL     1      27.116  -0.420  54.081  1.00  0.00     0.045 A 
HETATM    7  C1  UNL     1      27.891  -1.332  53.372  1.00  0.00     0.040 A 
HETATM    8  C2  UNL     1      29.233  -1.065  53.133  1.00  0.00     0.030 A 
HETATM    9  C3  UNL     1      29.742   0.113  53.622  1.00  0.00     0.002 A 
HETATM   10  C4  UNL     1      29.046   1.064  54.329  1.00  0.00     0.001 A 
HETATM   11  C5  UNL     1      27.701   0.744  54.540  1.00  0.00     0.018 A 
BRANCH   7  12
HETATM   12  N1  UNL     1      27.282  -2.526  52.903  1.00  0.00    -0.398 N 
HETATM   13  H1  UNL     1      26.380  -2.230  52.510  1.00  0.00     0.156 HD
HETATM   14  H2  UNL     1      27.854  -3.393  53.054  1.00  0.00     0.156 HD
ENDBRANCH   7  12
ENDBRANCH   1   6
BRANCH   4  15
HETATM   15  S1  UNL     1      21.912  -0.745  53.390  1.00  0.00    -0.079 SA
BRANCH  15  16
HETATM   16  C9  UNL     1      22.004   0.359  51.937  1.00  0.00     0.110 C 
BRANCH  16  17
HETATM   17  C10 UNL     1      22.053   1.733  52.473  1.00  0.00    -0.016 C 
HETATM   18  C11 UNL     1      22.997   2.648  52.345  1.00  0.00    -0.003 C 
BRANCH  18  19
HETATM   19  C12 UNL     1      24.216   2.386  51.589  1.00  0.00    -0.002 C 
HETATM   20  C13 UNL     1      25.421   2.561  52.144  1.00  0.00     0.004 C 
BRANCH  20  21
HETATM   21  C14 UNL     1      26.684   2.299  51.388  1.00  0.00     0.249 C 
HETATM   22  F1  UNL     1      26.827   0.941  51.148  1.00  0.00    -0.251 F 
ENDBRANCH  20  21
ENDBRANCH  18  19
ENDBRANCH  16  17
ENDBRANCH  15  16
ENDBRANCH   4  15
TORSDOF 7
ENDMDL
MODEL 2
REMARK VINA RESULT:      -6.7      2.684      3.555
REMARK  7 active torsions:
REMARK  status: ('A' for Active; 'I' for Inactive)
REMARK    1  A    between atoms: N1_1  and  C1_2 
REMARK    2  A    between atoms: C6_7  and  C7_8 
REMARK    3  A    between atoms: C8_11  and  S1_12 
REMARK    4  A    between atoms: S1_12  and  C9_13 
REMARK    5  A    between atoms: C9_13  and  C10_14 
REMARK    6  A    between atoms: C11_15  and  C12_16 
REMARK    7  A    between atoms: C13_17  and  C14_18 
ROOT
HETATM    1  C7  UNL     1      26.521   1.386  53.113  1.00  0.00     0.205 A 
HETATM    2  N2  UNL     1      26.024   2.192  54.095  1.00  0.00    -0.120 NA
HETATM    3  N3  UNL     1      24.994   2.822  53.544  1.00  0.00    -0.114 NA
HETATM    4  C8  UNL     1      24.857   2.419  52.261  1.00  0.00     0.231 A 
HETATM    5  O1  UNL     1      25.812   1.532  52.020  1.00  0.00    -0.263 OA
ENDROOT
BRANCH   1   6
HETATM    6  C6  UNL     1      27.681   0.484  53.254  1.00  0.00     0.045 A 
HETATM    7  C1  UNL     1      28.926   0.957  53.657  1.00  0.00     0.040 A 
HETATM    8  C2  UNL     1      29.995   0.079  53.779  1.00  0.00     0.030 A 
HETATM    9  C3  UNL     1      29.767  -1.243  53.487  1.00  0.00     0.002 A 
HETATM   10  C4  UNL     1      28.571  -1.789  53.084  1.00  0.00     0.001 A 
HETATM   11  C5  UNL     1      27.531  -0.860  52.979  1.00  0.00     0.018 A 
BRANCH   7  12
HETATM   12  N1  UNL     1      29.073   2.341  53.938  1.00  0.00    -0.398 N 
HETATM   13  H1  UNL     1      29.601   2.721  53.143  1.00  0.00     0.156 HD
HETATM   14  H2  UNL     1      28.635   2.649  54.840  1.00  0.00     0.156 HD
ENDBRANCH   7  12
ENDBRANCH   1   6
BRANCH   4  15
HETATM   15  S1  UNL     1      23.588   3.012  51.127  1.00  0.00    -0.079 SA
BRANCH  15  16
HETATM   16  C9  UNL     1      21.981   2.649  51.917  1.00  0.00     0.110 C 
BRANCH  16  17
HETATM   17  C10 UNL     1      21.573   1.322  51.416  1.00  0.00    -0.016 C 
HETATM   18  C11 UNL     1      21.703   0.137  51.984  1.00  0.00    -0.003 C 
BRANCH  18  19
HETATM   19  C12 UNL     1      22.322  -0.017  53.294  1.00  0.00    -0.002 C 
HETATM   20  C13 UNL     1      23.441  -0.735  53.446  1.00  0.00     0.004 C 
BRANCH  20  21
HETATM   21  C14 UNL     1      24.095  -0.907  54.780  1.00  0.00     0.249 C 
HETATM   22  F1  UNL     1      23.168  -1.341  55.716  1.00  0.00    -0.251 F 
ENDBRANCH  20  21
ENDBRANCH  18  19
ENDBRANCH  16  17
ENDBRANCH  15  16
ENDBRANCH   4  15
TORSDOF 7
ENDMDL
MODEL 3
REMARK VINA RESULT:      -6.5      3.076      4.160
REMARK  7 active torsions:
REMARK  status: ('A' for Active; 'I' for Inactive)
REMARK    1  A    between atoms: N1_1  and  C1_2 
REMARK    2  A    between atoms: C6_7  and  C7_8 
REMARK    3  A    between atoms: C8_11  and  S1_12 
REMARK    4  A    between atoms: S1_12  and  C9_13 
REMARK    5  A    between atoms: C9_13  and  C10_14 
REMARK    6  A    between atoms: C11_15  and  C12_16 
REMARK    7  A    between atoms: C13_17  and  C14_18 
ROOT
HETATM    1  C7  UNL     1      26.385   2.010  51.811  1.00  0.00     0.205 A 
HETATM    2  N2  UNL     1      26.789   2.868  50.830  1.00  0.00    -0.120 NA
HETATM    3  N3  UNL     1      25.703   3.551  50.490  1.00  0.00    -0.114 NA
HETATM    4  C8  UNL     1      24.658   3.129  51.237  1.00  0.00     0.231 A 
HETATM    5  O1  UNL     1      25.106   2.178  52.044  1.00  0.00    -0.263 OA
ENDROOT
BRANCH   1   6
HETATM    6  C6  UNL     1      27.252   1.039  52.506  1.00  0.00     0.045 A 
HETATM    7  C1  UNL     1      28.332   1.451  53.281  1.00  0.00     0.040 A 
HETATM    8  C2  UNL     1      29.126   0.508  53.920  1.00  0.00     0.030 A 
HETATM    9  C3  UNL     1      28.801  -0.815  53.750  1.00  0.00     0.002 A 
HETATM   10  C4  UNL     1      27.755  -1.303  53.004  1.00  0.00     0.001 A 
HETATM   11  C5  UNL     1      26.989  -0.311  52.384  1.00  0.00     0.018 A 
BRANCH   7  12
HETATM   12  N1  UNL     1      28.595   2.841  53.401  1.00  0.00    -0.398 N 
HETATM   13  H1  UNL     1      29.518   2.977  52.970  1.00  0.00     0.156 HD
HETATM   14  H2  UNL     1      27.835   3.387  53.874  1.00  0.00     0.156 HD
ENDBRANCH   7  12
ENDBRANCH   1   6
BRANCH   4  15
HETATM   15  S1  UNL     1      22.980   3.776  51.117  1.00  0.00    -0.079 SA
BRANCH  15  16
HETATM   16  C9  UNL     1      21.956   2.760  52.238  1.00  0.00     0.110 C 
BRANCH  16  17
HETATM   17  C10 UNL     1      21.570   1.564  51.464  1.00  0.00    -0.016 C 
HETATM   18  C11 UNL     1      21.828   0.292  51.706  1.00  0.00    -0.003 C 
BRANCH  18  19
HETATM   19  C12 UNL     1      22.596  -0.122  52.873  1.00  0.00    -0.002 C 
HETATM   20  C13 UNL     1      22.024  -0.819  53.863  1.00  0.00     0.004 C 
BRANCH  20  21
HETATM   21  C14 UNL     1      22.792  -1.254  55.070  1.00  0.00     0.249 C 
HETATM   22  F1  UNL     1      24.123  -0.888  54.949  1.00  0.00    -0.251 F 
ENDBRANCH  20  21
ENDBRANCH  18  19
ENDBRANCH  16  17
ENDBRANCH  15  16
ENDBRANCH   4  15
TORSDOF 7
ENDMDL
MODEL 4
REMARK VINA RESULT:      -6.4      2.535      3.445
REMARK  7 active torsions:
REMARK  status: ('A' for Active; 'I' for Inactive)
REMARK    1  A    between atoms: N1_1  and  C1_2 
REMARK    2  A    between atoms: C6_7  and  C7_8 
REMARK    3  A    between atoms: C8_11  and  S1_12 
REMARK    4  A    between atoms: S1_12  and  C9_13 
REMARK    5  A    between atoms: C9_13  and  C10_14 
REMARK    6  A    between atoms: C11_15  and  C12_16 
REMARK    7  A    between atoms: C13_17  and  C14_18 
ROOT
HETATM    1  C7  UNL     1      25.748  -0.162  53.377  1.00  0.00     0.205 A 
HETATM    2  N2  UNL     1      25.056   0.622  52.501  1.00  0.00    -0.120 NA
HETATM    3  N3  UNL     1      23.774   0.402  52.769  1.00  0.00    -0.114 NA
HETATM    4  C8  UNL     1      23.675  -0.491  53.779  1.00  0.00     0.231 A 
HETATM    5  O1  UNL     1      24.908  -0.823  54.136  1.00  0.00    -0.263 OA
ENDROOT
BRANCH   1   6
HETATM    6  C6  UNL     1      27.218  -0.256  53.460  1.00  0.00     0.045 A 
HETATM    7  C1  UNL     1      27.998   0.835  53.831  1.00  0.00     0.040 A 
HETATM    8  C2  UNL     1      29.379   0.710  53.897  1.00  0.00     0.030 A 
HETATM    9  C3  UNL     1      29.921  -0.512  53.585  1.00  0.00     0.002 A 
HETATM   10  C4  UNL     1      29.224  -1.636  53.211  1.00  0.00     0.001 A 
HETATM   11  C5  UNL     1      27.838  -1.453  53.161  1.00  0.00     0.018 A 
BRANCH   7  12
HETATM   12  N1  UNL     1      27.353   2.063  54.136  1.00  0.00    -0.398 N 
HETATM   13  H1  UNL     1      26.455   1.796  54.557  1.00  0.00     0.156 HD
HETATM   14  H2  UNL     1      27.905   2.918  53.881  1.00  0.00     0.156 HD
ENDBRANCH   7  12
ENDBRANCH   1   6
BRANCH   4  15
HETATM   15  S1  UNL     1      22.125  -1.088  54.476  1.00  0.00    -0.079 SA
BRANCH  15  16
HETATM   16  C9  UNL     1      20.917   0.268  54.280  1.00  0.00     0.110 C 
BRANCH  16  17
HETATM   17  C10 UNL     1      19.801  -0.293  53.492  1.00  0.00    -0.016 C 
HETATM   18  C11 UNL     1      19.533  -0.155  52.207  1.00  0.00    -0.003 C 
BRANCH  18  19
HETATM   19  C12 UNL     1      20.383   0.640  51.331  1.00  0.00    -0.002 C 
HETATM   20  C13 UNL     1      20.053   0.845  50.050  1.00  0.00     0.004 C 
BRANCH  20  21
HETATM   21  C14 UNL     1      20.909   1.657  49.132  1.00  0.00     0.249 C 
HETATM   22  F1  UNL     1      21.608   0.828  48.268  1.00  0.00    -0.251 F 
ENDBRANCH  20  21
ENDBRANCH  18  19
ENDBRANCH  16  17
ENDBRANCH  15  16
ENDBRANCH   4  15
TORSDOF 7
ENDMDL
MODEL 5
REMARK VINA RESULT:      -6.4      3.321      3.901
REMARK  7 active torsions:
REMARK  status: ('A' for Active; 'I' for Inactive)
REMARK    1  A    between atoms: N1_1  and  C1_2 
REMARK    2  A    between atoms: C6_7  and  C7_8 
REMARK    3  A    between atoms: C8_11  and  S1_12 
REMARK    4  A    between atoms: S1_12  and  C9_13 
REMARK    5  A    between atoms: C9_13  and  C10_14 
REMARK    6  A    between atoms: C11_15  and  C12_16 
REMARK    7  A    between atoms: C13_17  and  C14_18 
ROOT
HETATM    1  C7  UNL     1      25.933   0.591  52.717  1.00  0.00     0.205 A 
HETATM    2  N2  UNL     1      24.791  -0.040  53.117  1.00  0.00    -0.120 NA
HETATM    3  N3  UNL     1      23.798   0.648  52.567  1.00  0.00    -0.114 NA
HETATM    4  C8  UNL     1      24.309   1.673  51.849  1.00  0.00     0.231 A 
HETATM    5  O1  UNL     1      25.629   1.615  51.958  1.00  0.00    -0.263 OA
ENDROOT
BRANCH   1   6
HETATM    6  C6  UNL     1      27.304   0.185  53.081  1.00  0.00     0.045 A 
HETATM    7  C1  UNL     1      28.217   1.094  53.608  1.00  0.00     0.040 A 
HETATM    8  C2  UNL     1      29.499   0.676  53.939  1.00  0.00     0.030 A 
HETATM    9  C3  UNL     1      29.812  -0.644  53.723  1.00  0.00     0.002 A 
HETATM   10  C4  UNL     1      28.971  -1.602  53.209  1.00  0.00     0.001 A 
HETATM   11  C5  UNL     1      27.695  -1.126  52.894  1.00  0.00     0.018 A 
BRANCH   7  12
HETATM   12  N1  UNL     1      27.808   2.440  53.798  1.00  0.00    -0.398 N 
HETATM   13  H1  UNL     1      28.680   2.969  53.924  1.00  0.00     0.156 HD
HETATM   14  H2  UNL     1      26.770   2.586  53.768  1.00  0.00     0.156 HD
ENDBRANCH   7  12
ENDBRANCH   1   6
BRANCH   4  15
HETATM   15  S1  UNL     1      23.328   2.873  50.929  1.00  0.00    -0.079 SA
BRANCH  15  16
HETATM   16  C9  UNL     1      24.260   3.232  49.399  1.00  0.00     0.110 C 
BRANCH  16  17
HETATM   17  C10 UNL     1      24.233   4.700  49.242  1.00  0.00    -0.016 C 
HETATM   18  C11 UNL     1      25.233   5.538  49.039  1.00  0.00    -0.003 C 
BRANCH  18  19
HETATM   19  C12 UNL     1      26.610   5.073  48.937  1.00  0.00    -0.002 C 
HETATM   20  C13 UNL     1      27.567   5.859  48.431  1.00  0.00     0.004 C 
BRANCH  20  21
HETATM   21  C14 UNL     1      28.987   5.403  48.317  1.00  0.00     0.249 C 
HETATM   22  F1  UNL     1      29.847   6.488  48.386  1.00  0.00    -0.251 F 
ENDBRANCH  20  21
ENDBRANCH  18  19
ENDBRANCH  16  17
ENDBRANCH  15  16
ENDBRANCH   4  15
TORSDOF 7
ENDMDL
MODEL 6
REMARK VINA RESULT:      -6.2      3.440      4.682
REMARK  7 active torsions:
REMARK  status: ('A' for Active; 'I' for Inactive)
REMARK    1  A    between atoms: N1_1  and  C1_2 
REMARK    2  A    between atoms: C6_7  and  C7_8 
REMARK    3  A    between atoms: C8_11  and  S1_12 
REMARK    4  A    between atoms: S1_12  and  C9_13 
REMARK    5  A    between atoms: C9_13  and  C10_14 
REMARK    6  A    between atoms: C11_15  and  C12_16 
REMARK    7  A    between atoms: C13_17  and  C14_18 
ROOT
HETATM    1  C7  UNL     1      25.763  -0.132  53.326  1.00  0.00     0.205 A 
HETATM    2  N2  UNL     1      24.834  -0.655  54.178  1.00  0.00    -0.120 NA
HETATM    3  N3  UNL     1      23.663  -0.221  53.729  1.00  0.00    -0.114 NA
HETATM    4  C8  UNL     1      23.860   0.546  52.633  1.00  0.00     0.231 A 
HETATM    5  O1  UNL     1      25.165   0.585  52.407  1.00  0.00    -0.263 OA
ENDROOT
BRANCH   1   6
HETATM    6  C6  UNL     1      27.221  -0.340  53.423  1.00  0.00     0.045 A 
HETATM    7  C1  UNL     1      28.080   0.686  53.807  1.00  0.00     0.040 A 
HETATM    8  C2  UNL     1      29.446   0.453  53.886  1.00  0.00     0.030 A 
HETATM    9  C3  UNL     1      29.895  -0.806  53.573  1.00  0.00     0.002 A 
HETATM   10  C4  UNL     1      29.116  -1.871  53.186  1.00  0.00     0.001 A 
HETATM   11  C5  UNL     1      27.750  -1.580  53.124  1.00  0.00     0.018 A 
BRANCH   7  12
HETATM   12  N1  UNL     1      27.528   1.959  54.113  1.00  0.00    -0.398 N 
HETATM   13  H1  UNL     1      28.267   2.453  54.628  1.00  0.00     0.156 HD
HETATM   14  H2  UNL     1      26.549   2.102  53.765  1.00  0.00     0.156 HD
ENDBRANCH   7  12
ENDBRANCH   1   6
BRANCH   4  15
HETATM   15  S1  UNL     1      22.551   1.349  51.690  1.00  0.00    -0.079 SA
BRANCH  15  16
HETATM   16  C9  UNL     1      21.298   0.063  51.353  1.00  0.00     0.110 C 
BRANCH  16  17
HETATM   17  C10 UNL     1      19.993   0.753  51.369  1.00  0.00    -0.016 C 
HETATM   18  C11 UNL     1      18.904   0.467  52.058  1.00  0.00    -0.003 C 
BRANCH  18  19
HETATM   19  C12 UNL     1      18.854  -0.668  52.970  1.00  0.00    -0.002 C 
HETATM   20  C13 UNL     1      17.873  -1.575  52.890  1.00  0.00     0.004 C 
BRANCH  20  21
HETATM   21  C14 UNL     1      17.801  -2.747  53.815  1.00  0.00     0.249 C 
HETATM   22  F1  UNL     1      17.416  -3.884  53.121  1.00  0.00    -0.251 F 
ENDBRANCH  20  21
ENDBRANCH  18  19
ENDBRANCH  16  17
ENDBRANCH  15  16
ENDBRANCH   4  15
TORSDOF 7
ENDMDL
MODEL 7
REMARK VINA RESULT:      -6.2      1.795      2.280
REMARK  7 active torsions:
REMARK  status: ('A' for Active; 'I' for Inactive)
REMARK    1  A    between atoms: N1_1  and  C1_2 
REMARK    2  A    between atoms: C6_7  and  C7_8 
REMARK    3  A    between atoms: C8_11  and  S1_12 
REMARK    4  A    between atoms: S1_12  and  C9_13 
REMARK    5  A    between atoms: C9_13  and  C10_14 
REMARK    6  A    between atoms: C11_15  and  C12_16 
REMARK    7  A    between atoms: C13_17  and  C14_18 
ROOT
HETATM    1  C7  UNL     1      25.548   0.076  53.355  1.00  0.00     0.205 A 
HETATM    2  N2  UNL     1      24.732  -0.688  54.138  1.00  0.00    -0.120 NA
HETATM    3  N3  UNL     1      23.499  -0.425  53.723  1.00  0.00    -0.114 NA
HETATM    4  C8  UNL     1      23.549   0.474  52.714  1.00  0.00     0.231 A 
HETATM    5  O1  UNL     1      24.825   0.768  52.507  1.00  0.00    -0.263 OA
ENDROOT
BRANCH   1   6
HETATM    6  C6  UNL     1      27.020   0.122  53.446  1.00  0.00     0.045 A 
HETATM    7  C1  UNL     1      27.695   1.301  53.746  1.00  0.00     0.040 A 
HETATM    8  C2  UNL     1      29.082   1.305  53.823  1.00  0.00     0.030 A 
HETATM    9  C3  UNL     1      29.734   0.119  53.592  1.00  0.00     0.002 A 
HETATM   10  C4  UNL     1      29.143  -1.085  53.292  1.00  0.00     0.001 A 
HETATM   11  C5  UNL     1      27.747  -1.031  53.227  1.00  0.00     0.018 A 
BRANCH   7  12
HETATM   12  N1  UNL     1      26.940   2.482  53.970  1.00  0.00    -0.398 N 
HETATM   13  H1  UNL     1      27.121   2.734  54.949  1.00  0.00     0.156 HD
HETATM   14  H2  UNL     1      26.398   2.815  53.135  1.00  0.00     0.156 HD
ENDBRANCH   7  12
ENDBRANCH   1   6
BRANCH   4  15
HETATM   15  S1  UNL     1      22.112   1.125  51.844  1.00  0.00    -0.079 SA
BRANCH  15  16
HETATM   16  C9  UNL     1      22.079   2.921  52.176  1.00  0.00     0.110 C 
BRANCH  16  17
HETATM   17  C10 UNL     1      21.904   3.574  50.864  1.00  0.00    -0.016 C 
HETATM   18  C11 UNL     1      22.814   4.104  50.067  1.00  0.00    -0.003 C 
BRANCH  18  19
HETATM   19  C12 UNL     1      24.228   4.110  50.419  1.00  0.00    -0.002 C 
HETATM   20  C13 UNL     1      25.082   3.249  49.853  1.00  0.00     0.004 C 
BRANCH  20  21
HETATM   21  C14 UNL     1      26.537   3.236  50.199  1.00  0.00     0.249 C 
HETATM   22  F1  UNL     1      26.922   1.969  50.608  1.00  0.00    -0.251 F 
ENDBRANCH  20  21
ENDBRANCH  18  19
ENDBRANCH  16  17
ENDBRANCH  15  16
ENDBRANCH   4  15
TORSDOF 7
ENDMDL
MODEL 8
REMARK VINA RESULT:      -6.0      4.654      5.597
REMARK  7 active torsions:
REMARK  status: ('A' for Active; 'I' for Inactive)
REMARK    1  A    between atoms: N1_1  and  C1_2 
REMARK    2  A    between atoms: C6_7  and  C7_8 
REMARK    3  A    between atoms: C8_11  and  S1_12 
REMARK    4  A    between atoms: S1_12  and  C9_13 
REMARK    5  A    between atoms: C9_13  and  C10_14 
REMARK    6  A    between atoms: C11_15  and  C12_16 
REMARK    7  A    between atoms: C13_17  and  C14_18 
ROOT
HETATM    1  C7  UNL     1      26.054   1.972  52.173  1.00  0.00     0.205 A 
HETATM    2  N2  UNL     1      25.033   2.531  52.885  1.00  0.00    -0.120 NA
HETATM    3  N3  UNL     1      24.455   3.392  52.055  1.00  0.00    -0.114 NA
HETATM    4  C8  UNL     1      25.098   3.366  50.866  1.00  0.00     0.231 A 
HETATM    5  O1  UNL     1      26.081   2.482  50.966  1.00  0.00    -0.263 OA
ENDROOT
BRANCH   1   6
HETATM    6  C6  UNL     1      26.988   0.949  52.681  1.00  0.00     0.045 A 
HETATM    7  C1  UNL     1      28.048   1.282  53.520  1.00  0.00     0.040 A 
HETATM    8  C2  UNL     1      28.907   0.292  53.977  1.00  0.00     0.030 A 
HETATM    9  C3  UNL     1      28.665  -0.996  53.570  1.00  0.00     0.002 A 
HETATM   10  C4  UNL     1      27.644  -1.408  52.746  1.00  0.00     0.001 A 
HETATM   11  C5  UNL     1      26.811  -0.370  52.316  1.00  0.00     0.018 A 
BRANCH   7  12
HETATM   12  N1  UNL     1      28.223   2.642  53.891  1.00  0.00    -0.398 N 
HETATM   13  H1  UNL     1      28.037   2.670  54.900  1.00  0.00     0.156 HD
HETATM   14  H2  UNL     1      28.488   3.276  53.099  1.00  0.00     0.156 HD
ENDBRANCH   7  12
ENDBRANCH   1   6
BRANCH   4  15
HETATM   15  S1  UNL     1      24.659   4.373  49.438  1.00  0.00    -0.079 SA
BRANCH  15  16
HETATM   16  C9  UNL     1      26.006   5.591  49.234  1.00  0.00     0.110 C 
BRANCH  16  17
HETATM   17  C10 UNL     1      27.213   4.810  48.898  1.00  0.00    -0.016 C 
HETATM   18  C11 UNL     1      28.334   5.208  48.327  1.00  0.00    -0.003 C 
BRANCH  18  19
HETATM   19  C12 UNL     1      28.534   6.593  47.922  1.00  0.00    -0.002 C 
HETATM   20  C13 UNL     1      29.486   7.346  48.487  1.00  0.00     0.004 C 
BRANCH  20  21
HETATM   21  C14 UNL     1      29.710   8.769  48.087  1.00  0.00     0.249 C 
HETATM   22  F1  UNL     1      30.111   9.518  49.182  1.00  0.00    -0.251 F 
ENDBRANCH  20  21
ENDBRANCH  18  19
ENDBRANCH  16  17
ENDBRANCH  15  16
ENDBRANCH   4  15
TORSDOF 7
ENDMDL
MODEL 9
REMARK VINA RESULT:      -5.9      3.101      4.094
REMARK  7 active torsions:
REMARK  status: ('A' for Active; 'I' for Inactive)
REMARK    1  A    between atoms: N1_1  and  C1_2 
REMARK    2  A    between atoms: C6_7  and  C7_8 
REMARK    3  A    between atoms: C8_11  and  S1_12 
REMARK    4  A    between atoms: S1_12  and  C9_13 
REMARK    5  A    between atoms: C9_13  and  C10_14 
REMARK    6  A    between atoms: C11_15  and  C12_16 
REMARK    7  A    between atoms: C13_17  and  C14_18 
ROOT
HETATM    1  C7  UNL     1      25.947   0.981  52.378  1.00  0.00     0.205 A 
HETATM    2  N2  UNL     1      24.708   0.470  52.633  1.00  0.00    -0.120 NA
HETATM    3  N3  UNL     1      23.867   1.225  51.936  1.00  0.00    -0.114 NA
HETATM    4  C8  UNL     1      24.563   2.173  51.270  1.00  0.00     0.231 A 
HETATM    5  O1  UNL     1      25.845   2.000  51.560  1.00  0.00    -0.263 OA
ENDROOT
BRANCH   1   6
HETATM    6  C6  UNL     1      27.213   0.466  52.935  1.00  0.00     0.045 A 
HETATM    7  C1  UNL     1      28.083   1.287  53.646  1.00  0.00     0.040 A 
HETATM    8  C2  UNL     1      29.266   0.768  54.156  1.00  0.00     0.030 A 
HETATM    9  C3  UNL     1      29.526  -0.560  53.927  1.00  0.00     0.002 A 
HETATM   10  C4  UNL     1      28.722  -1.437  53.238  1.00  0.00     0.001 A 
HETATM   11  C5  UNL     1      27.546  -0.860  52.748  1.00  0.00     0.018 A 
BRANCH   7  12
HETATM   12  N1  UNL     1      27.734   2.651  53.835  1.00  0.00    -0.398 N 
HETATM   13  H1  UNL     1      27.167   2.898  53.015  1.00  0.00     0.156 HD
HETATM   14  H2  UNL     1      28.110   3.077  54.716  1.00  0.00     0.156 HD
ENDBRANCH   7  12
ENDBRANCH   1   6
BRANCH   4  15
HETATM   15  S1  UNL     1      23.833   3.422  50.197  1.00  0.00    -0.079 SA
BRANCH  15  16
HETATM   16  C9  UNL     1      22.028   3.141  50.234  1.00  0.00     0.110 C 
BRANCH  16  17
HETATM   17  C10 UNL     1      21.530   3.852  51.428  1.00  0.00    -0.016 C 
HETATM   18  C11 UNL     1      20.693   3.437  52.360  1.00  0.00    -0.003 C 
BRANCH  18  19
HETATM   19  C12 UNL     1      20.105   2.104  52.319  1.00  0.00    -0.002 C 
HETATM   20  C13 UNL     1      20.469   1.163  53.199  1.00  0.00     0.004 C 
BRANCH  20  21
HETATM   21  C14 UNL     1      19.880  -0.211  53.177  1.00  0.00     0.249 C 
HETATM   22  F1  UNL     1      19.182  -0.415  51.996  1.00  0.00    -0.251 F 
ENDBRANCH  20  21
ENDBRANCH  18  19
ENDBRANCH  16  17
ENDBRANCH  15  16
ENDBRANCH   4  15
TORSDOF 7
ENDMDL
