MODEL 1
REMARK VINA RESULT:     -10.4      0.000      0.000
REMARK  5 active torsions:
REMARK  status: ('A' for Active; 'I' for Inactive)
REMARK       I    between atoms: N1_5  and  C5_6 
REMARK    1  A    between atoms: C5_6  and  C6_8 
REMARK    2  A    between atoms: C12_14  and  O2_15 
REMARK    3  A    between atoms: C16_19  and  N2_20 
REMARK    4  A    between atoms: N2_20  and  C17_21 
REMARK    5  A    between atoms: C20_25  and  C21_26 
ROOT
HETATM    1  C1  UNL     1      21.541   0.987  49.042  1.00  0.00     0.050 C 
HETATM    2  C2  UNL     1      22.303   1.990  49.858  1.00  0.00    -0.037 C 
HETATM    3  C3  UNL     1      23.271   2.616  49.211  1.00  0.00     0.002 C 
HETATM    4  C4  UNL     1      24.314   3.629  49.396  1.00  0.00     0.154 C 
HETATM    5  N1  UNL     1      23.786   4.739  50.169  1.00  0.00    -0.345 N 
HETATM    6  C5  UNL     1      24.721   5.822  50.344  1.00  0.00     0.244 C 
HETATM    7  O1  UNL     1      24.304   6.805  51.008  1.00  0.00    -0.268 OA
HETATM    8  C13 UNL     1      22.498   4.991  50.812  1.00  0.00     0.130 C 
HETATM    9  C14 UNL     1      22.497   4.386  52.211  1.00  0.00     0.049 C 
HETATM   10  C15 UNL     1      21.890   3.019  52.159  1.00  0.00     0.005 C 
HETATM   11  C16 UNL     1      21.815   2.079  51.232  1.00  0.00     0.051 C 
ENDROOT
BRANCH  11  12
HETATM   12  N2  UNL     1      21.121   0.909  51.639  1.00  0.00    -0.188 N 
HETATM   13  H17 UNL     1      20.245   0.509  51.255  1.00  0.00     0.184 HD
BRANCH  12  14
HETATM   14  C17 UNL     1      21.747   0.205  52.730  1.00  0.00     0.727 A 
HETATM   15  N3  UNL     1      20.998  -0.414  53.668  1.00  0.00    -0.075 NA
HETATM   16  C18 UNL     1      21.579  -1.082  54.703  1.00  0.00     0.139 A 
HETATM   17  C19 UNL     1      22.956  -1.116  54.779  1.00  0.00     0.053 A 
HETATM   18  C20 UNL     1      23.726  -0.486  53.824  1.00  0.00     0.089 A 
HETATM   19  N5  UNL     1      23.101   0.147  52.843  1.00  0.00    -0.062 NA
BRANCH  18  20
HETATM   20  C21 UNL     1      25.184  -0.485  53.846  1.00  0.00     0.011 A 
HETATM   21  C22 UNL     1      25.834  -0.852  52.686  1.00  0.00     0.017 A 
HETATM   22  C23 UNL     1      27.224  -0.854  52.696  1.00  0.00     0.020 A 
HETATM   23  C24 UNL     1      27.983  -0.514  53.789  1.00  0.00     0.116 A 
HETATM   24  N4  UNL     1      27.299  -0.161  54.900  1.00  0.00    -0.272 NA
HETATM   25  C25 UNL     1      25.949  -0.145  54.935  1.00  0.00     0.130 A 
ENDBRANCH  18  20
ENDBRANCH  12  14
ENDBRANCH  11  12
BRANCH   6  26
HETATM   26  C6  UNL     1      26.046   5.723  49.763  1.00  0.00     0.088 C 
HETATM   27  C7  UNL     1      26.589   6.530  48.877  1.00  0.00     0.003 C 
HETATM   28  C8  UNL     1      26.013   7.715  48.257  1.00  0.00     0.014 C 
HETATM   29  C12 UNL     1      27.958   6.293  48.380  1.00  0.00     0.087 C 
HETATM   30  C9  UNL     1      26.697   8.425  47.374  1.00  0.00     0.002 C 
HETATM   31  C10 UNL     1      28.050   8.087  46.962  1.00  0.00     0.015 C 
HETATM   32  C11 UNL     1      28.419   6.901  47.327  1.00  0.00     0.011 C 
BRANCH  29  33
HETATM   33  O2  UNL     1      28.813   5.396  49.035  1.00  0.00    -0.359 OA
HETATM   34  H11 UNL     1      29.257   4.627  48.551  1.00  0.00     0.217 HD
ENDBRANCH  29  33
ENDBRANCH   6  26
TORSDOF 5
ENDMDL
MODEL 2
REMARK VINA RESULT:      -8.9      3.641      7.175
REMARK  5 active torsions:
REMARK  status: ('A' for Active; 'I' for Inactive)
REMARK       I    between atoms: N1_5  and  C5_6 
REMARK    1  A    between atoms: C5_6  and  C6_8 
REMARK    2  A    between atoms: C12_14  and  O2_15 
REMARK    3  A    between atoms: C16_19  and  N2_20 
REMARK    4  A    between atoms: N2_20  and  C17_21 
REMARK    5  A    between atoms: C20_25  and  C21_26 
ROOT
HETATM    1  C1  UNL     1      23.768   5.739  51.958  1.00  0.00     0.050 C 
HETATM    2  C2  UNL     1      23.050   4.691  51.160  1.00  0.00    -0.037 C 
HETATM    3  C3  UNL     1      21.730   4.777  51.185  1.00  0.00     0.002 C 
HETATM    4  C4  UNL     1      20.523   4.127  50.668  1.00  0.00     0.154 C 
HETATM    5  N1  UNL     1      20.714   3.780  49.271  1.00  0.00    -0.345 N 
HETATM    6  C5  UNL     1      19.550   3.197  48.652  1.00  0.00     0.244 C 
HETATM    7  O1  UNL     1      19.672   2.881  47.441  1.00  0.00    -0.268 OA
HETATM    8  C13 UNL     1      21.847   3.897  48.354  1.00  0.00     0.130 C 
HETATM    9  C14 UNL     1      22.742   2.671  48.488  1.00  0.00     0.049 C 
HETATM   10  C15 UNL     1      23.849   2.969  49.450  1.00  0.00     0.005 C 
HETATM   11  C16 UNL     1      23.966   3.764  50.500  1.00  0.00     0.051 C 
ENDROOT
BRANCH  11  12
HETATM   12  N2  UNL     1      25.240   3.721  51.128  1.00  0.00    -0.188 N 
HETATM   13  H17 UNL     1      25.956   4.468  51.191  1.00  0.00     0.184 HD
BRANCH  12  14
HETATM   14  C17 UNL     1      25.544   2.458  51.752  1.00  0.00     0.727 A 
HETATM   15  N3  UNL     1      26.810   1.987  51.768  1.00  0.00    -0.075 NA
HETATM   16  C18 UNL     1      27.108   0.795  52.356  1.00  0.00     0.139 A 
HETATM   17  C19 UNL     1      26.088   0.070  52.938  1.00  0.00     0.053 A 
HETATM   18  C20 UNL     1      24.794   0.547  52.924  1.00  0.00     0.089 A 
HETATM   19  N5  UNL     1      24.569   1.712  52.338  1.00  0.00    -0.062 NA
BRANCH  18  20
HETATM   20  C21 UNL     1      23.673  -0.169  53.521  1.00  0.00     0.011 A 
HETATM   21  C22 UNL     1      22.462  -0.111  52.861  1.00  0.00     0.017 A 
HETATM   22  C23 UNL     1      21.386  -0.790  53.422  1.00  0.00     0.020 A 
HETATM   23  C24 UNL     1      21.459  -1.511  54.588  1.00  0.00     0.116 A 
HETATM   24  N4  UNL     1      22.667  -1.538  55.195  1.00  0.00    -0.272 NA
HETATM   25  C25 UNL     1      23.738  -0.893  54.686  1.00  0.00     0.130 A 
ENDBRANCH  18  20
ENDBRANCH  12  14
ENDBRANCH  11  12
BRANCH   6  26
HETATM   26  C6  UNL     1      18.342   3.013  49.434  1.00  0.00     0.088 C 
HETATM   27  C7  UNL     1      18.044   1.993  50.209  1.00  0.00     0.003 C 
HETATM   28  C8  UNL     1      18.835   0.801  50.485  1.00  0.00     0.014 C 
HETATM   29  C12 UNL     1      16.765   1.953  50.944  1.00  0.00     0.087 C 
HETATM   30  C9  UNL     1      18.387  -0.142  51.298  1.00  0.00     0.002 C 
HETATM   31  C10 UNL     1      17.099  -0.067  51.968  1.00  0.00     0.015 C 
HETATM   32  C11 UNL     1      16.327   0.860  51.498  1.00  0.00     0.011 C 
BRANCH  29  33
HETATM   33  O2  UNL     1      15.974   3.103  51.069  1.00  0.00    -0.359 OA
HETATM   34  H11 UNL     1      15.476   3.500  50.283  1.00  0.00     0.217 HD
ENDBRANCH  29  33
ENDBRANCH   6  26
TORSDOF 5
ENDMDL
MODEL 3
REMARK VINA RESULT:      -8.9      5.550      8.718
REMARK  5 active torsions:
REMARK  status: ('A' for Active; 'I' for Inactive)
REMARK       I    between atoms: N1_5  and  C5_6 
REMARK    1  A    between atoms: C5_6  and  C6_8 
REMARK    2  A    between atoms: C12_14  and  O2_15 
REMARK    3  A    between atoms: C16_19  and  N2_20 
REMARK    4  A    between atoms: N2_20  and  C17_21 
REMARK    5  A    between atoms: C20_25  and  C21_26 
ROOT
HETATM    1  C1  UNL     1      18.974   1.810  49.717  1.00  0.00     0.050 C 
HETATM    2  C2  UNL     1      19.513   0.835  50.723  1.00  0.00    -0.037 C 
HETATM    3  C3  UNL     1      20.820   0.899  50.917  1.00  0.00     0.002 C 
HETATM    4  C4  UNL     1      21.901   0.286  51.693  1.00  0.00     0.154 C 
HETATM    5  N1  UNL     1      21.465   0.081  53.063  1.00  0.00    -0.345 N 
HETATM    6  C5  UNL     1      22.488  -0.455  53.925  1.00  0.00     0.244 C 
HETATM    7  O1  UNL     1      22.153  -0.648  55.121  1.00  0.00    -0.268 OA
HETATM    8  C13 UNL     1      20.198   0.305  53.757  1.00  0.00     0.130 C 
HETATM    9  C14 UNL     1      19.299  -0.915  53.587  1.00  0.00     0.049 C 
HETATM   10  C15 UNL     1      18.382  -0.697  52.425  1.00  0.00     0.005 C 
HETATM   11  C16 UNL     1      18.470  -0.007  51.300  1.00  0.00     0.051 C 
ENDROOT
BRANCH  11  12
HETATM   12  N2  UNL     1      17.320  -0.094  50.469  1.00  0.00    -0.188 N 
HETATM   13  H17 UNL     1      17.268  -0.092  49.434  1.00  0.00     0.184 HD
BRANCH  12  14
HETATM   14  C17 UNL     1      16.079  -0.198  51.194  1.00  0.00     0.727 A 
HETATM   15  N3  UNL     1      15.445  -1.386  51.304  1.00  0.00    -0.075 NA
HETATM   16  C18 UNL     1      14.272  -1.496  51.987  1.00  0.00     0.139 A 
HETATM   17  C19 UNL     1      13.737  -0.366  52.569  1.00  0.00     0.053 A 
HETATM   18  C20 UNL     1      14.380   0.849  52.461  1.00  0.00     0.089 A 
HETATM   19  N5  UNL     1      15.517   0.891  51.784  1.00  0.00    -0.062 NA
BRANCH  18  20
HETATM   20  C21 UNL     1      13.868   2.080  53.052  1.00  0.00     0.011 A 
HETATM   21  C22 UNL     1      12.660   2.007  53.716  1.00  0.00     0.017 A 
HETATM   22  C23 UNL     1      12.162   3.175  54.284  1.00  0.00     0.020 A 
HETATM   23  C24 UNL     1      12.801   4.388  54.223  1.00  0.00     0.116 A 
HETATM   24  N4  UNL     1      13.981   4.407  53.564  1.00  0.00    -0.272 NA
HETATM   25  C25 UNL     1      14.500   3.297  52.996  1.00  0.00     0.130 A 
ENDBRANCH  18  20
ENDBRANCH  12  14
ENDBRANCH  11  12
BRANCH   6  26
HETATM   26  C6  UNL     1      23.805  -0.733  53.383  1.00  0.00     0.088 C 
HETATM   27  C7  UNL     1      24.788   0.122  53.204  1.00  0.00     0.003 C 
HETATM   28  C8  UNL     1      24.814   1.549  53.497  1.00  0.00     0.014 C 
HETATM   29  C12 UNL     1      26.078  -0.318  52.638  1.00  0.00     0.087 C 
HETATM   30  C9  UNL     1      25.893   2.277  53.256  1.00  0.00     0.002 C 
HETATM   31  C10 UNL     1      27.113   1.723  52.691  1.00  0.00     0.015 C 
HETATM   32  C11 UNL     1      26.962   0.532  52.206  1.00  0.00     0.011 C 
BRANCH  29  33
HETATM   33  O2  UNL     1      26.393  -1.681  52.549  1.00  0.00    -0.359 OA
HETATM   34  H11 UNL     1      25.848  -2.390  53.023  1.00  0.00     0.217 HD
ENDBRANCH  29  33
ENDBRANCH   6  26
TORSDOF 5
ENDMDL
MODEL 4
REMARK VINA RESULT:      -8.9      4.030      7.430
REMARK  5 active torsions:
REMARK  status: ('A' for Active; 'I' for Inactive)
REMARK       I    between atoms: N1_5  and  C5_6 
REMARK    1  A    between atoms: C5_6  and  C6_8 
REMARK    2  A    between atoms: C12_14  and  O2_15 
REMARK    3  A    between atoms: C16_19  and  N2_20 
REMARK    4  A    between atoms: N2_20  and  C17_21 
REMARK    5  A    between atoms: C20_25  and  C21_26 
ROOT
HETATM    1  C1  UNL     1      23.775   4.900  51.541  1.00  0.00     0.050 C 
HETATM    2  C2  UNL     1      22.599   4.039  51.183  1.00  0.00    -0.037 C 
HETATM    3  C3  UNL     1      21.418   4.554  51.486  1.00  0.00     0.002 C 
HETATM    4  C4  UNL     1      19.983   4.266  51.415  1.00  0.00     0.154 C 
HETATM    5  N1  UNL     1      19.665   3.678  50.126  1.00  0.00    -0.345 N 
HETATM    6  C5  UNL     1      18.259   3.424  49.934  1.00  0.00     0.244 C 
HETATM    7  O1  UNL     1      17.939   2.914  48.830  1.00  0.00    -0.268 OA
HETATM    8  C13 UNL     1      20.476   3.285  48.974  1.00  0.00     0.130 C 
HETATM    9  C14 UNL     1      20.997   1.867  49.175  1.00  0.00     0.049 C 
HETATM   10  C15 UNL     1      22.369   1.924  49.770  1.00  0.00     0.005 C 
HETATM   11  C16 UNL     1      22.996   2.780  50.560  1.00  0.00     0.051 C 
ENDROOT
BRANCH  11  12
HETATM   12  N2  UNL     1      24.331   2.415  50.877  1.00  0.00    -0.188 N 
HETATM   13  H17 UNL     1      25.216   2.809  50.506  1.00  0.00     0.184 HD
BRANCH  12  14
HETATM   14  C17 UNL     1      24.435   1.354  51.847  1.00  0.00     0.727 A 
HETATM   15  N3  UNL     1      23.369   1.003  52.598  1.00  0.00    -0.075 NA
HETATM   16  C18 UNL     1      23.456   0.001  53.517  1.00  0.00     0.139 A 
HETATM   17  C19 UNL     1      24.661  -0.654  53.669  1.00  0.00     0.053 A 
HETATM   18  C20 UNL     1      25.753  -0.299  52.905  1.00  0.00     0.089 A 
HETATM   19  N5  UNL     1      25.604   0.682  52.029  1.00  0.00    -0.062 NA
BRANCH  18  20
HETATM   20  C21 UNL     1      27.052  -0.952  53.017  1.00  0.00     0.011 A 
HETATM   21  C22 UNL     1      28.134  -0.155  53.334  1.00  0.00     0.017 A 
HETATM   22  C23 UNL     1      29.377  -0.767  53.443  1.00  0.00     0.020 A 
HETATM   23  C24 UNL     1      29.589  -2.110  53.255  1.00  0.00     0.116 A 
HETATM   24  N4  UNL     1      28.499  -2.847  52.948  1.00  0.00    -0.272 NA
HETATM   25  C25 UNL     1      27.272  -2.294  52.831  1.00  0.00     0.130 A 
ENDBRANCH  18  20
ENDBRANCH  12  14
ENDBRANCH  11  12
BRANCH   6  26
HETATM   26  C6  UNL     1      17.322   3.759  50.990  1.00  0.00     0.088 C 
HETATM   27  C7  UNL     1      16.408   2.975  51.519  1.00  0.00     0.003 C 
HETATM   28  C8  UNL     1      16.100   1.589  51.192  1.00  0.00     0.014 C 
HETATM   29  C12 UNL     1      15.523   3.468  52.593  1.00  0.00     0.087 C 
HETATM   30  C9  UNL     1      15.139   0.936  51.825  1.00  0.00     0.002 C 
HETATM   31  C10 UNL     1      14.330   1.534  52.874  1.00  0.00     0.015 C 
HETATM   32  C11 UNL     1      14.451   2.821  52.948  1.00  0.00     0.011 C 
BRANCH  29  33
HETATM   33  O2  UNL     1      15.814   4.659  53.271  1.00  0.00    -0.359 OA
HETATM   34  H11 UNL     1      15.404   5.544  53.002  1.00  0.00     0.217 HD
ENDBRANCH  29  33
ENDBRANCH   6  26
TORSDOF 5
ENDMDL
MODEL 5
REMARK VINA RESULT:      -8.8      3.133      8.794
REMARK  5 active torsions:
REMARK  status: ('A' for Active; 'I' for Inactive)
REMARK       I    between atoms: N1_5  and  C5_6 
REMARK    1  A    between atoms: C5_6  and  C6_8 
REMARK    2  A    between atoms: C12_14  and  O2_15 
REMARK    3  A    between atoms: C16_19  and  N2_20 
REMARK    4  A    between atoms: N2_20  and  C17_21 
REMARK    5  A    between atoms: C20_25  and  C21_26 
ROOT
HETATM    1  C1  UNL     1      21.656   7.026  51.198  1.00  0.00     0.050 C 
HETATM    2  C2  UNL     1      22.102   5.607  51.006  1.00  0.00    -0.037 C 
HETATM    3  C3  UNL     1      21.246   4.691  51.428  1.00  0.00     0.002 C 
HETATM    4  C4  UNL     1      21.070   3.240  51.533  1.00  0.00     0.154 C 
HETATM    5  N1  UNL     1      21.521   2.602  50.308  1.00  0.00    -0.345 N 
HETATM    6  C5  UNL     1      21.320   1.174  50.289  1.00  0.00     0.244 C 
HETATM    7  O1  UNL     1      21.697   0.582  49.246  1.00  0.00    -0.268 OA
HETATM    8  C13 UNL     1      22.139   3.106  49.083  1.00  0.00     0.130 C 
HETATM    9  C14 UNL     1      23.650   3.180  49.266  1.00  0.00     0.049 C 
HETATM   10  C15 UNL     1      24.030   4.562  49.695  1.00  0.00     0.005 C 
HETATM   11  C16 UNL     1      23.418   5.514  50.380  1.00  0.00     0.051 C 
ENDROOT
BRANCH  11  12
HETATM   12  N2  UNL     1      24.185   6.697  50.551  1.00  0.00    -0.188 N 
HETATM   13  H17 UNL     1      24.278   7.292  51.395  1.00  0.00     0.184 HD
BRANCH  12  14
HETATM   14  C17 UNL     1      24.922   7.094  49.377  1.00  0.00     0.727 A 
HETATM   15  N3  UNL     1      24.286   7.646  48.321  1.00  0.00    -0.075 NA
HETATM   16  C18 UNL     1      24.972   8.025  47.207  1.00  0.00     0.139 A 
HETATM   17  C19 UNL     1      26.338   7.834  47.175  1.00  0.00     0.053 A 
HETATM   18  C20 UNL     1      26.993   7.271  48.251  1.00  0.00     0.089 A 
HETATM   19  N5  UNL     1      26.269   6.924  49.304  1.00  0.00    -0.062 NA
BRANCH  18  20
HETATM   20  C21 UNL     1      28.433   7.043  48.280  1.00  0.00     0.011 A 
HETATM   21  C22 UNL     1      28.872   5.749  48.090  1.00  0.00     0.017 A 
HETATM   22  C23 UNL     1      30.243   5.521  48.116  1.00  0.00     0.020 A 
HETATM   23  C24 UNL     1      31.179   6.504  48.319  1.00  0.00     0.116 A 
HETATM   24  N4  UNL     1      30.699   7.754  48.498  1.00  0.00    -0.272 NA
HETATM   25  C25 UNL     1      29.375   8.021  48.482  1.00  0.00     0.130 A 
ENDBRANCH  18  20
ENDBRANCH  12  14
ENDBRANCH  11  12
BRANCH   6  26
HETATM   26  C6  UNL     1      20.716   0.522  51.435  1.00  0.00     0.088 C 
HETATM   27  C7  UNL     1      21.335   0.014  52.478  1.00  0.00     0.003 C 
HETATM   28  C8  UNL     1      22.765  -0.026  52.755  1.00  0.00     0.014 C 
HETATM   29  C12 UNL     1      20.574  -0.622  53.571  1.00  0.00     0.087 C 
HETATM   30  C9  UNL     1      23.231  -0.580  53.863  1.00  0.00     0.002 C 
HETATM   31  C10 UNL     1      22.373  -1.179  54.872  1.00  0.00     0.015 C 
HETATM   32  C11 UNL     1      21.155  -1.359  54.472  1.00  0.00     0.011 C 
BRANCH  29  33
HETATM   33  O2  UNL     1      19.187  -0.450  53.672  1.00  0.00    -0.359 OA
HETATM   34  H11 UNL     1      18.728   0.400  53.370  1.00  0.00     0.217 HD
ENDBRANCH  29  33
ENDBRANCH   6  26
TORSDOF 5
ENDMDL
MODEL 6
REMARK VINA RESULT:      -8.7      1.823      2.998
REMARK  5 active torsions:
REMARK  status: ('A' for Active; 'I' for Inactive)
REMARK       I    between atoms: N1_5  and  C5_6 
REMARK    1  A    between atoms: C5_6  and  C6_8 
REMARK    2  A    between atoms: C12_14  and  O2_15 
REMARK    3  A    between atoms: C16_19  and  N2_20 
REMARK    4  A    between atoms: N2_20  and  C17_21 
REMARK    5  A    between atoms: C20_25  and  C21_26 
ROOT
HETATM    1  C1  UNL     1      22.987   4.951  52.884  1.00  0.00     0.050 C 
HETATM    2  C2  UNL     1      23.692   4.838  51.564  1.00  0.00    -0.037 C 
HETATM    3  C3  UNL     1      24.272   5.950  51.144  1.00  0.00     0.002 C 
HETATM    4  C4  UNL     1      25.061   6.491  50.034  1.00  0.00     0.154 C 
HETATM    5  N1  UNL     1      26.076   5.529  49.642  1.00  0.00    -0.345 N 
HETATM    6  C5  UNL     1      26.952   6.001  48.599  1.00  0.00     0.244 C 
HETATM    7  O1  UNL     1      27.847   5.198  48.229  1.00  0.00    -0.268 OA
HETATM    8  C13 UNL     1      26.398   4.173  50.084  1.00  0.00     0.130 C 
HETATM    9  C14 UNL     1      25.551   3.168  49.312  1.00  0.00     0.049 C 
HETATM   10  C15 UNL     1      24.328   2.838  50.107  1.00  0.00     0.005 C 
HETATM   11  C16 UNL     1      23.599   3.498  50.992  1.00  0.00     0.051 C 
ENDROOT
BRANCH  11  12
HETATM   12  N2  UNL     1      22.493   2.766  51.502  1.00  0.00    -0.188 N 
HETATM   13  H17 UNL     1      21.484   3.001  51.455  1.00  0.00     0.184 HD
BRANCH  12  14
HETATM   14  C17 UNL     1      22.856   1.539  52.165  1.00  0.00     0.727 A 
HETATM   15  N3  UNL     1      21.931   0.582  52.393  1.00  0.00    -0.075 NA
HETATM   16  C18 UNL     1      22.264  -0.582  53.018  1.00  0.00     0.139 A 
HETATM   17  C19 UNL     1      23.571  -0.769  53.417  1.00  0.00     0.053 A 
HETATM   18  C20 UNL     1      24.520   0.205  53.186  1.00  0.00     0.089 A 
HETATM   19  N5  UNL     1      24.134   1.314  52.574  1.00  0.00    -0.062 NA
BRANCH  18  20
HETATM   20  C21 UNL     1      25.917   0.070  53.582  1.00  0.00     0.011 A 
HETATM   21  C22 UNL     1      26.740  -0.665  52.753  1.00  0.00     0.017 A 
HETATM   22  C23 UNL     1      28.074  -0.800  53.121  1.00  0.00     0.020 A 
HETATM   23  C24 UNL     1      28.616  -0.248  54.255  1.00  0.00     0.116 A 
HETATM   24  N4  UNL     1      27.769   0.463  55.032  1.00  0.00    -0.272 NA
HETATM   25  C25 UNL     1      26.466   0.620  54.714  1.00  0.00     0.130 A 
ENDBRANCH  18  20
ENDBRANCH  12  14
ENDBRANCH  11  12
BRANCH   6  26
HETATM   26  C6  UNL     1      26.761   7.331  48.052  1.00  0.00     0.088 C 
HETATM   27  C7  UNL     1      27.531   8.382  48.229  1.00  0.00     0.003 C 
HETATM   28  C8  UNL     1      28.759   8.486  49.007  1.00  0.00     0.014 C 
HETATM   29  C12 UNL     1      27.199   9.675  47.601  1.00  0.00     0.087 C 
HETATM   30  C9  UNL     1      29.423   9.629  49.085  1.00  0.00     0.002 C 
HETATM   31  C10 UNL     1      28.990  10.845  48.416  1.00  0.00     0.015 C 
HETATM   32  C11 UNL     1      27.778  10.782  47.964  1.00  0.00     0.011 C 
BRANCH  29  33
HETATM   33  O2  UNL     1      26.239   9.751  46.583  1.00  0.00    -0.359 OA
HETATM   34  H11 UNL     1      26.156  10.562  45.983  1.00  0.00     0.217 HD
ENDBRANCH  29  33
ENDBRANCH   6  26
TORSDOF 5
ENDMDL
MODEL 7
REMARK VINA RESULT:      -8.6      3.833      6.654
REMARK  5 active torsions:
REMARK  status: ('A' for Active; 'I' for Inactive)
REMARK       I    between atoms: N1_5  and  C5_6 
REMARK    1  A    between atoms: C5_6  and  C6_8 
REMARK    2  A    between atoms: C12_14  and  O2_15 
REMARK    3  A    between atoms: C16_19  and  N2_20 
REMARK    4  A    between atoms: N2_20  and  C17_21 
REMARK    5  A    between atoms: C20_25  and  C21_26 
ROOT
HETATM    1  C1  UNL     1      21.692   1.980  47.984  1.00  0.00     0.050 C 
HETATM    2  C2  UNL     1      21.867   2.271  49.446  1.00  0.00    -0.037 C 
HETATM    3  C3  UNL     1      22.944   1.736  49.996  1.00  0.00     0.002 C 
HETATM    4  C4  UNL     1      23.657   1.634  51.272  1.00  0.00     0.154 C 
HETATM    5  N1  UNL     1      23.668   2.928  51.932  1.00  0.00    -0.345 N 
HETATM    6  C5  UNL     1      24.410   2.945  53.167  1.00  0.00     0.244 C 
HETATM    7  O1  UNL     1      24.446   4.047  53.771  1.00  0.00    -0.268 OA
HETATM    8  C13 UNL     1      23.081   4.226  51.604  1.00  0.00     0.130 C 
HETATM    9  C14 UNL     1      21.652   4.289  52.129  1.00  0.00     0.049 C 
HETATM   10  C15 UNL     1      20.706   3.898  51.037  1.00  0.00     0.005 C 
HETATM   11  C16 UNL     1      20.794   3.104  49.983  1.00  0.00     0.051 C 
ENDROOT
BRANCH  11  12
HETATM   12  N2  UNL     1      19.610   3.034  49.202  1.00  0.00    -0.188 N 
HETATM   13  H17 UNL     1      19.482   3.262  48.198  1.00  0.00     0.184 HD
BRANCH  12  14
HETATM   14  C17 UNL     1      18.452   2.581  49.930  1.00  0.00     0.727 A 
HETATM   15  N3  UNL     1      17.295   3.276  49.881  1.00  0.00    -0.075 NA
HETATM   16  C18 UNL     1      16.194   2.856  50.565  1.00  0.00     0.139 A 
HETATM   17  C19 UNL     1      16.281   1.701  51.315  1.00  0.00     0.053 A 
HETATM   18  C20 UNL     1      17.460   0.988  51.367  1.00  0.00     0.089 A 
HETATM   19  N5  UNL     1      18.494   1.447  50.680  1.00  0.00    -0.062 NA
BRANCH  18  20
HETATM   20  C21 UNL     1      17.618  -0.240  52.139  1.00  0.00     0.011 A 
HETATM   21  C22 UNL     1      16.549  -1.112  52.164  1.00  0.00     0.017 A 
HETATM   22  C23 UNL     1      16.688  -2.285  52.897  1.00  0.00     0.020 A 
HETATM   23  C24 UNL     1      17.822  -2.623  53.594  1.00  0.00     0.116 A 
HETATM   24  N4  UNL     1      18.841  -1.736  53.537  1.00  0.00    -0.272 NA
HETATM   25  C25 UNL     1      18.748  -0.584  52.838  1.00  0.00     0.130 A 
ENDBRANCH  18  20
ENDBRANCH  12  14
ENDBRANCH  11  12
BRANCH   6  26
HETATM   26  C6  UNL     1      25.054   1.730  53.631  1.00  0.00     0.088 C 
HETATM   27  C7  UNL     1      26.344   1.516  53.767  1.00  0.00     0.003 C 
HETATM   28  C8  UNL     1      27.449   2.426  53.494  1.00  0.00     0.014 C 
HETATM   29  C12 UNL     1      26.846   0.216  54.254  1.00  0.00     0.087 C 
HETATM   30  C9  UNL     1      28.704   2.053  53.685  1.00  0.00     0.002 C 
HETATM   31  C10 UNL     1      29.075   0.734  54.172  1.00  0.00     0.015 C 
HETATM   32  C11 UNL     1      28.099  -0.117  54.149  1.00  0.00     0.011 C 
BRANCH  29  33
HETATM   33  O2  UNL     1      25.979  -0.708  54.852  1.00  0.00    -0.359 OA
HETATM   34  H11 UNL     1      26.310  -1.418  55.492  1.00  0.00     0.217 HD
ENDBRANCH  29  33
ENDBRANCH   6  26
TORSDOF 5
ENDMDL
MODEL 8
REMARK VINA RESULT:      -8.6      4.268      7.331
REMARK  5 active torsions:
REMARK  status: ('A' for Active; 'I' for Inactive)
REMARK       I    between atoms: N1_5  and  C5_6 
REMARK    1  A    between atoms: C5_6  and  C6_8 
REMARK    2  A    between atoms: C12_14  and  O2_15 
REMARK    3  A    between atoms: C16_19  and  N2_20 
REMARK    4  A    between atoms: N2_20  and  C17_21 
REMARK    5  A    between atoms: C20_25  and  C21_26 
ROOT
HETATM    1  C1  UNL     1      20.501   4.249  51.532  1.00  0.00     0.050 C 
HETATM    2  C2  UNL     1      21.437   3.079  51.600  1.00  0.00    -0.037 C 
HETATM    3  C3  UNL     1      22.510   3.266  52.350  1.00  0.00     0.002 C 
HETATM    4  C4  UNL     1      23.727   2.591  52.810  1.00  0.00     0.154 C 
HETATM    5  N1  UNL     1      23.418   1.219  53.172  1.00  0.00    -0.345 N 
HETATM    6  C5  UNL     1      24.542   0.492  53.706  1.00  0.00     0.244 C 
HETATM    7  O1  UNL     1      24.318  -0.702  54.033  1.00  0.00    -0.268 OA
HETATM    8  C13 UNL     1      22.199   0.414  53.108  1.00  0.00     0.130 C 
HETATM    9  C14 UNL     1      22.077  -0.221  51.728  1.00  0.00     0.049 C 
HETATM   10  C15 UNL     1      21.220   0.644  50.859  1.00  0.00     0.005 C 
HETATM   11  C16 UNL     1      20.970   1.942  50.812  1.00  0.00     0.051 C 
ENDROOT
BRANCH  11  12
HETATM   12  N2  UNL     1      20.064   2.327  49.788  1.00  0.00    -0.188 N 
HETATM   13  H17 UNL     1      20.255   2.863  48.921  1.00  0.00     0.184 HD
BRANCH  12  14
HETATM   14  C17 UNL     1      18.706   1.897  50.014  1.00  0.00     0.727 A 
HETATM   15  N3  UNL     1      17.672   2.579  49.476  1.00  0.00    -0.075 NA
HETATM   16  C18 UNL     1      16.385   2.181  49.683  1.00  0.00     0.139 A 
HETATM   17  C19 UNL     1      16.155   1.062  50.457  1.00  0.00     0.053 A 
HETATM   18  C20 UNL     1      17.208   0.363  51.009  1.00  0.00     0.089 A 
HETATM   19  N5  UNL     1      18.435   0.800  50.771  1.00  0.00    -0.062 NA
BRANCH  18  20
HETATM   20  C21 UNL     1      17.032  -0.825  51.836  1.00  0.00     0.011 A 
HETATM   21  C22 UNL     1      18.066  -1.163  52.684  1.00  0.00     0.017 A 
HETATM   22  C23 UNL     1      17.909  -2.295  53.477  1.00  0.00     0.020 A 
HETATM   23  C24 UNL     1      16.790  -3.090  53.463  1.00  0.00     0.116 A 
HETATM   24  N4  UNL     1      15.806  -2.716  52.616  1.00  0.00    -0.272 NA
HETATM   25  C25 UNL     1      15.916  -1.625  51.828  1.00  0.00     0.130 A 
ENDBRANCH  18  20
ENDBRANCH  12  14
ENDBRANCH  11  12
BRANCH   6  26
HETATM   26  C6  UNL     1      25.827   1.154  53.833  1.00  0.00     0.088 C 
HETATM   27  C7  UNL     1      27.017   0.612  53.696  1.00  0.00     0.003 C 
HETATM   28  C8  UNL     1      27.355  -0.771  53.384  1.00  0.00     0.014 C 
HETATM   29  C12 UNL     1      28.239   1.425  53.857  1.00  0.00     0.087 C 
HETATM   30  C9  UNL     1      28.616  -1.159  53.280  1.00  0.00     0.002 C 
HETATM   31  C10 UNL     1      29.742  -0.257  53.463  1.00  0.00     0.015 C 
HETATM   32  C11 UNL     1      29.412   0.878  53.991  1.00  0.00     0.011 C 
BRANCH  29  33
HETATM   33  O2  UNL     1      28.171   2.824  53.871  1.00  0.00    -0.359 OA
HETATM   34  H11 UNL     1      28.563   3.373  54.625  1.00  0.00     0.217 HD
ENDBRANCH  29  33
ENDBRANCH   6  26
TORSDOF 5
ENDMDL
MODEL 9
REMARK VINA RESULT:      -8.4      5.304      8.693
REMARK  5 active torsions:
REMARK  status: ('A' for Active; 'I' for Inactive)
REMARK       I    between atoms: N1_5  and  C5_6 
REMARK    1  A    between atoms: C5_6  and  C6_8 
REMARK    2  A    between atoms: C12_14  and  O2_15 
REMARK    3  A    between atoms: C16_19  and  N2_20 
REMARK    4  A    between atoms: N2_20  and  C17_21 
REMARK    5  A    between atoms: C20_25  and  C21_26 
ROOT
HETATM    1  C1  UNL     1      20.925   3.720  48.767  1.00  0.00     0.050 C 
HETATM    2  C2  UNL     1      20.143   2.974  49.808  1.00  0.00    -0.037 C 
HETATM    3  C3  UNL     1      19.005   3.545  50.167  1.00  0.00     0.002 C 
HETATM    4  C4  UNL     1      17.856   3.365  51.057  1.00  0.00     0.154 C 
HETATM    5  N1  UNL     1      17.429   1.976  51.032  1.00  0.00    -0.345 N 
HETATM    6  C5  UNL     1      16.256   1.714  51.826  1.00  0.00     0.244 C 
HETATM    7  O1  UNL     1      15.852   0.523  51.832  1.00  0.00    -0.268 OA
HETATM    8  C13 UNL     1      17.944   0.781  50.366  1.00  0.00     0.130 C 
HETATM    9  C14 UNL     1      19.023   0.139  51.230  1.00  0.00     0.049 C 
HETATM   10  C15 UNL     1      20.367   0.625  50.787  1.00  0.00     0.005 C 
HETATM   11  C16 UNL     1      20.804   1.741  50.228  1.00  0.00     0.051 C 
ENDROOT
BRANCH  11  12
HETATM   12  N2  UNL     1      22.202   1.762  49.978  1.00  0.00    -0.188 N 
HETATM   13  H17 UNL     1      22.707   1.517  49.106  1.00  0.00     0.184 HD
BRANCH  12  14
HETATM   14  C17 UNL     1      22.994   2.188  51.104  1.00  0.00     0.727 A 
HETATM   15  N3  UNL     1      22.753   3.374  51.704  1.00  0.00    -0.075 NA
HETATM   16  C18 UNL     1      23.495   3.786  52.769  1.00  0.00     0.139 A 
HETATM   17  C19 UNL     1      24.504   2.965  53.230  1.00  0.00     0.053 A 
HETATM   18  C20 UNL     1      24.754   1.753  52.621  1.00  0.00     0.089 A 
HETATM   19  N5  UNL     1      23.998   1.410  51.590  1.00  0.00    -0.062 NA
BRANCH  18  20
HETATM   20  C21 UNL     1      25.804   0.840  53.059  1.00  0.00     0.011 A 
HETATM   21  C22 UNL     1      26.369   0.022  52.102  1.00  0.00     0.017 A 
HETATM   22  C23 UNL     1      27.371  -0.852  52.509  1.00  0.00     0.020 A 
HETATM   23  C24 UNL     1      27.827  -0.947  53.801  1.00  0.00     0.116 A 
HETATM   24  N4  UNL     1      27.243  -0.124  54.699  1.00  0.00    -0.272 NA
HETATM   25  C25 UNL     1      26.265   0.740  54.348  1.00  0.00     0.130 A 
ENDBRANCH  18  20
ENDBRANCH  12  14
ENDBRANCH  11  12
BRANCH   6  26
HETATM   26  C6  UNL     1      15.625   2.801  52.551  1.00  0.00     0.088 C 
HETATM   27  C7  UNL     1      14.386   2.851  52.989  1.00  0.00     0.003 C 
HETATM   28  C8  UNL     1      13.339   1.847  52.865  1.00  0.00     0.014 C 
HETATM   29  C12 UNL     1      13.890   4.037  53.715  1.00  0.00     0.087 C 
HETATM   30  C9  UNL     1      12.131   2.054  53.367  1.00  0.00     0.002 C 
HETATM   31  C10 UNL     1      11.761   3.274  54.066  1.00  0.00     0.015 C 
HETATM   32  C11 UNL     1      12.621   4.231  53.924  1.00  0.00     0.011 C 
BRANCH  29  33
HETATM   33  O2  UNL     1      14.781   5.000  54.206  1.00  0.00    -0.359 OA
HETATM   34  H11 UNL     1      15.328   4.847  55.044  1.00  0.00     0.217 HD
ENDBRANCH  29  33
ENDBRANCH   6  26
TORSDOF 5
ENDMDL
