MODEL 1
REMARK VINA RESULT:      -7.8      0.000      0.000
REMARK  1 active torsions:
REMARK  status: ('A' for Active; 'I' for Inactive)
REMARK    1  A    between atoms: C2_2  and  N1_3 
ROOT
HETATM    1  N1  UNL     1      24.710  -0.507  54.322  1.00  0.00    -0.325 N 
HETATM    2  C3  UNL     1      24.499  -1.250  55.418  1.00  0.00     0.211 A 
HETATM    3  N2  UNL     1      23.168  -1.436  55.364  1.00  0.00    -0.242 NA
HETATM    4  C4  UNL     1      22.592  -0.850  54.309  1.00  0.00     0.106 A 
HETATM    5  C5  UNL     1      23.618  -0.223  53.601  1.00  0.00     0.153 A 
HETATM    6  N3  UNL     1      23.637   0.499  52.495  1.00  0.00    -0.271 NA
HETATM    7  C6  UNL     1      22.417   0.740  51.805  1.00  0.00     0.156 C 
HETATM    8  C7  UNL     1      21.667   1.862  52.466  1.00  0.00     0.069 C 
HETATM    9  C8  UNL     1      20.249   1.968  51.962  1.00  0.00     0.092 C 
HETATM   10  N4  UNL     1      19.989   0.818  52.383  1.00  0.00    -0.261 NA
HETATM   11  C9  UNL     1      18.852   0.085  52.338  1.00  0.00     0.104 A 
HETATM   12  C10 UNL     1      17.752   0.186  51.559  1.00  0.00     0.065 A 
HETATM   13 CL1  UNL     1      17.753   1.492  50.409  1.00  0.00    -0.082 Cl
HETATM   14  C11 UNL     1      16.764  -0.745  51.761  1.00  0.00     0.026 A 
HETATM   15  C12 UNL     1      16.770  -1.774  52.672  1.00  0.00     0.004 A 
HETATM   16  C13 UNL     1      17.885  -1.880  53.467  1.00  0.00     0.031 A 
HETATM   17  C14 UNL     1      18.914  -0.950  53.291  1.00  0.00     0.059 A 
HETATM   18  N5  UNL     1      20.003  -1.192  54.195  1.00  0.00    -0.375 N 
HETATM   19  C15 UNL     1      21.341  -1.214  54.562  1.00  0.00     0.166 C 
HETATM   20  H15 UNL     1      19.763  -1.570  55.170  1.00  0.00     0.160 HD
ENDROOT
BRANCH   1  21
HETATM   21  C2  UNL     1      26.068  -0.058  53.979  1.00  0.00     0.127 C 
HETATM   22  C1  UNL     1      26.768  -1.050  53.102  1.00  0.00     0.027 C 
ENDBRANCH   1  21
TORSDOF 1
ENDMDL
MODEL 2
REMARK VINA RESULT:      -7.5      2.756      4.697
REMARK  1 active torsions:
REMARK  status: ('A' for Active; 'I' for Inactive)
REMARK    1  A    between atoms: C2_2  and  N1_3 
ROOT
HETATM    1  N1  UNL     1      28.142   0.803  53.876  1.00  0.00    -0.325 N 
HETATM    2  C3  UNL     1      28.608   1.812  53.124  1.00  0.00     0.211 A 
HETATM    3  N2  UNL     1      27.468   2.331  52.636  1.00  0.00    -0.242 NA
HETATM    4  C4  UNL     1      26.370   1.691  53.054  1.00  0.00     0.106 A 
HETATM    5  C5  UNL     1      26.810   0.662  53.887  1.00  0.00     0.153 A 
HETATM    6  N3  UNL     1      26.178  -0.277  54.567  1.00  0.00    -0.271 NA
HETATM    7  C6  UNL     1      24.759  -0.335  54.511  1.00  0.00     0.156 C 
HETATM    8  C7  UNL     1      24.324  -1.025  53.249  1.00  0.00     0.069 C 
HETATM    9  C8  UNL     1      22.845  -0.860  52.995  1.00  0.00     0.092 C 
HETATM   10  N4  UNL     1      22.974   0.383  52.919  1.00  0.00    -0.261 NA
HETATM   11  C9  UNL     1      22.068   1.364  52.695  1.00  0.00     0.104 A 
HETATM   12  C10 UNL     1      20.722   1.383  52.813  1.00  0.00     0.065 A 
HETATM   13 CL1  UNL     1      19.983  -0.108  53.325  1.00  0.00    -0.082 Cl
HETATM   14  C11 UNL     1      20.092   2.567  52.519  1.00  0.00     0.026 A 
HETATM   15  C12 UNL     1      20.683   3.740  52.116  1.00  0.00     0.004 A 
HETATM   16  C13 UNL     1      22.051   3.725  51.993  1.00  0.00     0.031 A 
HETATM   17  C14 UNL     1      22.729   2.538  52.284  1.00  0.00     0.059 A 
HETATM   18  N5  UNL     1      24.146   2.683  52.105  1.00  0.00    -0.375 N 
HETATM   19  C15 UNL     1      25.475   2.428  52.408  1.00  0.00     0.166 C 
HETATM   20  H15 UNL     1      24.482   3.330  51.318  1.00  0.00     0.160 HD
ENDROOT
BRANCH   1  21
HETATM   21  C2  UNL     1      29.072  -0.064  54.616  1.00  0.00     0.127 C 
HETATM   22  C1  UNL     1      29.835  -0.963  53.691  1.00  0.00     0.027 C 
ENDBRANCH   1  21
TORSDOF 1
ENDMDL
MODEL 3
REMARK VINA RESULT:      -7.5      1.780      2.627
REMARK  1 active torsions:
REMARK  status: ('A' for Active; 'I' for Inactive)
REMARK    1  A    between atoms: C2_2  and  N1_3 
ROOT
HETATM    1  N1  UNL     1      27.213   0.580  53.657  1.00  0.00    -0.325 N 
HETATM    2  C3  UNL     1      27.315  -0.188  54.751  1.00  0.00     0.211 A 
HETATM    3  N2  UNL     1      26.032  -0.531  54.960  1.00  0.00    -0.242 NA
HETATM    4  C4  UNL     1      25.190  -0.013  54.058  1.00  0.00     0.106 A 
HETATM    5  C5  UNL     1      25.971   0.736  53.178  1.00  0.00     0.153 A 
HETATM    6  N3  UNL     1      25.682   1.460  52.113  1.00  0.00    -0.271 NA
HETATM    7  C6  UNL     1      24.328   1.557  51.688  1.00  0.00     0.156 C 
HETATM    8  C7  UNL     1      23.603   2.578  52.519  1.00  0.00     0.069 C 
HETATM    9  C8  UNL     1      22.109   2.517  52.313  1.00  0.00     0.092 C 
HETATM   10  N4  UNL     1      22.075   1.342  52.744  1.00  0.00    -0.261 NA
HETATM   11  C9  UNL     1      21.046   0.478  52.906  1.00  0.00     0.104 A 
HETATM   12  C10 UNL     1      19.806   0.451  52.367  1.00  0.00     0.065 A 
HETATM   13 CL1  UNL     1      19.423   1.753  51.278  1.00  0.00    -0.082 Cl
HETATM   14  C11 UNL     1      18.995  -0.593  52.736  1.00  0.00     0.026 A 
HETATM   15  C12 UNL     1      19.305  -1.619  53.597  1.00  0.00     0.004 A 
HETATM   16  C13 UNL     1      20.562  -1.594  54.148  1.00  0.00     0.031 A 
HETATM   17  C14 UNL     1      21.419  -0.547  53.797  1.00  0.00     0.059 A 
HETATM   18  N5  UNL     1      22.689  -0.662  54.456  1.00  0.00    -0.375 N 
HETATM   19  C15 UNL     1      24.067  -0.525  54.546  1.00  0.00     0.166 C 
HETATM   20  H15 UNL     1      22.697  -1.070  55.449  1.00  0.00     0.160 HD
ENDROOT
BRANCH   1  21
HETATM   21  C2  UNL     1      28.411   1.191  53.061  1.00  0.00     0.127 C 
HETATM   22  C1  UNL     1      28.762   2.480  53.738  1.00  0.00     0.027 C 
ENDBRANCH   1  21
TORSDOF 1
ENDMDL
MODEL 4
REMARK VINA RESULT:      -7.2      4.265      6.915
REMARK  1 active torsions:
REMARK  status: ('A' for Active; 'I' for Inactive)
REMARK    1  A    between atoms: C2_2  and  N1_3 
ROOT
HETATM    1  N1  UNL     1      24.832  -0.244  53.566  1.00  0.00    -0.325 N 
HETATM    2  C3  UNL     1      26.035  -0.777  53.308  1.00  0.00     0.211 A 
HETATM    3  N2  UNL     1      26.504   0.061  52.368  1.00  0.00    -0.242 NA
HETATM    4  C4  UNL     1      25.653   1.047  52.062  1.00  0.00     0.106 A 
HETATM    5  C5  UNL     1      24.525   0.852  52.861  1.00  0.00     0.153 A 
HETATM    6  N3  UNL     1      23.384   1.506  52.980  1.00  0.00    -0.271 NA
HETATM    7  C6  UNL     1      23.163   2.662  52.182  1.00  0.00     0.156 C 
HETATM    8  C7  UNL     1      22.728   2.255  50.802  1.00  0.00     0.069 C 
HETATM    9  C8  UNL     1      22.759   3.414  49.835  1.00  0.00     0.092 C 
HETATM   10  N4  UNL     1      23.993   3.548  50.000  1.00  0.00    -0.261 NA
HETATM   11  C9  UNL     1      24.876   4.422  49.465  1.00  0.00     0.104 A 
HETATM   12  C10 UNL     1      24.698   5.619  48.862  1.00  0.00     0.065 A 
HETATM   13 CL1  UNL     1      23.050   6.156  48.712  1.00  0.00    -0.082 Cl
HETATM   14  C11 UNL     1      25.829   6.272  48.438  1.00  0.00     0.026 A 
HETATM   15  C12 UNL     1      27.129   5.841  48.560  1.00  0.00     0.004 A 
HETATM   16  C13 UNL     1      27.314   4.625  49.170  1.00  0.00     0.031 A 
HETATM   17  C14 UNL     1      26.187   3.929  49.617  1.00  0.00     0.059 A 
HETATM   18  N5  UNL     1      26.546   2.680  50.227  1.00  0.00    -0.375 N 
HETATM   19  C15 UNL     1      26.399   1.651  51.145  1.00  0.00     0.166 C 
HETATM   20  H15 UNL     1      27.392   2.157  49.824  1.00  0.00     0.160 HD
ENDROOT
BRANCH   1  21
HETATM   21  C2  UNL     1      23.943  -0.861  54.564  1.00  0.00     0.127 C 
HETATM   22  C1  UNL     1      24.688  -1.219  55.813  1.00  0.00     0.027 C 
ENDBRANCH   1  21
TORSDOF 1
ENDMDL
MODEL 5
REMARK VINA RESULT:      -7.1      3.527      5.173
REMARK  1 active torsions:
REMARK  status: ('A' for Active; 'I' for Inactive)
REMARK    1  A    between atoms: C2_2  and  N1_3 
ROOT
HETATM    1  N1  UNL     1      24.179   4.735  49.721  1.00  0.00    -0.325 N 
HETATM    2  C3  UNL     1      23.492   4.779  48.570  1.00  0.00     0.211 A 
HETATM    3  N2  UNL     1      22.549   3.846  48.785  1.00  0.00    -0.242 NA
HETATM    4  C4  UNL     1      22.642   3.262  49.986  1.00  0.00     0.106 A 
HETATM    5  C5  UNL     1      23.734   3.851  50.624  1.00  0.00     0.153 A 
HETATM    6  N3  UNL     1      24.290   3.669  51.807  1.00  0.00    -0.271 NA
HETATM    7  C6  UNL     1      23.734   2.704  52.691  1.00  0.00     0.156 C 
HETATM    8  C7  UNL     1      24.209   1.329  52.312  1.00  0.00     0.069 C 
HETATM    9  C8  UNL     1      23.433   0.247  53.022  1.00  0.00     0.092 C 
HETATM   10  N4  UNL     1      22.369   0.623  52.481  1.00  0.00    -0.261 NA
HETATM   11  C9  UNL     1      21.102   0.158  52.581  1.00  0.00     0.104 A 
HETATM   12  C10 UNL     1      20.503  -0.615  53.515  1.00  0.00     0.065 A 
HETATM   13 CL1  UNL     1      21.515  -1.140  54.829  1.00  0.00    -0.082 Cl
HETATM   14  C11 UNL     1      19.173  -0.897  53.323  1.00  0.00     0.026 A 
HETATM   15  C12 UNL     1      18.380  -0.478  52.282  1.00  0.00     0.004 A 
HETATM   16  C13 UNL     1      18.984   0.306  51.330  1.00  0.00     0.031 A 
HETATM   17  C14 UNL     1      20.339   0.616  51.490  1.00  0.00     0.059 A 
HETATM   18  N5  UNL     1      20.821   1.436  50.415  1.00  0.00    -0.375 N 
HETATM   19  C15 UNL     1      21.613   2.433  49.863  1.00  0.00     0.166 C 
HETATM   20  H15 UNL     1      20.406   1.270  49.440  1.00  0.00     0.160 HD
ENDROOT
BRANCH   1  21
HETATM   21  C2  UNL     1      25.339   5.617  49.929  1.00  0.00     0.127 C 
HETATM   22  C1  UNL     1      26.460   5.276  48.995  1.00  0.00     0.027 C 
ENDBRANCH   1  21
TORSDOF 1
ENDMDL
MODEL 6
REMARK VINA RESULT:      -7.0      3.645      6.109
REMARK  1 active torsions:
REMARK  status: ('A' for Active; 'I' for Inactive)
REMARK    1  A    between atoms: C2_2  and  N1_3 
ROOT
HETATM    1  N1  UNL     1      21.650   5.928  50.928  1.00  0.00    -0.325 N 
HETATM    2  C3  UNL     1      20.449   5.699  50.376  1.00  0.00     0.211 A 
HETATM    3  N2  UNL     1      20.228   4.422  50.733  1.00  0.00    -0.242 NA
HETATM    4  C4  UNL     1      21.221   3.893  51.457  1.00  0.00     0.106 A 
HETATM    5  C5  UNL     1      22.183   4.894  51.594  1.00  0.00     0.153 A 
HETATM    6  N3  UNL     1      23.358   4.937  52.195  1.00  0.00    -0.271 NA
HETATM    7  C6  UNL     1      23.828   3.782  52.877  1.00  0.00     0.156 C 
HETATM    8  C7  UNL     1      24.422   2.813  51.893  1.00  0.00     0.069 C 
HETATM    9  C8  UNL     1      24.672   1.460  52.512  1.00  0.00     0.092 C 
HETATM   10  N4  UNL     1      23.450   1.316  52.746  1.00  0.00    -0.261 NA
HETATM   11  C9  UNL     1      22.763   0.305  53.327  1.00  0.00     0.104 A 
HETATM   12  C10 UNL     1      23.165  -0.704  54.132  1.00  0.00     0.065 A 
HETATM   13 CL1  UNL     1      24.866  -0.754  54.494  1.00  0.00    -0.082 Cl
HETATM   14  C11 UNL     1      22.193  -1.569  54.571  1.00  0.00     0.026 A 
HETATM   15  C12 UNL     1      20.851  -1.522  54.279  1.00  0.00     0.004 A 
HETATM   16  C13 UNL     1      20.438  -0.500  53.461  1.00  0.00     0.031 A 
HETATM   17  C14 UNL     1      21.398   0.403  52.993  1.00  0.00     0.059 A 
HETATM   18  N5  UNL     1      20.812   1.406  52.150  1.00  0.00    -0.375 N 
HETATM   19  C15 UNL     1      20.699   2.684  51.622  1.00  0.00     0.166 C 
HETATM   20  H15 UNL     1      19.985   1.112  51.532  1.00  0.00     0.160 HD
ENDROOT
BRANCH   1  21
HETATM   21  C2  UNL     1      22.299   7.240  50.781  1.00  0.00     0.127 C 
HETATM   22  C1  UNL     1      21.976   7.865  49.459  1.00  0.00     0.027 C 
ENDBRANCH   1  21
TORSDOF 1
ENDMDL
MODEL 7
REMARK VINA RESULT:      -6.9      4.738      7.693
REMARK  1 active torsions:
REMARK  status: ('A' for Active; 'I' for Inactive)
REMARK    1  A    between atoms: C2_2  and  N1_3 
ROOT
HETATM    1  N1  UNL     1      24.843   6.018  48.549  1.00  0.00    -0.325 N 
HETATM    2  C3  UNL     1      26.169   6.184  48.431  1.00  0.00     0.211 A 
HETATM    3  N2  UNL     1      26.634   5.176  49.188  1.00  0.00    -0.242 NA
HETATM    4  C4  UNL     1      25.666   4.434  49.740  1.00  0.00     0.106 A 
HETATM    5  C5  UNL     1      24.458   4.990  49.318  1.00  0.00     0.153 A 
HETATM    6  N3  UNL     1      23.196   4.681  49.549  1.00  0.00    -0.271 NA
HETATM    7  C6  UNL     1      22.899   3.566  50.380  1.00  0.00     0.156 C 
HETATM    8  C7  UNL     1      23.016   3.959  51.826  1.00  0.00     0.069 C 
HETATM    9  C8  UNL     1      22.997   2.759  52.741  1.00  0.00     0.092 C 
HETATM   10  N4  UNL     1      24.040   2.311  52.213  1.00  0.00    -0.261 NA
HETATM   11  C9  UNL     1      24.757   1.190  52.460  1.00  0.00     0.104 A 
HETATM   12  C10 UNL     1      24.432   0.041  53.091  1.00  0.00     0.065 A 
HETATM   13 CL1  UNL     1      22.816  -0.043  53.732  1.00  0.00    -0.082 Cl
HETATM   14  C11 UNL     1      25.406  -0.926  53.157  1.00  0.00     0.026 A 
HETATM   15  C12 UNL     1      26.680  -0.852  52.648  1.00  0.00     0.004 A 
HETATM   16  C13 UNL     1      27.016   0.315  52.007  1.00  0.00     0.031 A 
HETATM   17  C14 UNL     1      26.051   1.324  51.919  1.00  0.00     0.059 A 
HETATM   18  N5  UNL     1      26.555   2.475  51.225  1.00  0.00    -0.375 N 
HETATM   19  C15 UNL     1      26.444   3.578  50.392  1.00  0.00     0.166 C 
HETATM   20  H15 UNL     1      27.593   2.716  51.353  1.00  0.00     0.160 HD
ENDROOT
BRANCH   1  21
HETATM   21  C2  UNL     1      23.915   6.931  47.864  1.00  0.00     0.127 C 
HETATM   22  C1  UNL     1      24.643   8.077  47.231  1.00  0.00     0.027 C 
ENDBRANCH   1  21
TORSDOF 1
ENDMDL
MODEL 8
REMARK VINA RESULT:      -6.8      6.282      8.877
REMARK  1 active torsions:
REMARK  status: ('A' for Active; 'I' for Inactive)
REMARK    1  A    between atoms: C2_2  and  N1_3 
ROOT
HETATM    1  N1  UNL     1      24.364   1.951  52.217  1.00  0.00    -0.325 N 
HETATM    2  C3  UNL     1      25.402   1.112  52.082  1.00  0.00     0.211 A 
HETATM    3  N2  UNL     1      26.189   1.792  51.231  1.00  0.00    -0.242 NA
HETATM    4  C4  UNL     1      25.678   2.972  50.862  1.00  0.00     0.106 A 
HETATM    5  C5  UNL     1      24.452   3.090  51.517  1.00  0.00     0.153 A 
HETATM    6  N3  UNL     1      23.523   4.029  51.525  1.00  0.00    -0.271 NA
HETATM    7  C6  UNL     1      23.719   5.202  50.746  1.00  0.00     0.156 C 
HETATM    8  C7  UNL     1      23.361   4.930  49.312  1.00  0.00     0.069 C 
HETATM    9  C8  UNL     1      23.819   6.038  48.395  1.00  0.00     0.092 C 
HETATM   10  N4  UNL     1      25.014   5.832  48.706  1.00  0.00    -0.261 NA
HETATM   11  C9  UNL     1      26.159   6.434  48.306  1.00  0.00     0.104 A 
HETATM   12  C10 UNL     1      26.384   7.635  47.727  1.00  0.00     0.065 A 
HETATM   13 CL1  UNL     1      24.972   8.599  47.406  1.00  0.00    -0.082 Cl
HETATM   14  C11 UNL     1      27.691   7.956  47.459  1.00  0.00     0.026 A 
HETATM   15  C12 UNL     1      28.802   7.188  47.717  1.00  0.00     0.004 A 
HETATM   16  C13 UNL     1      28.578   5.967  48.303  1.00  0.00     0.031 A 
HETATM   17  C14 UNL     1      27.259   5.603  48.592  1.00  0.00     0.059 A 
HETATM   18  N5  UNL     1      27.192   4.303  49.198  1.00  0.00    -0.375 N 
HETATM   19  C15 UNL     1      26.664   3.352  50.058  1.00  0.00     0.166 C 
HETATM   20  H15 UNL     1      27.909   3.570  48.879  1.00  0.00     0.160 HD
ENDROOT
BRANCH   1  21
HETATM   21  C2  UNL     1      23.229   1.598  53.083  1.00  0.00     0.127 C 
HETATM   22  C1  UNL     1      22.635   0.279  52.696  1.00  0.00     0.027 C 
ENDBRANCH   1  21
TORSDOF 1
ENDMDL
MODEL 9
REMARK VINA RESULT:      -6.7      3.834      7.160
REMARK  1 active torsions:
REMARK  status: ('A' for Active; 'I' for Inactive)
REMARK    1  A    between atoms: C2_2  and  N1_3 
ROOT
HETATM    1  N1  UNL     1      21.418   6.502  50.274  1.00  0.00    -0.325 N 
HETATM    2  C3  UNL     1      22.450   7.282  50.629  1.00  0.00     0.211 A 
HETATM    3  N2  UNL     1      23.225   6.414  51.301  1.00  0.00    -0.242 NA
HETATM    4  C4  UNL     1      22.712   5.179  51.361  1.00  0.00     0.106 A 
HETATM    5  C5  UNL     1      21.498   5.226  50.675  1.00  0.00     0.153 A 
HETATM    6  N3  UNL     1      20.573   4.319  50.420  1.00  0.00    -0.271 NA
HETATM    7  C6  UNL     1      20.759   2.990  50.892  1.00  0.00     0.156 C 
HETATM    8  C7  UNL     1      20.375   2.903  52.342  1.00  0.00     0.069 C 
HETATM    9  C8  UNL     1      20.821   1.605  52.968  1.00  0.00     0.092 C 
HETATM   10  N4  UNL     1      22.020   1.879  52.739  1.00  0.00    -0.261 NA
HETATM   11  C9  UNL     1      23.160   1.197  53.000  1.00  0.00     0.104 A 
HETATM   12  C10 UNL     1      23.379  -0.109  53.272  1.00  0.00     0.065 A 
HETATM   13 CL1  UNL     1      21.965  -1.122  53.321  1.00  0.00    -0.082 Cl
HETATM   14  C11 UNL     1      24.683  -0.487  53.476  1.00  0.00     0.026 A 
HETATM   15  C12 UNL     1      25.795   0.319  53.435  1.00  0.00     0.004 A 
HETATM   16  C13 UNL     1      25.577   1.647  53.161  1.00  0.00     0.031 A 
HETATM   17  C14 UNL     1      24.262   2.072  52.946  1.00  0.00     0.059 A 
HETATM   18  N5  UNL     1      24.201   3.480  52.676  1.00  0.00    -0.375 N 
HETATM   19  C15 UNL     1      23.684   4.614  52.066  1.00  0.00     0.166 C 
HETATM   20  H15 UNL     1      24.909   4.112  53.178  1.00  0.00     0.160 HD
ENDROOT
BRANCH   1  21
HETATM   21  C2  UNL     1      20.297   7.057  49.500  1.00  0.00     0.127 C 
HETATM   22  C1  UNL     1      20.065   8.500  49.831  1.00  0.00     0.027 C 
ENDBRANCH   1  21
TORSDOF 1
ENDMDL
