MODEL 1
REMARK VINA RESULT:      -9.4      0.000      0.000
REMARK  1 active torsions:
REMARK  status: ('A' for Active; 'I' for Inactive)
REMARK    1  A    between atoms: N2_12  and  C10_13 
ROOT
HETATM    1  C1  UNL     1      21.893   5.608  51.579  1.00  0.00     0.105 C 
HETATM    2  N1  UNL     1      22.326   5.796  50.457  1.00  0.00    -0.278 NA
HETATM    3  C2  UNL     1      22.788   6.842  49.670  1.00  0.00     0.323 C 
HETATM    4  O1  UNL     1      23.494   6.218  48.582  1.00  0.00    -0.330 OA
HETATM    5  C3  UNL     1      24.581   5.364  48.896  1.00  0.00     0.079 A 
HETATM    6  C4  UNL     1      25.789   5.931  48.561  1.00  0.00     0.037 A 
HETATM    7  C5  UNL     1      26.975   5.259  48.784  1.00  0.00     0.003 A 
HETATM    8  C6  UNL     1      26.921   4.007  49.352  1.00  0.00     0.001 A 
HETATM    9  C7  UNL     1      25.684   3.488  49.668  1.00  0.00     0.011 A 
HETATM   10  C8  UNL     1      24.458   4.090  49.479  1.00  0.00    -0.007 A 
HETATM   11  C9  UNL     1      23.184   3.449  49.835  1.00  0.00     0.164 C 
HETATM   12  N2  UNL     1      22.822   3.421  51.226  1.00  0.00    -0.372 N 
HETATM   13  C20 UNL     1      21.616   4.151  51.664  1.00  0.00     0.169 C 
ENDROOT
BRANCH  12  14
HETATM   14  C10 UNL     1      23.478   2.772  52.301  1.00  0.00     0.030 C 
HETATM   15  C11 UNL     1      24.539   2.858  53.156  1.00  0.00     0.029 C 
HETATM   16  C12 UNL     1      25.667   2.132  53.300  1.00  0.00     0.002 C 
HETATM   17  C13 UNL     1      26.446   1.519  52.380  1.00  0.00     0.000 C 
HETATM   18  C14 UNL     1      26.618   0.246  51.897  1.00  0.00     0.000 C 
HETATM   19  C15 UNL     1      26.442  -0.791  52.784  1.00  0.00     0.000 C 
HETATM   20  C16 UNL     1      25.558  -0.759  53.837  1.00  0.00     0.000 C 
HETATM   21  C17 UNL     1      24.210  -0.509  53.745  1.00  0.00     0.000 C 
HETATM   22  C18 UNL     1      23.412   0.254  52.923  1.00  0.00     0.002 C 
HETATM   23  C19 UNL     1      23.015   1.566  52.830  1.00  0.00     0.029 C 
ENDBRANCH  12  14
TORSDOF 1
ENDMDL
MODEL 2
REMARK VINA RESULT:      -8.8      2.612      5.139
REMARK  1 active torsions:
REMARK  status: ('A' for Active; 'I' for Inactive)
REMARK    1  A    between atoms: N2_12  and  C10_13 
ROOT
HETATM    1  C1  UNL     1      23.040   2.310  49.577  1.00  0.00     0.105 C 
HETATM    2  N1  UNL     1      22.106   2.183  50.346  1.00  0.00    -0.278 NA
HETATM    3  C2  UNL     1      20.837   1.620  50.375  1.00  0.00     0.323 C 
HETATM    4  O1  UNL     1      20.488   1.537  51.769  1.00  0.00    -0.330 OA
HETATM    5  C3  UNL     1      21.340   0.796  52.626  1.00  0.00     0.079 A 
HETATM    6  C4  UNL     1      20.756  -0.383  53.030  1.00  0.00     0.037 A 
HETATM    7  C5  UNL     1      21.421  -1.253  53.872  1.00  0.00     0.003 A 
HETATM    8  C6  UNL     1      22.684  -0.912  54.298  1.00  0.00     0.001 A 
HETATM    9  C7  UNL     1      23.220   0.281  53.863  1.00  0.00     0.011 A 
HETATM   10  C8  UNL     1      22.625   1.201  53.026  1.00  0.00    -0.007 A 
HETATM   11  C9  UNL     1      23.272   2.460  52.626  1.00  0.00     0.164 C 
HETATM   12  N2  UNL     1      24.298   2.388  51.622  1.00  0.00    -0.372 N 
HETATM   13  C20 UNL     1      24.079   3.062  50.328  1.00  0.00     0.169 C 
ENDROOT
BRANCH  12  14
HETATM   14  C10 UNL     1      25.553   1.733  51.682  1.00  0.00     0.030 C 
HETATM   15  C11 UNL     1      26.170   0.521  51.557  1.00  0.00     0.029 C 
HETATM   16  C12 UNL     1      26.793  -0.290  52.437  1.00  0.00     0.002 C 
HETATM   17  C13 UNL     1      26.535  -0.545  53.740  1.00  0.00     0.000 C 
HETATM   18  C14 UNL     1      27.021  -0.143  54.958  1.00  0.00     0.000 C 
HETATM   19  C15 UNL     1      28.366   0.136  55.036  1.00  0.00     0.000 C 
HETATM   20  C16 UNL     1      29.106   0.647  53.996  1.00  0.00     0.000 C 
HETATM   21  C17 UNL     1      28.830   1.804  53.309  1.00  0.00     0.000 C 
HETATM   22  C18 UNL     1      27.685   2.482  52.958  1.00  0.00     0.002 C 
HETATM   23  C19 UNL     1      26.734   2.422  51.968  1.00  0.00     0.029 C 
ENDBRANCH  12  14
TORSDOF 1
ENDMDL
MODEL 3
REMARK VINA RESULT:      -8.6      2.960      6.830
REMARK  1 active torsions:
REMARK  status: ('A' for Active; 'I' for Inactive)
REMARK    1  A    between atoms: N2_12  and  C10_13 
ROOT
HETATM    1  C1  UNL     1      26.966   2.129  53.652  1.00  0.00     0.105 C 
HETATM    2  N1  UNL     1      26.772   0.995  54.051  1.00  0.00    -0.278 NA
HETATM    3  C2  UNL     1      26.776   0.285  55.243  1.00  0.00     0.323 C 
HETATM    4  O1  UNL     1      26.066  -0.935  54.963  1.00  0.00    -0.330 OA
HETATM    5  C3  UNL     1      24.733  -0.837  54.490  1.00  0.00     0.079 A 
HETATM    6  C4  UNL     1      23.824  -1.235  55.442  1.00  0.00     0.037 A 
HETATM    7  C5  UNL     1      22.468  -1.216  55.181  1.00  0.00     0.003 A 
HETATM    8  C6  UNL     1      22.046  -0.789  53.942  1.00  0.00     0.001 A 
HETATM    9  C7  UNL     1      23.002  -0.403  53.026  1.00  0.00     0.011 A 
HETATM   10  C8  UNL     1      24.368  -0.391  53.207  1.00  0.00    -0.007 A 
HETATM   11  C9  UNL     1      25.314   0.027  52.162  1.00  0.00     0.164 C 
HETATM   12  N2  UNL     1      25.454   1.437  51.919  1.00  0.00    -0.372 N 
HETATM   13  C20 UNL     1      26.756   2.080  52.183  1.00  0.00     0.169 C 
ENDROOT
BRANCH  12  14
HETATM   14  C10 UNL     1      24.486   2.356  51.445  1.00  0.00     0.030 C 
HETATM   15  C11 UNL     1      23.154   2.656  51.458  1.00  0.00     0.029 C 
HETATM   16  C12 UNL     1      22.198   2.644  50.507  1.00  0.00     0.002 C 
HETATM   17  C13 UNL     1      22.009   1.815  49.454  1.00  0.00     0.000 C 
HETATM   18  C14 UNL     1      22.254   1.833  48.105  1.00  0.00     0.000 C 
HETATM   19  C15 UNL     1      22.160   3.049  47.466  1.00  0.00     0.000 C 
HETATM   20  C16 UNL     1      22.464   4.252  48.057  1.00  0.00     0.000 C 
HETATM   21  C17 UNL     1      23.660   4.573  48.654  1.00  0.00     0.000 C 
HETATM   22  C18 UNL     1      24.623   3.877  49.347  1.00  0.00     0.002 C 
HETATM   23  C19 UNL     1      24.830   3.438  50.632  1.00  0.00     0.029 C 
ENDBRANCH  12  14
TORSDOF 1
ENDMDL
MODEL 4
REMARK VINA RESULT:      -8.5      2.803      6.755
REMARK  1 active torsions:
REMARK  status: ('A' for Active; 'I' for Inactive)
REMARK    1  A    between atoms: N2_12  and  C10_13 
ROOT
HETATM    1  C1  UNL     1      26.971   2.105  53.664  1.00  0.00     0.105 C 
HETATM    2  N1  UNL     1      26.762   0.984  54.091  1.00  0.00    -0.278 NA
HETATM    3  C2  UNL     1      26.724   0.312  55.305  1.00  0.00     0.323 C 
HETATM    4  O1  UNL     1      26.023  -0.917  55.038  1.00  0.00    -0.330 OA
HETATM    5  C3  UNL     1      24.707  -0.833  54.517  1.00  0.00     0.079 A 
HETATM    6  C4  UNL     1      23.765  -1.200  55.450  1.00  0.00     0.037 A 
HETATM    7  C5  UNL     1      22.419  -1.190  55.142  1.00  0.00     0.003 A 
HETATM    8  C6  UNL     1      22.040  -0.801  53.877  1.00  0.00     0.001 A 
HETATM    9  C7  UNL     1      23.027  -0.444  52.983  1.00  0.00     0.011 A 
HETATM   10  C8  UNL     1      24.386  -0.427  53.210  1.00  0.00    -0.007 A 
HETATM   11  C9  UNL     1      25.368  -0.042  52.185  1.00  0.00     0.164 C 
HETATM   12  N2  UNL     1      25.518   1.359  51.903  1.00  0.00    -0.372 N 
HETATM   13  C20 UNL     1      26.811   2.010  52.191  1.00  0.00     0.169 C 
ENDROOT
BRANCH  12  14
HETATM   14  C10 UNL     1      24.568   2.263  51.367  1.00  0.00     0.030 C 
HETATM   15  C11 UNL     1      24.020   2.724  50.204  1.00  0.00     0.029 C 
HETATM   16  C12 UNL     1      24.071   3.913  49.570  1.00  0.00     0.002 C 
HETATM   17  C13 UNL     1      25.074   4.816  49.465  1.00  0.00     0.000 C 
HETATM   18  C14 UNL     1      25.423   6.001  50.062  1.00  0.00     0.000 C 
HETATM   19  C15 UNL     1      24.399   6.830  50.458  1.00  0.00     0.000 C 
HETATM   20  C16 UNL     1      23.172   6.384  50.889  1.00  0.00     0.000 C 
HETATM   21  C17 UNL     1      22.958   5.502  51.920  1.00  0.00     0.000 C 
HETATM   22  C18 UNL     1      23.643   4.433  52.450  1.00  0.00     0.002 C 
HETATM   23  C19 UNL     1      23.796   3.094  52.183  1.00  0.00     0.029 C 
ENDBRANCH  12  14
TORSDOF 1
ENDMDL
MODEL 5
REMARK VINA RESULT:      -8.4      2.330      5.766
REMARK  1 active torsions:
REMARK  status: ('A' for Active; 'I' for Inactive)
REMARK    1  A    between atoms: N2_12  and  C10_13 
ROOT
HETATM    1  C1  UNL     1      21.063   0.490  52.169  1.00  0.00     0.105 C 
HETATM    2  N1  UNL     1      21.907   0.069  52.938  1.00  0.00    -0.278 NA
HETATM    3  C2  UNL     1      22.442  -1.144  53.349  1.00  0.00     0.323 C 
HETATM    4  O1  UNL     1      23.679  -0.811  54.007  1.00  0.00    -0.330 OA
HETATM    5  C3  UNL     1      24.658  -0.103  53.265  1.00  0.00     0.079 A 
HETATM    6  C4  UNL     1      25.737  -0.899  52.954  1.00  0.00     0.037 A 
HETATM    7  C5  UNL     1      26.804  -0.400  52.234  1.00  0.00     0.003 A 
HETATM    8  C6  UNL     1      26.765   0.917  51.834  1.00  0.00     0.001 A 
HETATM    9  C7  UNL     1      25.660   1.668  52.173  1.00  0.00     0.011 A 
HETATM   10  C8  UNL     1      24.557   1.247  52.886  1.00  0.00    -0.007 A 
HETATM   11  C9  UNL     1      23.427   2.129  53.214  1.00  0.00     0.164 C 
HETATM   12  N2  UNL     1      22.489   2.423  52.165  1.00  0.00    -0.372 N 
HETATM   13  C20 UNL     1      21.092   1.969  52.310  1.00  0.00     0.169 C 
ENDROOT
BRANCH  12  14
HETATM   14  C10 UNL     1      22.707   3.114  50.948  1.00  0.00     0.030 C 
HETATM   15  C11 UNL     1      23.059   2.953  49.638  1.00  0.00     0.029 C 
HETATM   16  C12 UNL     1      24.139   3.327  48.923  1.00  0.00     0.002 C 
HETATM   17  C13 UNL     1      25.444   3.415  49.272  1.00  0.00     0.000 C 
HETATM   18  C14 UNL     1      26.318   4.404  49.644  1.00  0.00     0.000 C 
HETATM   19  C15 UNL     1      26.143   5.645  49.076  1.00  0.00     0.000 C 
HETATM   20  C16 UNL     1      24.920   6.156  48.711  1.00  0.00     0.000 C 
HETATM   21  C17 UNL     1      23.832   6.297  49.537  1.00  0.00     0.000 C 
HETATM   22  C18 UNL     1      23.332   5.611  50.620  1.00  0.00     0.002 C 
HETATM   23  C19 UNL     1      22.558   4.499  50.847  1.00  0.00     0.029 C 
ENDBRANCH  12  14
TORSDOF 1
ENDMDL
MODEL 6
REMARK VINA RESULT:      -8.3      1.401      2.224
REMARK  1 active torsions:
REMARK  status: ('A' for Active; 'I' for Inactive)
REMARK    1  A    between atoms: N2_12  and  C10_13 
ROOT
HETATM    1  C1  UNL     1      23.264   7.960  50.767  1.00  0.00     0.105 C 
HETATM    2  N1  UNL     1      23.907   7.810  49.744  1.00  0.00    -0.278 NA
HETATM    3  C2  UNL     1      25.001   8.368  49.099  1.00  0.00     0.323 C 
HETATM    4  O1  UNL     1      25.401   7.397  48.115  1.00  0.00    -0.330 OA
HETATM    5  C3  UNL     1      25.745   6.097  48.564  1.00  0.00     0.079 A 
HETATM    6  C4  UNL     1      27.098   5.865  48.464  1.00  0.00     0.037 A 
HETATM    7  C5  UNL     1      27.641   4.655  48.850  1.00  0.00     0.003 A 
HETATM    8  C6  UNL     1      26.796   3.684  49.338  1.00  0.00     0.001 A 
HETATM    9  C7  UNL     1      25.450   3.971  49.415  1.00  0.00     0.011 A 
HETATM   10  C8  UNL     1      24.830   5.148  49.053  1.00  0.00    -0.007 A 
HETATM   11  C9  UNL     1      23.379   5.358  49.159  1.00  0.00     0.164 C 
HETATM   12  N2  UNL     1      22.839   5.615  50.466  1.00  0.00    -0.372 N 
HETATM   13  C20 UNL     1      22.204   6.920  50.731  1.00  0.00     0.169 C 
ENDROOT
BRANCH  12  14
HETATM   14  C10 UNL     1      22.825   4.769  51.602  1.00  0.00     0.030 C 
HETATM   15  C11 UNL     1      23.468   4.486  52.774  1.00  0.00     0.029 C 
HETATM   16  C12 UNL     1      24.189   3.428  53.196  1.00  0.00     0.002 C 
HETATM   17  C13 UNL     1      25.032   2.608  52.526  1.00  0.00     0.000 C 
HETATM   18  C14 UNL     1      24.981   1.359  51.963  1.00  0.00     0.000 C 
HETATM   19  C15 UNL     1      24.187   0.422  52.585  1.00  0.00     0.000 C 
HETATM   20  C16 UNL     1      23.030   0.724  53.264  1.00  0.00     0.000 C 
HETATM   21  C17 UNL     1      21.954   1.405  52.748  1.00  0.00     0.000 C 
HETATM   22  C18 UNL     1      21.784   2.401  51.815  1.00  0.00     0.002 C 
HETATM   23  C19 UNL     1      21.861   3.772  51.770  1.00  0.00     0.029 C 
ENDBRANCH  12  14
TORSDOF 1
ENDMDL
MODEL 7
REMARK VINA RESULT:      -8.1      1.992      2.626
REMARK  1 active torsions:
REMARK  status: ('A' for Active; 'I' for Inactive)
REMARK    1  A    between atoms: N2_12  and  C10_13 
ROOT
HETATM    1  C1  UNL     1      19.716   2.392  51.939  1.00  0.00     0.105 C 
HETATM    2  N1  UNL     1      19.806   2.700  50.765  1.00  0.00    -0.278 NA
HETATM    3  C2  UNL     1      19.377   3.702  49.905  1.00  0.00     0.323 C 
HETATM    4  O1  UNL     1      20.212   3.586  48.738  1.00  0.00    -0.330 OA
HETATM    5  C3  UNL     1      21.615   3.694  48.910  1.00  0.00     0.079 A 
HETATM    6  C4  UNL     1      22.101   4.876  48.399  1.00  0.00     0.037 A 
HETATM    7  C5  UNL     1      23.447   5.177  48.463  1.00  0.00     0.003 A 
HETATM    8  C6  UNL     1      24.294   4.266  49.052  1.00  0.00     0.001 A 
HETATM    9  C7  UNL     1      23.753   3.098  49.547  1.00  0.00     0.011 A 
HETATM   10  C8  UNL     1      22.426   2.723  49.522  1.00  0.00    -0.007 A 
HETATM   11  C9  UNL     1      21.942   1.445  50.064  1.00  0.00     0.164 C 
HETATM   12  N2  UNL     1      21.825   1.332  51.493  1.00  0.00    -0.372 N 
HETATM   13  C20 UNL     1      20.487   1.131  52.084  1.00  0.00     0.169 C 
ENDROOT
BRANCH  12  14
HETATM   14  C10 UNL     1      22.844   1.391  52.474  1.00  0.00     0.030 C 
HETATM   15  C11 UNL     1      23.862   2.160  52.960  1.00  0.00     0.029 C 
HETATM   16  C12 UNL     1      25.203   2.016  52.967  1.00  0.00     0.002 C 
HETATM   17  C13 UNL     1      26.039   1.474  52.050  1.00  0.00     0.000 C 
HETATM   18  C14 UNL     1      26.693   0.282  51.869  1.00  0.00     0.000 C 
HETATM   19  C15 UNL     1      27.125  -0.375  52.998  1.00  0.00     0.000 C 
HETATM   20  C16 UNL     1      26.477  -0.327  54.210  1.00  0.00     0.000 C 
HETATM   21  C17 UNL     1      25.162  -0.658  54.429  1.00  0.00     0.000 C 
HETATM   22  C18 UNL     1      24.001  -0.587  53.693  1.00  0.00     0.002 C 
HETATM   23  C19 UNL     1      23.049   0.357  53.390  1.00  0.00     0.029 C 
ENDBRANCH  12  14
TORSDOF 1
ENDMDL
MODEL 8
REMARK VINA RESULT:      -8.0      6.911      9.779
REMARK  1 active torsions:
REMARK  status: ('A' for Active; 'I' for Inactive)
REMARK    1  A    between atoms: N2_12  and  C10_13 
ROOT
HETATM    1  C1  UNL     1      31.677  10.070  46.241  1.00  0.00     0.105 C 
HETATM    2  N1  UNL     1      30.702   9.956  46.960  1.00  0.00    -0.278 NA
HETATM    3  C2  UNL     1      29.322  10.087  46.889  1.00  0.00     0.323 C 
HETATM    4  O1  UNL     1      28.813   9.406  48.051  1.00  0.00    -0.330 OA
HETATM    5  C3  UNL     1      29.137   8.036  48.214  1.00  0.00     0.079 A 
HETATM    6  C4  UNL     1      28.046   7.225  48.004  1.00  0.00     0.037 A 
HETATM    7  C5  UNL     1      28.148   5.852  48.117  1.00  0.00     0.003 A 
HETATM    8  C6  UNL     1      29.371   5.312  48.444  1.00  0.00     0.001 A 
HETATM    9  C7  UNL     1      30.430   6.172  48.643  1.00  0.00     0.011 A 
HETATM   10  C8  UNL     1      30.412   7.547  48.550  1.00  0.00    -0.007 A 
HETATM   11  C9  UNL     1      31.595   8.385  48.795  1.00  0.00     0.164 C 
HETATM   12  N2  UNL     1      32.590   8.448  47.759  1.00  0.00    -0.372 N 
HETATM   13  C20 UNL     1      32.847   9.740  47.095  1.00  0.00     0.169 C 
ENDROOT
BRANCH  12  14
HETATM   14  C10 UNL     1      33.403   7.407  47.246  1.00  0.00     0.030 C 
HETATM   15  C11 UNL     1      33.746   6.740  46.105  1.00  0.00     0.029 C 
HETATM   16  C12 UNL     1      33.541   5.476  45.681  1.00  0.00     0.002 C 
HETATM   17  C13 UNL     1      32.491   4.642  45.863  1.00  0.00     0.000 C 
HETATM   18  C14 UNL     1      32.176   3.589  46.683  1.00  0.00     0.000 C 
HETATM   19  C15 UNL     1      33.205   2.755  47.058  1.00  0.00     0.000 C 
HETATM   20  C16 UNL     1      34.503   3.171  47.236  1.00  0.00     0.000 C 
HETATM   21  C17 UNL     1      34.914   4.179  48.074  1.00  0.00     0.000 C 
HETATM   22  C18 UNL     1      34.370   5.363  48.518  1.00  0.00     0.002 C 
HETATM   23  C19 UNL     1      34.246   6.654  48.066  1.00  0.00     0.029 C 
ENDBRANCH  12  14
TORSDOF 1
ENDMDL
MODEL 9
REMARK VINA RESULT:      -7.8      2.686      6.349
REMARK  1 active torsions:
REMARK  status: ('A' for Active; 'I' for Inactive)
REMARK    1  A    between atoms: N2_12  and  C10_13 
ROOT
HETATM    1  C1  UNL     1      21.192   0.200  51.635  1.00  0.00     0.105 C 
HETATM    2  N1  UNL     1      21.916  -0.049  52.582  1.00  0.00    -0.278 NA
HETATM    3  C2  UNL     1      22.360  -1.147  53.304  1.00  0.00     0.323 C 
HETATM    4  O1  UNL     1      23.507  -0.681  54.040  1.00  0.00    -0.330 OA
HETATM    5  C3  UNL     1      24.594  -0.141  53.307  1.00  0.00     0.079 A 
HETATM    6  C4  UNL     1      25.683  -0.981  53.317  1.00  0.00     0.037 A 
HETATM    7  C5  UNL     1      26.849  -0.640  52.661  1.00  0.00     0.003 A 
HETATM    8  C6  UNL     1      26.897   0.563  51.994  1.00  0.00     0.001 A 
HETATM    9  C7  UNL     1      25.776   1.366  52.018  1.00  0.00     0.011 A 
HETATM   10  C8  UNL     1      24.578   1.100  52.646  1.00  0.00    -0.007 A 
HETATM   11  C9  UNL     1      23.437   2.028  52.628  1.00  0.00     0.164 C 
HETATM   12  N2  UNL     1      22.655   2.094  51.424  1.00  0.00    -0.372 N 
HETATM   13  C20 UNL     1      21.240   1.675  51.470  1.00  0.00     0.169 C 
ENDROOT
BRANCH  12  14
HETATM   14  C10 UNL     1      23.050   2.515  50.131  1.00  0.00     0.030 C 
HETATM   15  C11 UNL     1      23.950   3.285  49.451  1.00  0.00     0.029 C 
HETATM   16  C12 UNL     1      23.833   4.418  48.729  1.00  0.00     0.002 C 
HETATM   17  C13 UNL     1      23.026   5.492  48.894  1.00  0.00     0.000 C 
HETATM   18  C14 UNL     1      21.850   5.955  48.361  1.00  0.00     0.000 C 
HETATM   19  C15 UNL     1      21.613   5.685  47.033  1.00  0.00     0.000 C 
HETATM   20  C16 UNL     1      22.055   4.554  46.388  1.00  0.00     0.000 C 
HETATM   21  C17 UNL     1      21.800   3.261  46.774  1.00  0.00     0.000 C 
HETATM   22  C18 UNL     1      21.608   2.620  47.976  1.00  0.00     0.002 C 
HETATM   23  C19 UNL     1      22.384   2.091  48.979  1.00  0.00     0.029 C 
ENDBRANCH  12  14
TORSDOF 1
ENDMDL
