MODEL 1
REMARK VINA RESULT:      -8.3      0.000      0.000
REMARK  6 active torsions:
REMARK  status: ('A' for Active; 'I' for Inactive)
REMARK    1  A    between atoms: O1_2  and  C2_3 
REMARK    2  A    between atoms: C2_3  and  C3_4 
REMARK    3  A    between atoms: C4_5  and  C5_6 
REMARK       I    between atoms: C5_6  and  N1_8 
REMARK    4  A    between atoms: N1_8  and  C6_9 
REMARK    5  A    between atoms: C11_15  and  N3_16 
REMARK    6  A    between atoms: C12_17  and  N4_18 
ROOT
HETATM    1  C6  UNL     1      25.412   3.162  49.965  1.00  0.00     0.036 A 
HETATM    2  C7  UNL     1      24.133   3.257  49.456  1.00  0.00     0.032 A 
HETATM    3  C8  UNL     1      23.108   2.532  50.025  1.00  0.00     0.035 A 
HETATM    4  C9  UNL     1      23.402   1.722  51.100  1.00  0.00     0.069 A 
HETATM    5  N2  UNL     1      22.344   1.032  51.615  1.00  0.00    -0.258 NA
HETATM    6  C10 UNL     1      22.608   0.234  52.668  1.00  0.00     0.148 A 
HETATM    7  C11 UNL     1      23.828   0.057  53.257  1.00  0.00     0.071 A 
HETATM    8  C12 UNL     1      24.893   0.756  52.733  1.00  0.00     0.075 A 
HETATM    9  C18 UNL     1      24.658   1.585  51.652  1.00  0.00     0.024 A 
HETATM   10  C19 UNL     1      25.644   2.323  51.057  1.00  0.00     0.045 A 
ENDROOT
BRANCH   1  11
HETATM   11  N1  UNL     1      26.510   3.887  49.420  1.00  0.00    -0.316 N 
HETATM   12  C5  UNL     1      26.829   5.126  48.825  1.00  0.00     0.301 C 
HETATM   13  O2  UNL     1      25.971   6.047  48.616  1.00  0.00    -0.258 OA
HETATM   14  H6  UNL     1      27.230   3.139  49.585  1.00  0.00     0.170 HD
BRANCH  12  15
HETATM   15  C4  UNL     1      28.215   5.300  48.454  1.00  0.00    -0.003 C 
HETATM   16  C3  UNL     1      29.384   5.467  48.143  1.00  0.00    -0.070 C 
BRANCH  16  17
HETATM   17  C2  UNL     1      30.795   5.671  47.795  1.00  0.00     0.261 C 
BRANCH  17  18
HETATM   18  O1  UNL     1      31.546   5.047  48.784  1.00  0.00    -0.384 OA
HETATM   19  C1  UNL     1      31.927   6.031  49.696  1.00  0.00     0.202 C 
ENDBRANCH  17  18
ENDBRANCH  16  17
ENDBRANCH  12  15
ENDBRANCH   1  11
BRANCH   8  20
HETATM   20  N4  UNL     1      26.238   0.709  53.202  1.00  0.00    -0.349 N 
HETATM   21  C13 UNL     1      26.880  -0.538  52.962  1.00  0.00     0.110 A 
HETATM   22  C14 UNL     1      28.144  -0.692  53.361  1.00  0.00     0.026 A 
HETATM   23 BR1  UNL     1      29.048  -2.333  53.067  1.00  0.00    -0.050 Br
HETATM   24  C15 UNL     1      28.890   0.364  54.033  1.00  0.00     0.018 A 
HETATM   25  C16 UNL     1      28.231   1.509  54.228  1.00  0.00    -0.005 A 
HETATM   26  C17 UNL     1      26.848   1.845  53.854  1.00  0.00     0.156 A 
ENDBRANCH   8  20
BRANCH   7  27
HETATM   27  N3  UNL     1      24.093  -0.775  54.351  1.00  0.00    -0.396 N 
HETATM   28  H10 UNL     1      24.102  -1.749  53.962  1.00  0.00     0.156 HD
HETATM   29  H11 UNL     1      24.272  -0.683  55.391  1.00  0.00     0.156 HD
ENDBRANCH   7  27
TORSDOF 6
ENDMDL
MODEL 2
REMARK VINA RESULT:      -8.1      4.224      6.867
REMARK  6 active torsions:
REMARK  status: ('A' for Active; 'I' for Inactive)
REMARK    1  A    between atoms: O1_2  and  C2_3 
REMARK    2  A    between atoms: C2_3  and  C3_4 
REMARK    3  A    between atoms: C4_5  and  C5_6 
REMARK       I    between atoms: C5_6  and  N1_8 
REMARK    4  A    between atoms: N1_8  and  C6_9 
REMARK    5  A    between atoms: C11_15  and  N3_16 
REMARK    6  A    between atoms: C12_17  and  N4_18 
ROOT
HETATM    1  C6  UNL     1      22.952  -0.444  53.737  1.00  0.00     0.036 A 
HETATM    2  C7  UNL     1      22.123  -1.246  54.494  1.00  0.00     0.032 A 
HETATM    3  C8  UNL     1      20.776  -1.310  54.209  1.00  0.00     0.035 A 
HETATM    4  C9  UNL     1      20.296  -0.556  53.161  1.00  0.00     0.069 A 
HETATM    5  N2  UNL     1      18.955  -0.664  52.934  1.00  0.00    -0.258 NA
HETATM    6  C10 UNL     1      18.463   0.065  51.913  1.00  0.00     0.148 A 
HETATM    7  C11 UNL     1      19.180   0.893  51.097  1.00  0.00     0.071 A 
HETATM    8  C12 UNL     1      20.533   0.998  51.331  1.00  0.00     0.075 A 
HETATM    9  C18 UNL     1      21.073   0.264  52.371  1.00  0.00     0.024 A 
HETATM   10  C19 UNL     1      22.403   0.295  52.688  1.00  0.00     0.045 A 
ENDROOT
BRANCH   1  11
HETATM   11  N1  UNL     1      24.351  -0.338  53.983  1.00  0.00    -0.316 N 
HETATM   12  C5  UNL     1      25.334  -0.677  54.937  1.00  0.00     0.301 C 
HETATM   13  O2  UNL     1      25.075  -1.295  56.024  1.00  0.00    -0.258 OA
HETATM   14  H6  UNL     1      24.582   0.170  53.092  1.00  0.00     0.170 HD
BRANCH  12  15
HETATM   15  C4  UNL     1      26.683  -0.278  54.611  1.00  0.00    -0.003 C 
HETATM   16  C3  UNL     1      27.821   0.077  54.344  1.00  0.00    -0.070 C 
BRANCH  16  17
HETATM   17  C2  UNL     1      29.195   0.500  54.049  1.00  0.00     0.261 C 
BRANCH  17  18
HETATM   18  O1  UNL     1      29.311   1.816  54.481  1.00  0.00    -0.384 OA
HETATM   19  C1  UNL     1      28.631   2.614  53.561  1.00  0.00     0.202 C 
ENDBRANCH  17  18
ENDBRANCH  16  17
ENDBRANCH  12  15
ENDBRANCH   1  11
BRANCH   8  20
HETATM   20  N4  UNL     1      21.450   1.804  50.595  1.00  0.00    -0.349 N 
HETATM   21  C13 UNL     1      21.797   3.016  51.255  1.00  0.00     0.110 A 
HETATM   22  C14 UNL     1      22.651   3.848  50.654  1.00  0.00     0.026 A 
HETATM   23 BR1  UNL     1      23.147   5.478  51.488  1.00  0.00    -0.050 Br
HETATM   24  C15 UNL     1      23.240   3.564  49.352  1.00  0.00     0.018 A 
HETATM   25  C16 UNL     1      22.875   2.410  48.787  1.00  0.00    -0.005 A 
HETATM   26  C17 UNL     1      21.953   1.387  49.306  1.00  0.00     0.156 A 
ENDBRANCH   8  20
BRANCH   7  27
HETATM   27  N3  UNL     1      18.660   1.647  50.038  1.00  0.00    -0.396 N 
HETATM   28  H10 UNL     1      19.480   1.853  49.417  1.00  0.00     0.156 HD
HETATM   29  H11 UNL     1      17.725   2.033  49.725  1.00  0.00     0.156 HD
ENDBRANCH   7  27
TORSDOF 6
ENDMDL
MODEL 3
REMARK VINA RESULT:      -7.9      4.661      6.939
REMARK  6 active torsions:
REMARK  status: ('A' for Active; 'I' for Inactive)
REMARK    1  A    between atoms: O1_2  and  C2_3 
REMARK    2  A    between atoms: C2_3  and  C3_4 
REMARK    3  A    between atoms: C4_5  and  C5_6 
REMARK       I    between atoms: C5_6  and  N1_8 
REMARK    4  A    between atoms: N1_8  and  C6_9 
REMARK    5  A    between atoms: C11_15  and  N3_16 
REMARK    6  A    between atoms: C12_17  and  N4_18 
ROOT
HETATM    1  C6  UNL     1      22.699   0.295  53.286  1.00  0.00     0.036 A 
HETATM    2  C7  UNL     1      21.988  -0.421  54.226  1.00  0.00     0.032 A 
HETATM    3  C8  UNL     1      20.653  -0.696  54.021  1.00  0.00     0.035 A 
HETATM    4  C9  UNL     1      20.065  -0.235  52.863  1.00  0.00     0.069 A 
HETATM    5  N2  UNL     1      18.742  -0.540  52.722  1.00  0.00    -0.258 NA
HETATM    6  C10 UNL     1      18.146  -0.099  51.597  1.00  0.00     0.148 A 
HETATM    7  C11 UNL     1      18.742   0.617  50.598  1.00  0.00     0.071 A 
HETATM    8  C12 UNL     1      20.077   0.922  50.746  1.00  0.00     0.075 A 
HETATM    9  C18 UNL     1      20.722   0.486  51.889  1.00  0.00     0.024 A 
HETATM   10  C19 UNL     1      22.044   0.734  52.134  1.00  0.00     0.045 A 
ENDROOT
BRANCH   1  11
HETATM   11  N1  UNL     1      24.080   0.608  53.442  1.00  0.00    -0.316 N 
HETATM   12  C5  UNL     1      24.983   1.689  53.358  1.00  0.00     0.301 C 
HETATM   13  O2  UNL     1      24.632   2.877  53.049  1.00  0.00    -0.258 OA
HETATM   14  H6  UNL     1      24.386  -0.363  53.699  1.00  0.00     0.170 HD
BRANCH  12  15
HETATM   15  C4  UNL     1      26.362   1.372  53.648  1.00  0.00    -0.003 C 
HETATM   16  C3  UNL     1      27.526   1.108  53.912  1.00  0.00    -0.070 C 
BRANCH  16  17
HETATM   17  C2  UNL     1      28.915   0.770  54.242  1.00  0.00     0.261 C 
BRANCH  17  18
HETATM   18  O1  UNL     1      28.929  -0.578  54.582  1.00  0.00    -0.384 OA
HETATM   19  C1  UNL     1      29.516  -1.265  53.521  1.00  0.00     0.202 C 
ENDBRANCH  17  18
ENDBRANCH  16  17
ENDBRANCH  12  15
ENDBRANCH   1  11
BRANCH   8  20
HETATM   20  N4  UNL     1      20.876   1.656  49.821  1.00  0.00    -0.349 N 
HETATM   21  C13 UNL     1      20.927   3.051  50.098  1.00  0.00     0.110 A 
HETATM   22  C14 UNL     1      21.648   3.835  49.294  1.00  0.00     0.026 A 
HETATM   23 BR1  UNL     1      21.751   5.701  49.616  1.00  0.00    -0.050 Br
HETATM   24  C15 UNL     1      22.383   3.320  48.146  1.00  0.00     0.018 A 
HETATM   25  C16 UNL     1      22.294   2.003  47.941  1.00  0.00    -0.005 A 
HETATM   26  C17 UNL     1      21.550   1.002  48.723  1.00  0.00     0.156 A 
ENDBRANCH   8  20
BRANCH   7  27
HETATM   27  N3  UNL     1      18.114   1.070  49.432  1.00  0.00    -0.396 N 
HETATM   28  H10 UNL     1      18.406   2.073  49.333  1.00  0.00     0.156 HD
HETATM   29  H11 UNL     1      17.469   0.692  48.682  1.00  0.00     0.156 HD
ENDBRANCH   7  27
TORSDOF 6
ENDMDL
MODEL 4
REMARK VINA RESULT:      -7.7      4.918      9.142
REMARK  6 active torsions:
REMARK  status: ('A' for Active; 'I' for Inactive)
REMARK    1  A    between atoms: O1_2  and  C2_3 
REMARK    2  A    between atoms: C2_3  and  C3_4 
REMARK    3  A    between atoms: C4_5  and  C5_6 
REMARK       I    between atoms: C5_6  and  N1_8 
REMARK    4  A    between atoms: N1_8  and  C6_9 
REMARK    5  A    between atoms: C11_15  and  N3_16 
REMARK    6  A    between atoms: C12_17  and  N4_18 
ROOT
HETATM    1  C6  UNL     1      22.937  -0.041  52.891  1.00  0.00     0.036 A 
HETATM    2  C7  UNL     1      23.985  -0.751  53.438  1.00  0.00     0.032 A 
HETATM    3  C8  UNL     1      25.281  -0.316  53.261  1.00  0.00     0.035 A 
HETATM    4  C9  UNL     1      25.487   0.834  52.529  1.00  0.00     0.069 A 
HETATM    5  N2  UNL     1      26.791   1.209  52.392  1.00  0.00    -0.258 NA
HETATM    6  C10 UNL     1      27.017   2.330  51.680  1.00  0.00     0.148 A 
HETATM    7  C11 UNL     1      26.066   3.115  51.092  1.00  0.00     0.071 A 
HETATM    8  C12 UNL     1      24.750   2.732  51.235  1.00  0.00     0.075 A 
HETATM    9  C18 UNL     1      24.481   1.585  51.959  1.00  0.00     0.024 A 
HETATM   10  C19 UNL     1      23.212   1.117  52.161  1.00  0.00     0.045 A 
ENDROOT
BRANCH   1  11
HETATM   11  N1  UNL     1      21.577  -0.440  53.042  1.00  0.00    -0.316 N 
HETATM   12  C5  UNL     1      20.726  -1.155  53.912  1.00  0.00     0.301 C 
HETATM   13  O2  UNL     1      21.127  -1.709  54.989  1.00  0.00    -0.258 OA
HETATM   14  H6  UNL     1      21.230   0.011  52.158  1.00  0.00     0.170 HD
BRANCH  12  15
HETATM   15  C4  UNL     1      19.341  -1.227  53.507  1.00  0.00    -0.003 C 
HETATM   16  C3  UNL     1      18.166  -1.298  53.181  1.00  0.00    -0.070 C 
BRANCH  16  17
HETATM   17  C2  UNL     1      16.748  -1.364  52.808  1.00  0.00     0.261 C 
BRANCH  17  18
HETATM   18  O1  UNL     1      16.180  -0.150  53.178  1.00  0.00    -0.384 OA
HETATM   19  C1  UNL     1      14.885  -0.126  52.662  1.00  0.00     0.202 C 
ENDBRANCH  17  18
ENDBRANCH  16  17
ENDBRANCH  12  15
ENDBRANCH   1  11
BRANCH   8  20
HETATM   20  N4  UNL     1      23.617   3.412  50.701  1.00  0.00    -0.349 N 
HETATM   21  C13 UNL     1      23.319   3.049  49.358  1.00  0.00     0.110 A 
HETATM   22  C14 UNL     1      22.275   3.626  48.758  1.00  0.00     0.026 A 
HETATM   23 BR1  UNL     1      21.833   3.180  46.968  1.00  0.00    -0.050 Br
HETATM   24  C15 UNL     1      21.432   4.611  49.422  1.00  0.00     0.018 A 
HETATM   25  C16 UNL     1      21.765   4.907  50.681  1.00  0.00    -0.005 A 
HETATM   26  C17 UNL     1      22.873   4.370  51.487  1.00  0.00     0.156 A 
ENDBRANCH   8  20
BRANCH   7  27
HETATM   27  N3  UNL     1      26.310   4.280  50.355  1.00  0.00    -0.396 N 
HETATM   28  H10 UNL     1      26.720   3.951  49.447  1.00  0.00     0.156 HD
HETATM   29  H11 UNL     1      26.196   5.326  50.468  1.00  0.00     0.156 HD
ENDBRANCH   7  27
TORSDOF 6
ENDMDL
MODEL 5
REMARK VINA RESULT:      -7.7      2.793      4.764
REMARK  6 active torsions:
REMARK  status: ('A' for Active; 'I' for Inactive)
REMARK    1  A    between atoms: O1_2  and  C2_3 
REMARK    2  A    between atoms: C2_3  and  C3_4 
REMARK    3  A    between atoms: C4_5  and  C5_6 
REMARK       I    between atoms: C5_6  and  N1_8 
REMARK    4  A    between atoms: N1_8  and  C6_9 
REMARK    5  A    between atoms: C11_15  and  N3_16 
REMARK    6  A    between atoms: C12_17  and  N4_18 
ROOT
HETATM    1  C6  UNL     1      25.921   2.112  51.233  1.00  0.00     0.036 A 
HETATM    2  C7  UNL     1      26.586   1.088  51.874  1.00  0.00     0.032 A 
HETATM    3  C8  UNL     1      25.891   0.211  52.679  1.00  0.00     0.035 A 
HETATM    4  C9  UNL     1      24.532   0.393  52.818  1.00  0.00     0.069 A 
HETATM    5  N2  UNL     1      23.906  -0.509  53.629  1.00  0.00    -0.258 NA
HETATM    6  C10 UNL     1      22.577  -0.351  53.780  1.00  0.00     0.148 A 
HETATM    7  C11 UNL     1      21.811   0.620  53.200  1.00  0.00     0.071 A 
HETATM    8  C12 UNL     1      22.449   1.527  52.383  1.00  0.00     0.075 A 
HETATM    9  C18 UNL     1      23.814   1.396  52.205  1.00  0.00     0.024 A 
HETATM   10  C19 UNL     1      24.543   2.242  51.415  1.00  0.00     0.045 A 
ENDROOT
BRANCH   1  11
HETATM   11  N1  UNL     1      26.583   3.049  50.388  1.00  0.00    -0.316 N 
HETATM   12  C5  UNL     1      26.320   4.062  49.442  1.00  0.00     0.301 C 
HETATM   13  O2  UNL     1      25.142   4.403  49.087  1.00  0.00    -0.258 OA
HETATM   14  H6  UNL     1      27.560   2.781  50.669  1.00  0.00     0.170 HD
BRANCH  12  15
HETATM   15  C4  UNL     1      27.483   4.709  48.881  1.00  0.00    -0.003 C 
HETATM   16  C3  UNL     1      28.476   5.255  48.425  1.00  0.00    -0.070 C 
BRANCH  16  17
HETATM   17  C2  UNL     1      29.682   5.888  47.878  1.00  0.00     0.261 C 
BRANCH  17  18
HETATM   18  O1  UNL     1      30.769   5.198  48.402  1.00  0.00    -0.384 OA
HETATM   19  C1  UNL     1      31.610   6.140  48.992  1.00  0.00     0.202 C 
ENDBRANCH  17  18
ENDBRANCH  16  17
ENDBRANCH  12  15
ENDBRANCH   1  11
BRANCH   8  20
HETATM   20  N4  UNL     1      21.831   2.609  51.690  1.00  0.00    -0.349 N 
HETATM   21  C13 UNL     1      21.362   2.258  50.393  1.00  0.00     0.110 A 
HETATM   22  C14 UNL     1      20.766   3.197  49.655  1.00  0.00     0.026 A 
HETATM   23 BR1  UNL     1      20.123   2.785  47.919  1.00  0.00    -0.050 Br
HETATM   24  C15 UNL     1      20.577   4.563  50.124  1.00  0.00     0.018 A 
HETATM   25  C16 UNL     1      21.039   4.827  51.349  1.00  0.00    -0.005 A 
HETATM   26  C17 UNL     1      21.715   3.919  52.289  1.00  0.00     0.156 A 
ENDBRANCH   8  20
BRANCH   7  27
HETATM   27  N3  UNL     1      20.429   0.776  53.363  1.00  0.00    -0.396 N 
HETATM   28  H10 UNL     1      20.072   1.073  52.422  1.00  0.00     0.156 HD
HETATM   29  H11 UNL     1      19.707   0.680  54.131  1.00  0.00     0.156 HD
ENDBRANCH   7  27
TORSDOF 6
ENDMDL
MODEL 6
REMARK VINA RESULT:      -7.6      2.633      4.732
REMARK  6 active torsions:
REMARK  status: ('A' for Active; 'I' for Inactive)
REMARK    1  A    between atoms: O1_2  and  C2_3 
REMARK    2  A    between atoms: C2_3  and  C3_4 
REMARK    3  A    between atoms: C4_5  and  C5_6 
REMARK       I    between atoms: C5_6  and  N1_8 
REMARK    4  A    between atoms: N1_8  and  C6_9 
REMARK    5  A    between atoms: C11_15  and  N3_16 
REMARK    6  A    between atoms: C12_17  and  N4_18 
ROOT
HETATM    1  C6  UNL     1      25.902   1.511  52.204  1.00  0.00     0.036 A 
HETATM    2  C7  UNL     1      26.830   0.811  52.945  1.00  0.00     0.032 A 
HETATM    3  C8  UNL     1      26.412  -0.101  53.891  1.00  0.00     0.035 A 
HETATM    4  C9  UNL     1      25.057  -0.282  54.066  1.00  0.00     0.069 A 
HETATM    5  N2  UNL     1      24.712  -1.197  55.018  1.00  0.00    -0.258 NA
HETATM    6  C10 UNL     1      23.392  -1.391  55.206  1.00  0.00     0.148 A 
HETATM    7  C11 UNL     1      22.382  -0.760  54.537  1.00  0.00     0.071 A 
HETATM    8  C12 UNL     1      22.737   0.163  53.577  1.00  0.00     0.075 A 
HETATM    9  C18 UNL     1      24.084   0.388  53.357  1.00  0.00     0.024 A 
HETATM   10  C19 UNL     1      24.543   1.281  52.429  1.00  0.00     0.045 A 
ENDROOT
BRANCH   1  11
HETATM   11  N1  UNL     1      26.273   2.465  51.212  1.00  0.00    -0.316 N 
HETATM   12  C5  UNL     1      25.753   3.157  50.097  1.00  0.00     0.301 C 
HETATM   13  O2  UNL     1      24.557   3.014  49.675  1.00  0.00    -0.258 OA
HETATM   14  H6  UNL     1      27.260   2.595  51.547  1.00  0.00     0.170 HD
BRANCH  12  15
HETATM   15  C4  UNL     1      26.671   4.060  49.442  1.00  0.00    -0.003 C 
HETATM   16  C3  UNL     1      27.460   4.808  48.885  1.00  0.00    -0.070 C 
BRANCH  16  17
HETATM   17  C2  UNL     1      28.400   5.696  48.192  1.00  0.00     0.261 C 
BRANCH  17  18
HETATM   18  O1  UNL     1      29.638   5.065  48.213  1.00  0.00    -0.384 OA
HETATM   19  C1  UNL     1      30.586   6.025  48.565  1.00  0.00     0.202 C 
ENDBRANCH  17  18
ENDBRANCH  16  17
ENDBRANCH  12  15
ENDBRANCH   1  11
BRANCH   8  20
HETATM   20  N4  UNL     1      21.838   0.924  52.774  1.00  0.00    -0.349 N 
HETATM   21  C13 UNL     1      22.024   0.732  51.377  1.00  0.00     0.110 A 
HETATM   22  C14 UNL     1      21.235   1.398  50.531  1.00  0.00     0.026 A 
HETATM   23 BR1  UNL     1      21.439   1.180  48.658  1.00  0.00    -0.050 Br
HETATM   24  C15 UNL     1      20.193   2.311  50.981  1.00  0.00     0.018 A 
HETATM   25  C16 UNL     1      20.070   2.446  52.304  1.00  0.00    -0.005 A 
HETATM   26  C17 UNL     1      20.849   1.794  53.369  1.00  0.00     0.156 A 
ENDBRANCH   8  20
BRANCH   7  27
HETATM   27  N3  UNL     1      21.013  -0.968  54.739  1.00  0.00    -0.396 N 
HETATM   28  H10 UNL     1      20.726  -0.249  55.447  1.00  0.00     0.156 HD
HETATM   29  H11 UNL     1      20.250  -1.614  54.390  1.00  0.00     0.156 HD
ENDBRANCH   7  27
TORSDOF 6
ENDMDL
MODEL 7
REMARK VINA RESULT:      -7.3      2.868      4.988
REMARK  6 active torsions:
REMARK  status: ('A' for Active; 'I' for Inactive)
REMARK    1  A    between atoms: O1_2  and  C2_3 
REMARK    2  A    between atoms: C2_3  and  C3_4 
REMARK    3  A    between atoms: C4_5  and  C5_6 
REMARK       I    between atoms: C5_6  and  N1_8 
REMARK    4  A    between atoms: N1_8  and  C6_9 
REMARK    5  A    between atoms: C11_15  and  N3_16 
REMARK    6  A    between atoms: C12_17  and  N4_18 
ROOT
HETATM    1  C6  UNL     1      26.113   2.733  51.021  1.00  0.00     0.036 A 
HETATM    2  C7  UNL     1      26.756   2.085  52.055  1.00  0.00     0.032 A 
HETATM    3  C8  UNL     1      26.064   1.195  52.849  1.00  0.00     0.035 A 
HETATM    4  C9  UNL     1      24.731   0.981  52.576  1.00  0.00     0.069 A 
HETATM    5  N2  UNL     1      24.106   0.089  53.399  1.00  0.00    -0.258 NA
HETATM    6  C10 UNL     1      22.801  -0.137  53.151  1.00  0.00     0.148 A 
HETATM    7  C11 UNL     1      22.058   0.442  52.161  1.00  0.00     0.071 A 
HETATM    8  C12 UNL     1      22.694   1.341  51.334  1.00  0.00     0.075 A 
HETATM    9  C18 UNL     1      24.034   1.597  51.559  1.00  0.00     0.024 A 
HETATM   10  C19 UNL     1      24.760   2.471  50.797  1.00  0.00     0.045 A 
ENDROOT
BRANCH   1  11
HETATM   11  N1  UNL     1      26.774   3.662  50.168  1.00  0.00    -0.316 N 
HETATM   12  C5  UNL     1      26.508   4.680  49.227  1.00  0.00     0.301 C 
HETATM   13  O2  UNL     1      25.330   5.036  48.890  1.00  0.00    -0.258 OA
HETATM   14  H6  UNL     1      27.751   3.382  50.434  1.00  0.00     0.170 HD
BRANCH  12  15
HETATM   15  C4  UNL     1      27.671   5.314  48.650  1.00  0.00    -0.003 C 
HETATM   16  C3  UNL     1      28.654   5.863  48.175  1.00  0.00    -0.070 C 
BRANCH  16  17
HETATM   17  C2  UNL     1      29.848   6.515  47.627  1.00  0.00     0.261 C 
BRANCH  17  18
HETATM   18  O1  UNL     1      30.740   6.670  48.681  1.00  0.00    -0.384 OA
HETATM   19  C1  UNL     1      30.739   8.021  49.028  1.00  0.00     0.202 C 
ENDBRANCH  17  18
ENDBRANCH  16  17
ENDBRANCH  12  15
ENDBRANCH   1  11
BRANCH   8  20
HETATM   20  N4  UNL     1      22.098   2.048  50.249  1.00  0.00    -0.349 N 
HETATM   21  C13 UNL     1      21.694   3.370  50.587  1.00  0.00     0.110 A 
HETATM   22  C14 UNL     1      21.123   4.122  49.644  1.00  0.00     0.026 A 
HETATM   23 BR1  UNL     1      20.564   5.892  50.039  1.00  0.00    -0.050 Br
HETATM   24  C15 UNL     1      20.898   3.645  48.286  1.00  0.00     0.018 A 
HETATM   25  C16 UNL     1      21.300   2.396  48.034  1.00  0.00    -0.005 A 
HETATM   26  C17 UNL     1      21.941   1.438  48.948  1.00  0.00     0.156 A 
ENDBRANCH   8  20
BRANCH   7  27
HETATM   27  N3  UNL     1      20.702   0.201  51.911  1.00  0.00    -0.396 N 
HETATM   28  H10 UNL     1      20.234   1.136  52.001  1.00  0.00     0.156 HD
HETATM   29  H11 UNL     1      20.074  -0.618  51.673  1.00  0.00     0.156 HD
ENDBRANCH   7  27
TORSDOF 6
ENDMDL
MODEL 8
REMARK VINA RESULT:      -7.2      4.442      6.956
REMARK  6 active torsions:
REMARK  status: ('A' for Active; 'I' for Inactive)
REMARK    1  A    between atoms: O1_2  and  C2_3 
REMARK    2  A    between atoms: C2_3  and  C3_4 
REMARK    3  A    between atoms: C4_5  and  C5_6 
REMARK       I    between atoms: C5_6  and  N1_8 
REMARK    4  A    between atoms: N1_8  and  C6_9 
REMARK    5  A    between atoms: C11_15  and  N3_16 
REMARK    6  A    between atoms: C12_17  and  N4_18 
ROOT
HETATM    1  C6  UNL     1      22.444  -0.415  53.724  1.00  0.00     0.036 A 
HETATM    2  C7  UNL     1      21.855  -1.481  54.372  1.00  0.00     0.032 A 
HETATM    3  C8  UNL     1      20.509  -1.729  54.212  1.00  0.00     0.035 A 
HETATM    4  C9  UNL     1      19.785  -0.887  53.395  1.00  0.00     0.069 A 
HETATM    5  N2  UNL     1      18.459  -1.188  53.280  1.00  0.00    -0.258 NA
HETATM    6  C10 UNL     1      17.731  -0.378  52.487  1.00  0.00     0.148 A 
HETATM    7  C11 UNL     1      18.199   0.703  51.796  1.00  0.00     0.071 A 
HETATM    8  C12 UNL     1      19.538   1.002  51.916  1.00  0.00     0.075 A 
HETATM    9  C18 UNL     1      20.316   0.192  52.723  1.00  0.00     0.024 A 
HETATM   10  C19 UNL     1      21.655   0.400  52.910  1.00  0.00     0.045 A 
ENDROOT
BRANCH   1  11
HETATM   11  N1  UNL     1      23.829  -0.110  53.850  1.00  0.00    -0.316 N 
HETATM   12  C5  UNL     1      24.787   0.854  53.468  1.00  0.00     0.301 C 
HETATM   13  O2  UNL     1      24.508   1.881  52.763  1.00  0.00    -0.258 OA
HETATM   14  H6  UNL     1      24.076  -0.949  54.432  1.00  0.00     0.170 HD
BRANCH  12  15
HETATM   15  C4  UNL     1      26.134   0.610  53.928  1.00  0.00    -0.003 C 
HETATM   16  C3  UNL     1      27.269   0.413  54.334  1.00  0.00    -0.070 C 
BRANCH  16  17
HETATM   17  C2  UNL     1      28.623   0.158  54.839  1.00  0.00     0.261 C 
BRANCH  17  18
HETATM   18  O1  UNL     1      29.503   0.768  53.953  1.00  0.00    -0.384 OA
HETATM   19  C1  UNL     1      29.416   2.144  54.165  1.00  0.00     0.202 C 
ENDBRANCH  17  18
ENDBRANCH  16  17
ENDBRANCH  12  15
ENDBRANCH   1  11
BRANCH   8  20
HETATM   20  N4  UNL     1      20.215   2.083  51.279  1.00  0.00    -0.349 N 
HETATM   21  C13 UNL     1      20.826   1.723  50.045  1.00  0.00     0.110 A 
HETATM   22  C14 UNL     1      21.488   2.661  49.364  1.00  0.00     0.026 A 
HETATM   23 BR1  UNL     1      22.322   2.236  47.714  1.00  0.00    -0.050 Br
HETATM   24  C15 UNL     1      21.611   4.034  49.833  1.00  0.00     0.018 A 
HETATM   25  C16 UNL     1      21.015   4.307  50.997  1.00  0.00    -0.005 A 
HETATM   26  C17 UNL     1      20.251   3.402  51.870  1.00  0.00     0.156 A 
ENDBRANCH   8  20
BRANCH   7  27
HETATM   27  N3  UNL     1      17.435   1.539  50.973  1.00  0.00    -0.396 N 
HETATM   28  H10 UNL     1      16.496   1.076  50.904  1.00  0.00     0.156 HD
HETATM   29  H11 UNL     1      17.550   2.448  50.442  1.00  0.00     0.156 HD
ENDBRANCH   7  27
TORSDOF 6
ENDMDL
MODEL 9
REMARK VINA RESULT:      -7.2      4.911     10.316
REMARK  6 active torsions:
REMARK  status: ('A' for Active; 'I' for Inactive)
REMARK    1  A    between atoms: O1_2  and  C2_3 
REMARK    2  A    between atoms: C2_3  and  C3_4 
REMARK    3  A    between atoms: C4_5  and  C5_6 
REMARK       I    between atoms: C5_6  and  N1_8 
REMARK    4  A    between atoms: N1_8  and  C6_9 
REMARK    5  A    between atoms: C11_15  and  N3_16 
REMARK    6  A    between atoms: C12_17  and  N4_18 
ROOT
HETATM    1  C6  UNL     1      29.966   7.953  48.244  1.00  0.00     0.036 A 
HETATM    2  C7  UNL     1      29.824   9.237  48.727  1.00  0.00     0.032 A 
HETATM    3  C8  UNL     1      30.784  10.188  48.454  1.00  0.00     0.035 A 
HETATM    4  C9  UNL     1      31.873   9.814  47.697  1.00  0.00     0.069 A 
HETATM    5  N2  UNL     1      32.786  10.802  47.465  1.00  0.00    -0.258 NA
HETATM    6  C10 UNL     1      33.859  10.459  46.726  1.00  0.00     0.148 A 
HETATM    7  C11 UNL     1      34.110   9.225  46.196  1.00  0.00     0.071 A 
HETATM    8  C12 UNL     1      33.185   8.233  46.433  1.00  0.00     0.075 A 
HETATM    9  C18 UNL     1      32.071   8.548  47.188  1.00  0.00     0.024 A 
HETATM   10  C19 UNL     1      31.093   7.639  47.482  1.00  0.00     0.045 A 
ENDROOT
BRANCH   1  11
HETATM   11  N1  UNL     1      29.007   6.929  48.491  1.00  0.00    -0.316 N 
HETATM   12  C5  UNL     1      27.661   6.592  48.236  1.00  0.00     0.301 C 
HETATM   13  O2  UNL     1      26.864   7.335  47.570  1.00  0.00    -0.258 OA
HETATM   14  H6  UNL     1      29.650   6.305  49.041  1.00  0.00     0.170 HD
BRANCH  12  15
HETATM   15  C4  UNL     1      27.220   5.330  48.782  1.00  0.00    -0.003 C 
HETATM   16  C3  UNL     1      26.866   4.259  49.252  1.00  0.00    -0.070 C 
BRANCH  16  17
HETATM   17  C2  UNL     1      26.440   2.984  49.841  1.00  0.00     0.261 C 
BRANCH  17  18
HETATM   18  O1  UNL     1      27.089   2.872  51.065  1.00  0.00    -0.384 OA
HETATM   19  C1  UNL     1      26.601   1.723  51.687  1.00  0.00     0.202 C 
ENDBRANCH  17  18
ENDBRANCH  16  17
ENDBRANCH  12  15
ENDBRANCH   1  11
BRANCH   8  20
HETATM   20  N4  UNL     1      33.264   6.887  45.970  1.00  0.00    -0.349 N 
HETATM   21  C13 UNL     1      33.851   5.996  46.911  1.00  0.00     0.110 A 
HETATM   22  C14 UNL     1      33.974   4.709  46.580  1.00  0.00     0.026 A 
HETATM   23 BR1  UNL     1      34.750   3.477  47.796  1.00  0.00    -0.050 Br
HETATM   24  C15 UNL     1      33.532   4.181  45.296  1.00  0.00     0.018 A 
HETATM   25  C16 UNL     1      32.989   5.069  44.458  1.00  0.00    -0.005 A 
HETATM   26  C17 UNL     1      32.779   6.511  44.661  1.00  0.00     0.156 A 
ENDBRANCH   8  20
BRANCH   7  27
HETATM   27  N3  UNL     1      35.229   8.879  45.428  1.00  0.00    -0.396 N 
HETATM   28  H10 UNL     1      35.118   9.404  44.527  1.00  0.00     0.156 HD
HETATM   29  H11 UNL     1      36.091   8.270  45.515  1.00  0.00     0.156 HD
ENDBRANCH   7  27
TORSDOF 6
ENDMDL
