MODEL 1
REMARK VINA RESULT:      -7.3      0.000      0.000
REMARK  4 active torsions:
REMARK  status: ('A' for Active; 'I' for Inactive)
REMARK    1  A    between atoms: C2_2  and  O1_3 
REMARK    2  A    between atoms: O1_3  and  C3_4 
REMARK    3  A    between atoms: C5_6  and  O2_7 
REMARK    4  A    between atoms: C15_20  and  C16_21 
ROOT
HETATM    1  C3  UNL     1      23.463   1.109  52.110  1.00  0.00     0.079 C 
HETATM    2  C4  UNL     1      24.653   0.583  52.355  1.00  0.00     0.071 C 
HETATM    3  C5  UNL     1      25.995   0.979  52.005  1.00  0.00     0.069 C 
HETATM    4  C7  UNL     1      26.507   2.066  51.447  1.00  0.00     0.039 C 
HETATM    5  C8  UNL     1      26.254   3.361  50.893  1.00  0.00     0.137 C 
HETATM    6  C9  UNL     1      26.608   3.567  49.464  1.00  0.00     0.036 C 
HETATM    7  C10 UNL     1      26.269   4.754  48.987  1.00  0.00     0.079 C 
HETATM    8  N1  UNL     1      25.788   5.679  49.734  1.00  0.00    -0.268 NA
HETATM    9  C11 UNL     1      24.793   5.367  50.781  1.00  0.00     0.275 C 
HETATM   10  N2  UNL     1      24.947   3.941  51.057  1.00  0.00    -0.352 N 
HETATM   11  C12 UNL     1      23.658   3.494  51.441  1.00  0.00     0.051 A 
HETATM   12  C13 UNL     1      22.919   4.487  51.978  1.00  0.00     0.142 A 
HETATM   13  N3  UNL     1      21.634   3.991  52.347  1.00  0.00    -0.273 NA
HETATM   14  C14 UNL     1      21.601   2.721  52.039  1.00  0.00     0.116 A 
HETATM   15  C15 UNL     1      22.901   2.265  51.423  1.00  0.00     0.104 A 
ENDROOT
BRANCH   1  16
HETATM   16  O1  UNL     1      22.459   0.320  52.684  1.00  0.00    -0.326 OA
BRANCH  16  17
HETATM   17  C2  UNL     1      22.868  -0.582  53.678  1.00  0.00     0.132 C 
HETATM   18  C1  UNL     1      22.285  -1.009  54.807  1.00  0.00     0.037 C 
ENDBRANCH  16  17
ENDBRANCH   1  16
BRANCH  15  19
HETATM   19  C16 UNL     1      22.497   1.811  50.060  1.00  0.00    -0.003 C 
HETATM   20  C17 UNL     1      22.756   2.426  48.893  1.00  0.00    -0.033 C 
HETATM   21  C18 UNL     1      22.381   2.026  47.493  1.00  0.00     0.036 C 
ENDBRANCH  15  19
BRANCH   3  22
HETATM   22  O2  UNL     1      26.918  -0.029  52.344  1.00  0.00    -0.356 OA
HETATM   23  C6  UNL     1      26.496  -1.291  52.807  1.00  0.00     0.210 C 
ENDBRANCH   3  22
TORSDOF 4
ENDMDL
MODEL 2
REMARK VINA RESULT:      -7.2      2.428      3.909
REMARK  4 active torsions:
REMARK  status: ('A' for Active; 'I' for Inactive)
REMARK    1  A    between atoms: C2_2  and  O1_3 
REMARK    2  A    between atoms: O1_3  and  C3_4 
REMARK    3  A    between atoms: C5_6  and  O2_7 
REMARK    4  A    between atoms: C15_20  and  C16_21 
ROOT
HETATM    1  C3  UNL     1      21.595   1.378  52.771  1.00  0.00     0.079 C 
HETATM    2  C4  UNL     1      21.474   0.317  53.555  1.00  0.00     0.071 C 
HETATM    3  C5  UNL     1      22.426  -0.618  54.100  1.00  0.00     0.069 C 
HETATM    4  C7  UNL     1      23.749  -0.661  54.123  1.00  0.00     0.039 C 
HETATM    5  C8  UNL     1      24.975  -0.023  53.751  1.00  0.00     0.137 C 
HETATM    6  C9  UNL     1      25.876  -0.769  52.834  1.00  0.00     0.036 C 
HETATM    7  C10 UNL     1      26.948  -0.093  52.457  1.00  0.00     0.079 C 
HETATM    8  N1  UNL     1      27.235   1.060  52.943  1.00  0.00    -0.268 NA
HETATM    9  C11 UNL     1      26.181   2.070  53.171  1.00  0.00     0.275 C 
HETATM   10  N2  UNL     1      24.929   1.322  53.240  1.00  0.00    -0.352 N 
HETATM   11  C12 UNL     1      23.938   2.206  52.744  1.00  0.00     0.051 A 
HETATM   12  C13 UNL     1      24.279   3.498  52.925  1.00  0.00     0.142 A 
HETATM   13  N3  UNL     1      23.255   4.348  52.411  1.00  0.00    -0.273 NA
HETATM   14  C14 UNL     1      22.314   3.579  51.931  1.00  0.00     0.116 A 
HETATM   15  C15 UNL     1      22.652   2.117  52.094  1.00  0.00     0.104 A 
ENDROOT
BRANCH   1  16
HETATM   16  O1  UNL     1      20.339   1.949  52.533  1.00  0.00    -0.326 OA
BRANCH  16  17
HETATM   17  C2  UNL     1      19.343   1.083  52.059  1.00  0.00     0.132 C 
HETATM   18  C1  UNL     1      19.023   0.660  50.828  1.00  0.00     0.037 C 
ENDBRANCH  16  17
ENDBRANCH   1  16
BRANCH  15  19
HETATM   19  C16 UNL     1      22.706   1.617  50.689  1.00  0.00    -0.003 C 
HETATM   20  C17 UNL     1      22.197   2.215  49.597  1.00  0.00    -0.033 C 
HETATM   21  C18 UNL     1      22.215   1.769  48.162  1.00  0.00     0.036 C 
ENDBRANCH  15  19
BRANCH   3  22
HETATM   22  O2  UNL     1      21.767  -1.694  54.726  1.00  0.00    -0.356 OA
HETATM   23  C6  UNL     1      20.464  -2.080  54.353  1.00  0.00     0.210 C 
ENDBRANCH   3  22
TORSDOF 4
ENDMDL
MODEL 3
REMARK VINA RESULT:      -6.8      2.264      3.950
REMARK  4 active torsions:
REMARK  status: ('A' for Active; 'I' for Inactive)
REMARK    1  A    between atoms: C2_2  and  O1_3 
REMARK    2  A    between atoms: O1_3  and  C3_4 
REMARK    3  A    between atoms: C5_6  and  O2_7 
REMARK    4  A    between atoms: C15_20  and  C16_21 
ROOT
HETATM    1  C3  UNL     1      25.633   3.073  50.670  1.00  0.00     0.079 C 
HETATM    2  C4  UNL     1      26.682   3.505  49.988  1.00  0.00     0.071 C 
HETATM    3  C5  UNL     1      26.900   4.649  49.136  1.00  0.00     0.069 C 
HETATM    4  C7  UNL     1      26.181   5.725  48.857  1.00  0.00     0.039 C 
HETATM    5  C8  UNL     1      24.968   6.448  49.085  1.00  0.00     0.137 C 
HETATM    6  C9  UNL     1      24.079   6.669  47.913  1.00  0.00     0.036 C 
HETATM    7  C10 UNL     1      22.934   7.263  48.204  1.00  0.00     0.079 C 
HETATM    8  N1  UNL     1      22.677   7.713  49.378  1.00  0.00    -0.268 NA
HETATM    9  C11 UNL     1      23.048   6.944  50.583  1.00  0.00     0.275 C 
HETATM   10  N2  UNL     1      24.101   6.027  50.154  1.00  0.00    -0.352 N 
HETATM   11  C12 UNL     1      23.960   4.884  50.982  1.00  0.00     0.051 A 
HETATM   12  C13 UNL     1      23.397   5.188  52.169  1.00  0.00     0.142 A 
HETATM   13  N3  UNL     1      23.276   4.011  52.966  1.00  0.00    -0.273 NA
HETATM   14  C14 UNL     1      23.760   3.017  52.270  1.00  0.00     0.116 A 
HETATM   15  C15 UNL     1      24.253   3.472  50.918  1.00  0.00     0.104 A 
ENDROOT
BRANCH   1  16
HETATM   16  O1  UNL     1      25.951   1.891  51.348  1.00  0.00    -0.326 OA
BRANCH  16  17
HETATM   17  C2  UNL     1      27.133   1.906  52.104  1.00  0.00     0.132 C 
HETATM   18  C1  UNL     1      27.371   2.122  53.406  1.00  0.00     0.037 C 
ENDBRANCH  16  17
ENDBRANCH   1  16
BRANCH  15  19
HETATM   19  C16 UNL     1      23.398   2.709  49.963  1.00  0.00    -0.003 C 
HETATM   20  C17 UNL     1      23.208   2.973  48.658  1.00  0.00    -0.033 C 
HETATM   21  C18 UNL     1      22.365   2.250  47.644  1.00  0.00     0.036 C 
ENDBRANCH  15  19
BRANCH   3  22
HETATM   22  O2  UNL     1      28.146   4.558  48.487  1.00  0.00    -0.356 OA
HETATM   23  C6  UNL     1      28.921   5.704  48.213  1.00  0.00     0.210 C 
ENDBRANCH   3  22
TORSDOF 4
ENDMDL
MODEL 4
REMARK VINA RESULT:      -6.7      5.298      7.878
REMARK  4 active torsions:
REMARK  status: ('A' for Active; 'I' for Inactive)
REMARK    1  A    between atoms: C2_2  and  O1_3 
REMARK    2  A    between atoms: O1_3  and  C3_4 
REMARK    3  A    between atoms: C5_6  and  O2_7 
REMARK    4  A    between atoms: C15_20  and  C16_21 
ROOT
HETATM    1  C3  UNL     1      27.936   6.293  48.398  1.00  0.00     0.079 C 
HETATM    2  C4  UNL     1      28.994   5.509  48.257  1.00  0.00     0.071 C 
HETATM    3  C5  UNL     1      30.390   5.774  48.012  1.00  0.00     0.069 C 
HETATM    4  C7  UNL     1      31.114   6.882  47.984  1.00  0.00     0.039 C 
HETATM    5  C8  UNL     1      31.133   8.306  48.127  1.00  0.00     0.137 C 
HETATM    6  C9  UNL     1      31.529   9.102  46.935  1.00  0.00     0.036 C 
HETATM    7  C10 UNL     1      31.440  10.411  47.103  1.00  0.00     0.079 C 
HETATM    8  N1  UNL     1      31.152  10.936  48.238  1.00  0.00    -0.268 NA
HETATM    9  C11 UNL     1      30.109  10.349  49.103  1.00  0.00     0.275 C 
HETATM   10  N2  UNL     1      29.969   8.963  48.663  1.00  0.00    -0.352 N 
HETATM   11  C12 UNL     1      28.614   8.628  48.909  1.00  0.00     0.051 A 
HETATM   12  C13 UNL     1      28.088   9.358  49.913  1.00  0.00     0.142 A 
HETATM   13  N3  UNL     1      26.727   8.988  50.124  1.00  0.00    -0.273 NA
HETATM   14  C14 UNL     1      26.440   8.049  49.261  1.00  0.00     0.116 A 
HETATM   15  C15 UNL     1      27.624   7.716  48.387  1.00  0.00     0.104 A 
ENDROOT
BRANCH   1  16
HETATM   16  O1  UNL     1      26.790   5.521  48.625  1.00  0.00    -0.326 OA
BRANCH  16  17
HETATM   17  C2  UNL     1      27.001   4.219  49.102  1.00  0.00     0.132 C 
HETATM   18  C1  UNL     1      26.235   3.383  49.818  1.00  0.00     0.037 C 
ENDBRANCH  16  17
ENDBRANCH   1  16
BRANCH  15  19
HETATM   19  C16 UNL     1      27.144   8.049  47.014  1.00  0.00    -0.003 C 
HETATM   20  C17 UNL     1      27.901   8.334  45.939  1.00  0.00    -0.033 C 
HETATM   21  C18 UNL     1      27.485   8.676  44.535  1.00  0.00     0.036 C 
ENDBRANCH  15  19
BRANCH   3  22
HETATM   22  O2  UNL     1      31.088   4.579  47.753  1.00  0.00    -0.356 OA
HETATM   23  C6  UNL     1      32.469   4.460  48.009  1.00  0.00     0.210 C 
ENDBRANCH   3  22
TORSDOF 4
ENDMDL
MODEL 5
REMARK VINA RESULT:      -6.4      2.296      5.039
REMARK  4 active torsions:
REMARK  status: ('A' for Active; 'I' for Inactive)
REMARK    1  A    between atoms: C2_2  and  O1_3 
REMARK    2  A    between atoms: O1_3  and  C3_4 
REMARK    3  A    between atoms: C5_6  and  O2_7 
REMARK    4  A    between atoms: C15_20  and  C16_21 
ROOT
HETATM    1  C3  UNL     1      24.821   3.349  50.054  1.00  0.00     0.079 C 
HETATM    2  C4  UNL     1      25.709   2.757  50.838  1.00  0.00     0.071 C 
HETATM    3  C5  UNL     1      25.594   1.775  51.888  1.00  0.00     0.069 C 
HETATM    4  C7  UNL     1      24.594   1.030  52.332  1.00  0.00     0.039 C 
HETATM    5  C8  UNL     1      23.215   0.671  52.197  1.00  0.00     0.137 C 
HETATM    6  C9  UNL     1      22.328   0.941  53.359  1.00  0.00     0.036 C 
HETATM    7  C10 UNL     1      21.051   0.671  53.142  1.00  0.00     0.079 C 
HETATM    8  N1  UNL     1      20.646   0.113  52.060  1.00  0.00    -0.268 NA
HETATM    9  C11 UNL     1      21.203   0.504  50.749  1.00  0.00     0.275 C 
HETATM   10  N2  UNL     1      22.490   1.129  51.041  1.00  0.00    -0.352 N 
HETATM   11  C12 UNL     1      22.678   2.092  50.017  1.00  0.00     0.051 A 
HETATM   12  C13 UNL     1      22.024   1.758  48.886  1.00  0.00     0.142 A 
HETATM   13  N3  UNL     1      22.242   2.753  47.887  1.00  0.00    -0.273 NA
HETATM   14  C14 UNL     1      23.016   3.668  48.408  1.00  0.00     0.116 A 
HETATM   15  C15 UNL     1      23.380   3.340  49.836  1.00  0.00     0.104 A 
ENDROOT
BRANCH   1  16
HETATM   16  O1  UNL     1      25.462   4.240  49.185  1.00  0.00    -0.326 OA
BRANCH  16  17
HETATM   17  C2  UNL     1      26.863   4.274  49.251  1.00  0.00     0.132 C 
HETATM   18  C1  UNL     1      27.784   4.979  48.578  1.00  0.00     0.037 C 
ENDBRANCH  16  17
ENDBRANCH   1  16
BRANCH  15  19
HETATM   19  C16 UNL     1      22.812   4.483  50.609  1.00  0.00    -0.003 C 
HETATM   20  C17 UNL     1      22.347   5.643  50.113  1.00  0.00    -0.033 C 
HETATM   21  C18 UNL     1      21.764   6.829  50.829  1.00  0.00     0.036 C 
ENDBRANCH  15  19
BRANCH   3  22
HETATM   22  O2  UNL     1      26.825   1.608  52.551  1.00  0.00    -0.356 OA
HETATM   23  C6  UNL     1      27.369   0.329  52.787  1.00  0.00     0.210 C 
ENDBRANCH   3  22
TORSDOF 4
ENDMDL
MODEL 6
REMARK VINA RESULT:      -6.3      2.688      5.835
REMARK  4 active torsions:
REMARK  status: ('A' for Active; 'I' for Inactive)
REMARK    1  A    between atoms: C2_2  and  O1_3 
REMARK    2  A    between atoms: O1_3  and  C3_4 
REMARK    3  A    between atoms: C5_6  and  O2_7 
REMARK    4  A    between atoms: C15_20  and  C16_21 
ROOT
HETATM    1  C3  UNL     1      24.758   4.625  50.389  1.00  0.00     0.079 C 
HETATM    2  C4  UNL     1      24.513   5.927  50.371  1.00  0.00     0.071 C 
HETATM    3  C5  UNL     1      23.313   6.705  50.553  1.00  0.00     0.069 C 
HETATM    4  C7  UNL     1      22.082   6.403  50.936  1.00  0.00     0.039 C 
HETATM    5  C8  UNL     1      21.177   5.380  51.363  1.00  0.00     0.137 C 
HETATM    6  C9  UNL     1      19.995   5.117  50.500  1.00  0.00     0.036 C 
HETATM    7  C10 UNL     1      19.246   4.103  50.899  1.00  0.00     0.079 C 
HETATM    8  N1  UNL     1      19.464   3.485  52.003  1.00  0.00    -0.268 NA
HETATM    9  C11 UNL     1      20.840   3.163  52.433  1.00  0.00     0.275 C 
HETATM   10  N2  UNL     1      21.706   4.085  51.702  1.00  0.00    -0.352 N 
HETATM   11  C12 UNL     1      22.924   3.385  51.517  1.00  0.00     0.051 A 
HETATM   12  C13 UNL     1      23.125   2.460  52.478  1.00  0.00     0.142 A 
HETATM   13  N3  UNL     1      24.360   1.783  52.252  1.00  0.00    -0.273 NA
HETATM   14  C14 UNL     1      24.894   2.294  51.173  1.00  0.00     0.116 A 
HETATM   15  C15 UNL     1      24.026   3.381  50.585  1.00  0.00     0.104 A 
ENDROOT
BRANCH   1  16
HETATM   16  O1  UNL     1      26.117   4.386  50.152  1.00  0.00    -0.326 OA
BRANCH  16  17
HETATM   17  C2  UNL     1      26.666   4.993  49.013  1.00  0.00     0.132 C 
HETATM   18  C1  UNL     1      27.921   5.075  48.548  1.00  0.00     0.037 C 
ENDBRANCH  16  17
ENDBRANCH   1  16
BRANCH  15  19
HETATM   19  C16 UNL     1      23.685   2.855  49.231  1.00  0.00    -0.003 C 
HETATM   20  C17 UNL     1      22.688   3.270  48.430  1.00  0.00    -0.033 C 
HETATM   21  C18 UNL     1      22.290   2.787  47.063  1.00  0.00     0.036 C 
ENDBRANCH  15  19
BRANCH   3  22
HETATM   22  O2  UNL     1      23.545   8.060  50.247  1.00  0.00    -0.356 OA
HETATM   23  C6  UNL     1      24.782   8.500  49.735  1.00  0.00     0.210 C 
ENDBRANCH   3  22
TORSDOF 4
ENDMDL
MODEL 7
REMARK VINA RESULT:      -6.0      2.512      4.965
REMARK  4 active torsions:
REMARK  status: ('A' for Active; 'I' for Inactive)
REMARK    1  A    between atoms: C2_2  and  O1_3 
REMARK    2  A    between atoms: O1_3  and  C3_4 
REMARK    3  A    between atoms: C5_6  and  O2_7 
REMARK    4  A    between atoms: C15_20  and  C16_21 
ROOT
HETATM    1  C3  UNL     1      23.274   2.725  51.955  1.00  0.00     0.079 C 
HETATM    2  C4  UNL     1      23.726   3.969  52.009  1.00  0.00     0.071 C 
HETATM    3  C5  UNL     1      23.148   5.242  51.656  1.00  0.00     0.069 C 
HETATM    4  C7  UNL     1      21.931   5.620  51.296  1.00  0.00     0.039 C 
HETATM    5  C8  UNL     1      20.582   5.224  51.034  1.00  0.00     0.137 C 
HETATM    6  C9  UNL     1      20.068   5.439  49.655  1.00  0.00     0.036 C 
HETATM    7  C10 UNL     1      18.848   4.972  49.451  1.00  0.00     0.079 C 
HETATM    8  N1  UNL     1      18.135   4.486  50.400  1.00  0.00    -0.268 NA
HETATM    9  C11 UNL     1      18.735   3.609  51.427  1.00  0.00     0.275 C 
HETATM   10  N2  UNL     1      20.167   3.895  51.398  1.00  0.00    -0.352 N 
HETATM   11  C12 UNL     1      20.797   2.680  51.769  1.00  0.00     0.051 A 
HETATM   12  C13 UNL     1      20.000   1.915  52.544  1.00  0.00     0.142 A 
HETATM   13  N3  UNL     1      20.675   0.707  52.891  1.00  0.00    -0.273 NA
HETATM   14  C14 UNL     1      21.858   0.746  52.336  1.00  0.00     0.116 A 
HETATM   15  C15 UNL     1      22.063   2.021  51.554  1.00  0.00     0.104 A 
ENDROOT
BRANCH   1  16
HETATM   16  O1  UNL     1      24.250   1.836  52.424  1.00  0.00    -0.326 OA
BRANCH  16  17
HETATM   17  C2  UNL     1      25.570   2.099  52.032  1.00  0.00     0.132 C 
HETATM   18  C1  UNL     1      26.572   1.300  51.636  1.00  0.00     0.037 C 
ENDBRANCH  16  17
ENDBRANCH   1  16
BRANCH  15  19
HETATM   19  C16 UNL     1      22.277   1.540  50.158  1.00  0.00    -0.003 C 
HETATM   20  C17 UNL     1      22.353   2.292  49.046  1.00  0.00    -0.033 C 
HETATM   21  C18 UNL     1      22.566   1.875  47.617  1.00  0.00     0.036 C 
ENDBRANCH  15  19
BRANCH   3  22
HETATM   22  O2  UNL     1      24.114   6.265  51.722  1.00  0.00    -0.356 OA
HETATM   23  C6  UNL     1      24.067   7.381  50.862  1.00  0.00     0.210 C 
ENDBRANCH   3  22
TORSDOF 4
ENDMDL
MODEL 8
REMARK VINA RESULT:      -6.0      2.758      6.084
REMARK  4 active torsions:
REMARK  status: ('A' for Active; 'I' for Inactive)
REMARK    1  A    between atoms: C2_2  and  O1_3 
REMARK    2  A    between atoms: O1_3  and  C3_4 
REMARK    3  A    between atoms: C5_6  and  O2_7 
REMARK    4  A    between atoms: C15_20  and  C16_21 
ROOT
HETATM    1  C3  UNL     1      24.802   5.216  49.996  1.00  0.00     0.079 C 
HETATM    2  C4  UNL     1      23.930   6.134  50.383  1.00  0.00     0.071 C 
HETATM    3  C5  UNL     1      22.733   6.078  51.184  1.00  0.00     0.069 C 
HETATM    4  C7  UNL     1      22.174   5.129  51.920  1.00  0.00     0.039 C 
HETATM    5  C8  UNL     1      22.250   3.783  52.399  1.00  0.00     0.137 C 
HETATM    6  C9  UNL     1      21.150   2.862  52.009  1.00  0.00     0.036 C 
HETATM    7  C10 UNL     1      21.322   1.612  52.406  1.00  0.00     0.079 C 
HETATM    8  N1  UNL     1      22.297   1.264  53.164  1.00  0.00    -0.268 NA
HETATM    9  C11 UNL     1      23.654   1.809  52.953  1.00  0.00     0.275 C 
HETATM   10  N2  UNL     1      23.467   3.043  52.193  1.00  0.00    -0.352 N 
HETATM   11  C12 UNL     1      24.635   3.173  51.400  1.00  0.00     0.051 A 
HETATM   12  C13 UNL     1      25.697   2.561  51.963  1.00  0.00     0.142 A 
HETATM   13  N3  UNL     1      26.846   2.719  51.133  1.00  0.00    -0.273 NA
HETATM   14  C14 UNL     1      26.481   3.416  50.089  1.00  0.00     0.116 A 
HETATM   15  C15 UNL     1      25.018   3.784  50.149  1.00  0.00     0.104 A 
ENDROOT
BRANCH   1  16
HETATM   16  O1  UNL     1      25.805   5.802  49.214  1.00  0.00    -0.326 OA
BRANCH  16  17
HETATM   17  C2  UNL     1      26.163   7.117  49.545  1.00  0.00     0.132 C 
HETATM   18  C1  UNL     1      26.659   8.130  48.820  1.00  0.00     0.037 C 
ENDBRANCH  16  17
ENDBRANCH   1  16
BRANCH  15  19
HETATM   19  C16 UNL     1      24.445   3.121  48.941  1.00  0.00    -0.003 C 
HETATM   20  C17 UNL     1      23.148   2.863  48.699  1.00  0.00    -0.033 C 
HETATM   21  C18 UNL     1      22.506   2.204  47.510  1.00  0.00     0.036 C 
ENDBRANCH  15  19
BRANCH   3  22
HETATM   22  O2  UNL     1      22.048   7.308  51.147  1.00  0.00    -0.356 OA
HETATM   23  C6  UNL     1      21.058   7.573  50.180  1.00  0.00     0.210 C 
ENDBRANCH   3  22
TORSDOF 4
ENDMDL
MODEL 9
REMARK VINA RESULT:      -5.8     17.775     20.324
REMARK  4 active torsions:
REMARK  status: ('A' for Active; 'I' for Inactive)
REMARK    1  A    between atoms: C2_2  and  O1_3 
REMARK    2  A    between atoms: O1_3  and  C3_4 
REMARK    3  A    between atoms: C5_6  and  O2_7 
REMARK    4  A    between atoms: C15_20  and  C16_21 
ROOT
HETATM    1  C3  UNL     1      42.194   8.120  52.928  1.00  0.00     0.079 C 
HETATM    2  C4  UNL     1      41.094   7.551  53.397  1.00  0.00     0.071 C 
HETATM    3  C5  UNL     1      40.822   6.746  54.562  1.00  0.00     0.069 C 
HETATM    4  C7  UNL     1      41.535   6.419  55.629  1.00  0.00     0.039 C 
HETATM    5  C8  UNL     1      42.781   6.542  56.321  1.00  0.00     0.137 C 
HETATM    6  C9  UNL     1      43.557   5.294  56.547  1.00  0.00     0.036 C 
HETATM    7  C10 UNL     1      44.738   5.484  57.111  1.00  0.00     0.079 C 
HETATM    8  N1  UNL     1      45.118   6.636  57.530  1.00  0.00    -0.268 NA
HETATM    9  C11 UNL     1      44.846   7.856  56.744  1.00  0.00     0.275 C 
HETATM   10  N2  UNL     1      43.736   7.514  55.859  1.00  0.00    -0.352 N 
HETATM   11  C12 UNL     1      43.930   8.303  54.696  1.00  0.00     0.051 A 
HETATM   12  C13 UNL     1      44.612   9.435  54.963  1.00  0.00     0.142 A 
HETATM   13  N3  UNL     1      44.782  10.194  53.767  1.00  0.00    -0.273 NA
HETATM   14  C14 UNL     1      44.210   9.529  52.798  1.00  0.00     0.116 A 
HETATM   15  C15 UNL     1      43.599   8.240  53.293  1.00  0.00     0.104 A 
ENDROOT
BRANCH   1  16
HETATM   16  O1  UNL     1      41.915   8.804  51.738  1.00  0.00    -0.326 OA
BRANCH  16  17
HETATM   17  C2  UNL     1      40.811   8.348  51.003  1.00  0.00     0.132 C 
HETATM   18  C1  UNL     1      40.545   8.327  49.689  1.00  0.00     0.037 C 
ENDBRANCH  16  17
ENDBRANCH   1  16
BRANCH  15  19
HETATM   19  C16 UNL     1      44.341   7.193  52.532  1.00  0.00    -0.003 C 
HETATM   20  C17 UNL     1      45.401   6.483  52.957  1.00  0.00    -0.033 C 
HETATM   21  C18 UNL     1      46.192   5.419  52.247  1.00  0.00     0.036 C 
ENDBRANCH  15  19
BRANCH   3  22
HETATM   22  O2  UNL     1      39.516   6.219  54.511  1.00  0.00    -0.356 OA
HETATM   23  C6  UNL     1      38.572   6.674  53.569  1.00  0.00     0.210 C 
ENDBRANCH   3  22
TORSDOF 4
ENDMDL
