MODEL 1
REMARK VINA RESULT:      -8.0      0.000      0.000
REMARK  2 active torsions:
REMARK  status: ('A' for Active; 'I' for Inactive)
REMARK    1  A    between atoms: C2_2  and  N1_3 
REMARK    2  A    between atoms: N3_6  and  C4_7 
ROOT
HETATM    1  N1  UNL     1      24.420   2.082  52.293  1.00  0.00    -0.342 N 
HETATM    2  C3  UNL     1      24.395   2.962  53.408  1.00  0.00     0.229 C 
HETATM    3  N2  UNL     1      24.014   4.182  53.338  1.00  0.00    -0.164 NA
HETATM    4  N3  UNL     1      23.576   4.786  52.159  1.00  0.00    -0.225 N 
HETATM    5  C8  UNL     1      22.552   3.952  51.624  1.00  0.00     0.231 C 
HETATM    6  N5  UNL     1      22.912   3.143  50.647  1.00  0.00    -0.247 NA
HETATM    7  C9  UNL     1      21.868   2.335  50.152  1.00  0.00     0.039 C 
HETATM    8  C10 UNL     1      22.456   1.458  50.917  1.00  0.00     0.057 C 
HETATM    9  C11 UNL     1      23.537   1.088  51.880  1.00  0.00     0.348 C 
HETATM   10  N6  UNL     1      22.872   0.299  52.949  1.00  0.00     0.113 N 
HETATM   11  C12 UNL     1      21.560   0.926  53.136  1.00  0.00     0.301 C 
HETATM   12  C13 UNL     1      20.603  -0.041  53.668  1.00  0.00     0.026 C 
HETATM   13  C14 UNL     1      19.666  -0.212  52.715  1.00  0.00     0.031 C 
HETATM   14 CL1  UNL     1      18.603  -1.361  53.467  1.00  0.00    -0.085 Cl
HETATM   15  C15 UNL     1      19.496   0.302  51.371  1.00  0.00     0.020 C 
HETATM   16  C16 UNL     1      19.793   0.995  50.284  1.00  0.00    -0.019 C 
HETATM   17  C17 UNL     1      20.610   1.919  49.420  1.00  0.00     0.086 C 
HETATM   18  H16 UNL     1      22.800  -0.690  52.705  1.00  0.00     0.319 HD
ENDROOT
BRANCH   4  19
HETATM   19  C4  UNL     1      23.688   5.862  51.251  1.00  0.00     0.367 C 
HETATM   20  C5  UNL     1      22.389   6.502  50.883  1.00  0.00     0.029 C 
HETATM   21  C6  UNL     1      22.701   7.757  50.484  1.00  0.00     0.003 C 
HETATM   22  C7  UNL     1      24.198   7.922  50.597  1.00  0.00     0.300 C 
HETATM   23  N4  UNL     1      24.438   7.014  51.735  1.00  0.00     0.115 N 
HETATM   24  H12 UNL     1      23.869   7.413  52.522  1.00  0.00     0.319 HD
ENDBRANCH   4  19
BRANCH   1  25
HETATM   25  C2  UNL     1      25.628   2.430  51.580  1.00  0.00     0.122 C 
HETATM   26  C1  UNL     1      26.631   1.255  51.676  1.00  0.00     0.026 C 
ENDBRANCH   1  25
TORSDOF 2
ENDMDL
MODEL 2
REMARK VINA RESULT:      -7.9      3.510      6.425
REMARK  2 active torsions:
REMARK  status: ('A' for Active; 'I' for Inactive)
REMARK    1  A    between atoms: C2_2  and  N1_3 
REMARK    2  A    between atoms: N3_6  and  C4_7 
ROOT
HETATM    1  N1  UNL     1      26.421   1.068  53.329  1.00  0.00    -0.342 N 
HETATM    2  C3  UNL     1      26.493  -0.096  52.517  1.00  0.00     0.229 C 
HETATM    3  N2  UNL     1      25.475  -0.808  52.209  1.00  0.00    -0.164 NA
HETATM    4  N3  UNL     1      24.177  -0.521  52.633  1.00  0.00    -0.225 N 
HETATM    5  C8  UNL     1      23.917   0.834  52.276  1.00  0.00     0.231 C 
HETATM    6  N5  UNL     1      24.039   1.724  53.242  1.00  0.00    -0.247 NA
HETATM    7  C9  UNL     1      23.776   3.050  52.841  1.00  0.00     0.039 C 
HETATM    8  C10 UNL     1      25.079   3.088  52.821  1.00  0.00     0.057 C 
HETATM    9  C11 UNL     1      26.404   2.422  53.006  1.00  0.00     0.348 C 
HETATM   10  N6  UNL     1      27.232   2.841  51.845  1.00  0.00     0.113 N 
HETATM   11  C12 UNL     1      26.308   2.896  50.708  1.00  0.00     0.301 C 
HETATM   12  C13 UNL     1      26.796   3.832  49.699  1.00  0.00     0.026 C 
HETATM   13  C14 UNL     1      25.898   4.836  49.646  1.00  0.00     0.031 C 
HETATM   14 CL1  UNL     1      26.584   5.859  48.421  1.00  0.00    -0.085 Cl
HETATM   15  C15 UNL     1      24.690   5.140  50.384  1.00  0.00     0.020 C 
HETATM   16  C16 UNL     1      23.738   4.973  51.288  1.00  0.00    -0.019 C 
HETATM   17  C17 UNL     1      23.016   4.288  52.417  1.00  0.00     0.086 C 
HETATM   18  H16 UNL     1      27.698   3.734  52.012  1.00  0.00     0.319 HD
ENDROOT
BRANCH   4  19
HETATM   19  C4  UNL     1      22.993  -0.972  53.258  1.00  0.00     0.367 C 
HETATM   20  C5  UNL     1      23.051  -1.000  54.751  1.00  0.00     0.029 C 
HETATM   21  C6  UNL     1      21.766  -0.925  55.167  1.00  0.00     0.003 C 
HETATM   22  C7  UNL     1      20.885  -0.849  53.943  1.00  0.00     0.300 C 
HETATM   23  N4  UNL     1      21.816  -0.142  53.041  1.00  0.00     0.115 N 
HETATM   24  H12 UNL     1      22.017   0.769  53.522  1.00  0.00     0.319 HD
ENDBRANCH   4  19
BRANCH   1  25
HETATM   25  C2  UNL     1      26.349   0.565  54.682  1.00  0.00     0.122 C 
HETATM   26  C1  UNL     1      27.747   0.057  55.110  1.00  0.00     0.026 C 
ENDBRANCH   1  25
TORSDOF 2
ENDMDL
MODEL 3
REMARK VINA RESULT:      -7.8      1.749      4.316
REMARK  2 active torsions:
REMARK  status: ('A' for Active; 'I' for Inactive)
REMARK    1  A    between atoms: C2_2  and  N1_3 
REMARK    2  A    between atoms: N3_6  and  C4_7 
ROOT
HETATM    1  N1  UNL     1      21.848   3.703  51.430  1.00  0.00    -0.342 N 
HETATM    2  C3  UNL     1      22.601   3.481  50.245  1.00  0.00     0.229 C 
HETATM    3  N2  UNL     1      23.625   2.716  50.192  1.00  0.00    -0.164 NA
HETATM    4  N3  UNL     1      24.118   2.009  51.288  1.00  0.00    -0.225 N 
HETATM    5  C8  UNL     1      23.024   1.276  51.832  1.00  0.00     0.231 C 
HETATM    6  N5  UNL     1      22.442   1.801  52.893  1.00  0.00    -0.247 NA
HETATM    7  C9  UNL     1      21.363   1.044  53.394  1.00  0.00     0.039 C 
HETATM    8  C10 UNL     1      20.688   1.948  52.740  1.00  0.00     0.057 C 
HETATM    9  C11 UNL     1      20.643   3.166  51.875  1.00  0.00     0.348 C 
HETATM   10  N6  UNL     1      19.614   2.887  50.839  1.00  0.00     0.113 N 
HETATM   11  C12 UNL     1      19.755   1.461  50.525  1.00  0.00     0.301 C 
HETATM   12  C13 UNL     1      18.494   0.923  50.023  1.00  0.00     0.026 C 
HETATM   13  C14 UNL     1      18.077   0.019  50.932  1.00  0.00     0.031 C 
HETATM   14 CL1  UNL     1      16.596  -0.542  50.220  1.00  0.00    -0.085 Cl
HETATM   15  C15 UNL     1      18.585  -0.419  52.216  1.00  0.00     0.020 C 
HETATM   16  C16 UNL     1      19.402  -0.456  53.256  1.00  0.00    -0.019 C 
HETATM   17  C17 UNL     1      20.595  -0.062  54.085  1.00  0.00     0.086 C 
HETATM   18  H16 UNL     1      18.675   3.124  51.160  1.00  0.00     0.319 HD
ENDROOT
BRANCH   4  19
HETATM   19  C4  UNL     1      25.223   1.686  52.108  1.00  0.00     0.367 C 
HETATM   20  C5  UNL     1      26.550   1.784  51.429  1.00  0.00     0.029 C 
HETATM   21  C6  UNL     1      27.453   1.973  52.418  1.00  0.00     0.003 C 
HETATM   22  C7  UNL     1      26.706   1.998  53.730  1.00  0.00     0.300 C 
HETATM   23  N4  UNL     1      25.430   2.565  53.251  1.00  0.00     0.115 N 
HETATM   24  H12 UNL     1      25.686   3.501  52.849  1.00  0.00     0.319 HD
ENDBRANCH   4  19
BRANCH   1  25
HETATM   25  C2  UNL     1      22.622   4.667  52.179  1.00  0.00     0.122 C 
HETATM   26  C1  UNL     1      22.798   5.948  51.329  1.00  0.00     0.026 C 
ENDBRANCH   1  25
TORSDOF 2
ENDMDL
MODEL 4
REMARK VINA RESULT:      -7.7      3.615      6.624
REMARK  2 active torsions:
REMARK  status: ('A' for Active; 'I' for Inactive)
REMARK    1  A    between atoms: C2_2  and  N1_3 
REMARK    2  A    between atoms: N3_6  and  C4_7 
ROOT
HETATM    1  N1  UNL     1      22.580   3.255  49.943  1.00  0.00    -0.342 N 
HETATM    2  C3  UNL     1      21.955   3.746  51.121  1.00  0.00     0.229 C 
HETATM    3  N2  UNL     1      22.491   3.686  52.283  1.00  0.00    -0.164 NA
HETATM    4  N3  UNL     1      23.748   3.134  52.524  1.00  0.00    -0.225 N 
HETATM    5  C8  UNL     1      24.657   3.772  51.631  1.00  0.00     0.231 C 
HETATM    6  N5  UNL     1      24.972   3.099  50.542  1.00  0.00    -0.247 NA
HETATM    7  C9  UNL     1      25.871   3.771  49.688  1.00  0.00     0.039 C 
HETATM    8  C10 UNL     1      24.761   4.022  49.052  1.00  0.00     0.057 C 
HETATM    9  C11 UNL     1      23.276   3.903  48.926  1.00  0.00     0.348 C 
HETATM   10  N6  UNL     1      22.794   5.255  48.544  1.00  0.00     0.113 N 
HETATM   11  C12 UNL     1      23.648   6.195  49.277  1.00  0.00     0.301 C 
HETATM   12  C13 UNL     1      23.714   7.476  48.579  1.00  0.00     0.026 C 
HETATM   13  C14 UNL     1      24.993   7.627  48.184  1.00  0.00     0.031 C 
HETATM   14 CL1  UNL     1      24.937   9.169  47.386  1.00  0.00    -0.085 Cl
HETATM   15  C15 UNL     1      26.176   6.796  48.273  1.00  0.00     0.020 C 
HETATM   16  C16 UNL     1      26.897   5.730  48.583  1.00  0.00    -0.019 C 
HETATM   17  C17 UNL     1      27.156   4.359  49.146  1.00  0.00     0.086 C 
HETATM   18  H16 UNL     1      22.831   5.402  47.534  1.00  0.00     0.319 HD
ENDROOT
BRANCH   4  19
HETATM   19  C4  UNL     1      24.535   2.222  53.263  1.00  0.00     0.367 C 
HETATM   20  C5  UNL     1      24.463   0.809  52.784  1.00  0.00     0.029 C 
HETATM   21  C6  UNL     1      25.606   0.222  53.208  1.00  0.00     0.003 C 
HETATM   22  C7  UNL     1      26.410   1.257  53.956  1.00  0.00     0.300 C 
HETATM   23  N4  UNL     1      25.972   2.458  53.218  1.00  0.00     0.115 N 
HETATM   24  H12 UNL     1      26.259   2.282  52.224  1.00  0.00     0.319 HD
ENDBRANCH   4  19
BRANCH   1  25
HETATM   25  C2  UNL     1      22.360   1.827  49.982  1.00  0.00     0.122 C 
HETATM   26  C1  UNL     1      21.830   1.356  48.606  1.00  0.00     0.026 C 
ENDBRANCH   1  25
TORSDOF 2
ENDMDL
MODEL 5
REMARK VINA RESULT:      -7.4      2.782      4.613
REMARK  2 active torsions:
REMARK  status: ('A' for Active; 'I' for Inactive)
REMARK    1  A    between atoms: C2_2  and  N1_3 
REMARK    2  A    between atoms: N3_6  and  C4_7 
ROOT
HETATM    1  N1  UNL     1      24.010   3.929  50.481  1.00  0.00    -0.342 N 
HETATM    2  C3  UNL     1      23.805   5.115  51.237  1.00  0.00     0.229 C 
HETATM    3  N2  UNL     1      22.696   5.408  51.807  1.00  0.00    -0.164 NA
HETATM    4  N3  UNL     1      21.564   4.596  51.753  1.00  0.00    -0.225 N 
HETATM    5  C8  UNL     1      21.968   3.296  52.174  1.00  0.00     0.231 C 
HETATM    6  N5  UNL     1      22.196   2.419  51.216  1.00  0.00    -0.247 NA
HETATM    7  C9  UNL     1      22.597   1.149  51.679  1.00  0.00     0.039 C 
HETATM    8  C10 UNL     1      23.766   1.620  51.346  1.00  0.00     0.057 C 
HETATM    9  C11 UNL     1      24.620   2.720  50.804  1.00  0.00     0.348 C 
HETATM   10  N6  UNL     1      25.805   2.789  51.699  1.00  0.00     0.113 N 
HETATM   11  C12 UNL     1      25.293   2.511  53.044  1.00  0.00     0.301 C 
HETATM   12  C13 UNL     1      26.349   1.957  53.888  1.00  0.00     0.026 C 
HETATM   13  C14 UNL     1      25.975   0.698  54.187  1.00  0.00     0.031 C 
HETATM   14 CL1  UNL     1      27.293   0.166  55.185  1.00  0.00    -0.085 Cl
HETATM   15  C15 UNL     1      24.850  -0.132  53.807  1.00  0.00     0.020 C 
HETATM   16  C16 UNL     1      23.722  -0.450  53.194  1.00  0.00    -0.019 C 
HETATM   17  C17 UNL     1      22.531  -0.230  52.300  1.00  0.00     0.086 C 
HETATM   18  H16 UNL     1      26.534   2.133  51.416  1.00  0.00     0.319 HD
ENDROOT
BRANCH   4  19
HETATM   19  C4  UNL     1      20.184   4.480  51.470  1.00  0.00     0.367 C 
HETATM   20  C5  UNL     1      19.851   4.425  50.015  1.00  0.00     0.029 C 
HETATM   21  C6  UNL     1      18.652   3.804  49.938  1.00  0.00     0.003 C 
HETATM   22  C7  UNL     1      18.217   3.460  51.342  1.00  0.00     0.300 C 
HETATM   23  N4  UNL     1      19.549   3.260  51.947  1.00  0.00     0.115 N 
HETATM   24  H12 UNL     1      19.980   2.478  51.394  1.00  0.00     0.319 HD
ENDBRANCH   4  19
BRANCH   1  25
HETATM   25  C2  UNL     1      23.410   4.208  49.196  1.00  0.00     0.122 C 
HETATM   26  C1  UNL     1      24.089   5.455  48.579  1.00  0.00     0.026 C 
ENDBRANCH   1  25
TORSDOF 2
ENDMDL
MODEL 6
REMARK VINA RESULT:      -7.3      2.384      4.274
REMARK  2 active torsions:
REMARK  status: ('A' for Active; 'I' for Inactive)
REMARK    1  A    between atoms: C2_2  and  N1_3 
REMARK    2  A    between atoms: N3_6  and  C4_7 
ROOT
HETATM    1  N1  UNL     1      22.497   4.619  51.106  1.00  0.00    -0.342 N 
HETATM    2  C3  UNL     1      22.446   4.421  49.700  1.00  0.00     0.229 C 
HETATM    3  N2  UNL     1      23.485   4.388  48.953  1.00  0.00    -0.164 NA
HETATM    4  N3  UNL     1      24.785   4.539  49.433  1.00  0.00    -0.225 N 
HETATM    5  C8  UNL     1      24.947   3.595  50.489  1.00  0.00     0.231 C 
HETATM    6  N5  UNL     1      24.828   4.068  51.715  1.00  0.00    -0.247 NA
HETATM    7  C9  UNL     1      24.993   3.098  52.725  1.00  0.00     0.039 C 
HETATM    8  C10 UNL     1      23.690   3.161  52.715  1.00  0.00     0.057 C 
HETATM    9  C11 UNL     1      22.418   3.724  52.170  1.00  0.00     0.348 C 
HETATM   10  N6  UNL     1      21.504   2.565  52.000  1.00  0.00     0.113 N 
HETATM   11  C12 UNL     1      22.358   1.457  51.561  1.00  0.00     0.301 C 
HETATM   12  C13 UNL     1      21.762   0.176  51.930  1.00  0.00     0.026 C 
HETATM   13  C14 UNL     1      22.596  -0.388  52.825  1.00  0.00     0.031 C 
HETATM   14 CL1  UNL     1      21.786  -1.885  53.170  1.00  0.00    -0.085 Cl
HETATM   15  C15 UNL     1      23.825   0.042  53.461  1.00  0.00     0.020 C 
HETATM   16  C16 UNL     1      24.833   0.850  53.744  1.00  0.00    -0.019 C 
HETATM   17  C17 UNL     1      25.655   2.108  53.659  1.00  0.00     0.086 C 
HETATM   18  H16 UNL     1      20.998   2.349  52.860  1.00  0.00     0.319 HD
ENDROOT
BRANCH   4  19
HETATM   19  C4  UNL     1      26.026   5.209  49.343  1.00  0.00     0.367 C 
HETATM   20  C5  UNL     1      27.176   4.336  48.960  1.00  0.00     0.029 C 
HETATM   21  C6  UNL     1      28.098   5.164  48.417  1.00  0.00     0.003 C 
HETATM   22  C7  UNL     1      27.540   6.566  48.452  1.00  0.00     0.300 C 
HETATM   23  N4  UNL     1      26.106   6.240  48.317  1.00  0.00     0.115 N 
HETATM   24  H12 UNL     1      26.031   5.736  47.399  1.00  0.00     0.319 HD
ENDBRANCH   4  19
BRANCH   1  25
HETATM   25  C2  UNL     1      22.673   6.044  51.268  1.00  0.00     0.122 C 
HETATM   26  C1  UNL     1      21.414   6.775  50.742  1.00  0.00     0.026 C 
ENDBRANCH   1  25
TORSDOF 2
ENDMDL
MODEL 7
REMARK VINA RESULT:      -7.1      2.710      3.920
REMARK  2 active torsions:
REMARK  status: ('A' for Active; 'I' for Inactive)
REMARK    1  A    between atoms: C2_2  and  N1_3 
REMARK    2  A    between atoms: N3_6  and  C4_7 
ROOT
HETATM    1  N1  UNL     1      25.404   5.728  50.057  1.00  0.00    -0.342 N 
HETATM    2  C3  UNL     1      24.916   6.762  50.900  1.00  0.00     0.229 C 
HETATM    3  N2  UNL     1      23.882   7.467  50.629  1.00  0.00    -0.164 NA
HETATM    4  N3  UNL     1      23.115   7.298  49.477  1.00  0.00    -0.225 N 
HETATM    5  C8  UNL     1      22.761   5.919  49.415  1.00  0.00     0.231 C 
HETATM    6  N5  UNL     1      23.483   5.168  48.606  1.00  0.00    -0.247 NA
HETATM    7  C9  UNL     1      23.099   3.812  48.580  1.00  0.00     0.039 C 
HETATM    8  C10 UNL     1      24.129   3.716  49.374  1.00  0.00     0.057 C 
HETATM    9  C11 UNL     1      25.265   4.344  50.115  1.00  0.00     0.348 C 
HETATM   10  N6  UNL     1      25.251   3.731  51.469  1.00  0.00     0.113 N 
HETATM   11  C12 UNL     1      23.833   3.557  51.803  1.00  0.00     0.301 C 
HETATM   12  C13 UNL     1      23.665   2.469  52.762  1.00  0.00     0.026 C 
HETATM   13  C14 UNL     1      22.967   1.507  52.127  1.00  0.00     0.031 C 
HETATM   14 CL1  UNL     1      22.831   0.294  53.362  1.00  0.00    -0.085 Cl
HETATM   15  C15 UNL     1      22.460   1.361  50.778  1.00  0.00     0.020 C 
HETATM   16  C16 UNL     1      22.234   1.693  49.517  1.00  0.00    -0.019 C 
HETATM   17  C17 UNL     1      22.300   2.560  48.288  1.00  0.00     0.086 C 
HETATM   18  H16 UNL     1      25.768   2.851  51.495  1.00  0.00     0.319 HD
ENDROOT
BRANCH   4  19
HETATM   19  C4  UNL     1      22.522   7.883  48.335  1.00  0.00     0.367 C 
HETATM   20  C5  UNL     1      22.168   9.326  48.489  1.00  0.00     0.029 C 
HETATM   21  C6  UNL     1      22.133   9.829  47.234  1.00  0.00     0.003 C 
HETATM   22  C7  UNL     1      22.465   8.710  46.276  1.00  0.00     0.300 C 
HETATM   23  N4  UNL     1      23.364   7.928  47.148  1.00  0.00     0.115 N 
HETATM   24  H12 UNL     1      24.150   8.584  47.381  1.00  0.00     0.319 HD
ENDBRANCH   4  19
BRANCH   1  25
HETATM   25  C2  UNL     1      26.133   6.418  49.017  1.00  0.00     0.122 C 
HETATM   26  C1  UNL     1      27.332   5.546  48.573  1.00  0.00     0.026 C 
ENDBRANCH   1  25
TORSDOF 2
ENDMDL
MODEL 8
REMARK VINA RESULT:      -7.1      1.813      2.371
REMARK  2 active torsions:
REMARK  status: ('A' for Active; 'I' for Inactive)
REMARK    1  A    between atoms: C2_2  and  N1_3 
REMARK    2  A    between atoms: N3_6  and  C4_7 
ROOT
HETATM    1  N1  UNL     1      23.808   3.046  50.717  1.00  0.00    -0.342 N 
HETATM    2  C3  UNL     1      24.160   4.030  51.679  1.00  0.00     0.229 C 
HETATM    3  N2  UNL     1      23.394   5.001  52.011  1.00  0.00    -0.164 NA
HETATM    4  N3  UNL     1      22.125   5.202  51.468  1.00  0.00    -0.225 N 
HETATM    5  C8  UNL     1      21.411   3.978  51.623  1.00  0.00     0.231 C 
HETATM    6  N5  UNL     1      21.347   3.203  50.557  1.00  0.00    -0.247 NA
HETATM    7  C9  UNL     1      20.634   2.003  50.759  1.00  0.00     0.039 C 
HETATM    8  C10 UNL     1      21.848   1.537  50.861  1.00  0.00     0.057 C 
HETATM    9  C11 UNL     1      23.328   1.747  50.855  1.00  0.00     0.348 C 
HETATM   10  N6  UNL     1      23.851   0.960  52.002  1.00  0.00     0.113 N 
HETATM   11  C12 UNL     1      22.843   1.093  53.058  1.00  0.00     0.301 C 
HETATM   12  C13 UNL     1      22.897  -0.051  53.963  1.00  0.00     0.026 C 
HETATM   13  C14 UNL     1      21.727  -0.704  53.822  1.00  0.00     0.031 C 
HETATM   14 CL1  UNL     1      21.918  -2.017  54.942  1.00  0.00    -0.085 Cl
HETATM   15  C15 UNL     1      20.570  -0.516  52.972  1.00  0.00     0.020 C 
HETATM   16  C16 UNL     1      19.823   0.047  52.037  1.00  0.00    -0.019 C 
HETATM   17  C17 UNL     1      19.480   1.046  50.963  1.00  0.00     0.086 C 
HETATM   18  H16 UNL     1      24.024  -0.014  51.749  1.00  0.00     0.319 HD
ENDROOT
BRANCH   4  19
HETATM   19  C4  UNL     1      21.220   6.079  50.831  1.00  0.00     0.367 C 
HETATM   20  C5  UNL     1      21.639   7.513  50.832  1.00  0.00     0.029 C 
HETATM   21  C6  UNL     1      20.997   8.083  49.787  1.00  0.00     0.003 C 
HETATM   22  C7  UNL     1      20.167   7.016  49.115  1.00  0.00     0.300 C 
HETATM   23  N4  UNL     1      21.024   5.849  49.406  1.00  0.00     0.115 N 
HETATM   24  H12 UNL     1      21.944   6.072  48.952  1.00  0.00     0.319 HD
ENDBRANCH   4  19
BRANCH   1  25
HETATM   25  C2  UNL     1      24.044   3.683  49.441  1.00  0.00     0.122 C 
HETATM   26  C1  UNL     1      25.541   4.064  49.332  1.00  0.00     0.026 C 
ENDBRANCH   1  25
TORSDOF 2
ENDMDL
MODEL 9
REMARK VINA RESULT:      -7.0      3.238      6.188
REMARK  2 active torsions:
REMARK  status: ('A' for Active; 'I' for Inactive)
REMARK    1  A    between atoms: C2_2  and  N1_3 
REMARK    2  A    between atoms: N3_6  and  C4_7 
ROOT
HETATM    1  N1  UNL     1      21.939   3.160  49.869  1.00  0.00    -0.342 N 
HETATM    2  C3  UNL     1      21.137   2.947  51.023  1.00  0.00     0.229 C 
HETATM    3  N2  UNL     1      21.616   2.807  52.201  1.00  0.00    -0.164 NA
HETATM    4  N3  UNL     1      22.980   2.850  52.489  1.00  0.00    -0.225 N 
HETATM    5  C8  UNL     1      23.482   4.060  51.929  1.00  0.00     0.231 C 
HETATM    6  N5  UNL     1      24.100   3.952  50.770  1.00  0.00    -0.247 NA
HETATM    7  C9  UNL     1      24.576   5.175  50.253  1.00  0.00     0.039 C 
HETATM    8  C10 UNL     1      23.493   5.061  49.537  1.00  0.00     0.057 C 
HETATM    9  C11 UNL     1      22.253   4.317  49.161  1.00  0.00     0.348 C 
HETATM   10  N6  UNL     1      21.184   5.343  49.052  1.00  0.00     0.113 N 
HETATM   11  C12 UNL     1      21.466   6.313  50.115  1.00  0.00     0.301 C 
HETATM   12  C13 UNL     1      20.917   7.622  49.771  1.00  0.00     0.026 C 
HETATM   13  C14 UNL     1      21.971   8.449  49.625  1.00  0.00     0.031 C 
HETATM   14 CL1  UNL     1      21.190   9.950  49.231  1.00  0.00    -0.085 Cl
HETATM   15  C15 UNL     1      23.406   8.266  49.687  1.00  0.00     0.020 C 
HETATM   16  C16 UNL     1      24.547   7.612  49.832  1.00  0.00    -0.019 C 
HETATM   17  C17 UNL     1      25.426   6.414  50.075  1.00  0.00     0.086 C 
HETATM   18  H16 UNL     1      21.162   5.775  48.128  1.00  0.00     0.319 HD
ENDROOT
BRANCH   4  19
HETATM   19  C4  UNL     1      24.097   2.231  53.093  1.00  0.00     0.367 C 
HETATM   20  C5  UNL     1      24.696   1.117  52.298  1.00  0.00     0.029 C 
HETATM   21  C6  UNL     1      25.978   1.018  52.717  1.00  0.00     0.003 C 
HETATM   22  C7  UNL     1      26.201   2.067  53.780  1.00  0.00     0.300 C 
HETATM   23  N4  UNL     1      25.258   3.089  53.288  1.00  0.00     0.115 N 
HETATM   24  H12 UNL     1      25.600   3.329  52.324  1.00  0.00     0.319 HD
ENDBRANCH   4  19
BRANCH   1  25
HETATM   25  C2  UNL     1      22.436   1.848  49.523  1.00  0.00     0.122 C 
HETATM   26  C1  UNL     1      21.307   1.042  48.836  1.00  0.00     0.026 C 
ENDBRANCH   1  25
TORSDOF 2
ENDMDL
