MODEL 1
REMARK VINA RESULT:      -7.9      0.000      0.000
REMARK  2 active torsions:
REMARK  status: ('A' for Active; 'I' for Inactive)
REMARK    1  A    between atoms: C2_2  and  C3_3 
REMARK       I    between atoms: C3_3  and  N1_5 
REMARK    2  A    between atoms: N2_10  and  C8_11 
ROOT
HETATM    1  C3  UNL     1      25.513   6.603  49.590  1.00  0.00     0.240 C 
HETATM    2  O1  UNL     1      26.029   7.456  50.346  1.00  0.00    -0.269 OA
HETATM    3  N1  UNL     1      24.349   5.893  49.975  1.00  0.00    -0.341 N 
HETATM    4  C4  UNL     1      23.846   6.254  51.288  1.00  0.00     0.154 C 
HETATM    5  C5  UNL     1      23.505   5.103  52.153  1.00  0.00    -0.001 C 
HETATM    6  C6  UNL     1      22.537   4.179  52.188  1.00  0.00    -0.045 C 
HETATM    7  C7  UNL     1      23.293   3.035  52.824  1.00  0.00     0.161 C 
HETATM    8  N2  UNL     1      23.577   2.019  51.786  1.00  0.00    -0.350 N 
HETATM    9  C14 UNL     1      22.888   1.885  50.520  1.00  0.00     0.232 C 
HETATM   10  C15 UNL     1      23.274   2.899  49.499  1.00  0.00     0.037 C 
HETATM   11  C16 UNL     1      22.789   4.136  49.464  1.00  0.00    -0.003 C 
HETATM   12  C17 UNL     1      23.932   4.942  48.916  1.00  0.00     0.172 C 
HETATM   13  S1  UNL     1      21.141   4.714  49.998  1.00  0.00    -0.118 SA
HETATM   14  C18 UNL     1      21.092   4.113  51.746  1.00  0.00     0.122 C 
HETATM   15  C19 UNL     1      20.779   2.647  51.528  1.00  0.00     0.106 C 
HETATM   16  N3  UNL     1      21.489   1.868  50.813  1.00  0.00    -0.274 NA
ENDROOT
BRANCH   8  17
HETATM   17  C8  UNL     1      24.634   1.152  52.182  1.00  0.00     0.032 A 
HETATM   18  C9  UNL     1      25.943   1.228  51.760  1.00  0.00     0.029 A 
HETATM   19  C10 UNL     1      26.953   0.373  52.143  1.00  0.00     0.002 A 
HETATM   20  C11 UNL     1      26.659  -0.648  53.016  1.00  0.00     0.000 A 
HETATM   21  C12 UNL     1      25.368  -0.765  53.465  1.00  0.00     0.002 A 
HETATM   22  C13 UNL     1      24.401   0.111  53.053  1.00  0.00     0.029 A 
ENDBRANCH   8  17
BRANCH   1  23
HETATM   23  C2  UNL     1      26.151   6.367  48.303  1.00  0.00     0.048 C 
HETATM   24  C1  UNL     1      27.390   5.985  48.624  1.00  0.00     0.037 C 
ENDBRANCH   1  23
TORSDOF 2
ENDMDL
MODEL 2
REMARK VINA RESULT:      -7.7      6.365      9.898
REMARK  2 active torsions:
REMARK  status: ('A' for Active; 'I' for Inactive)
REMARK    1  A    between atoms: C2_2  and  C3_3 
REMARK       I    between atoms: C3_3  and  N1_5 
REMARK    2  A    between atoms: N2_10  and  C8_11 
ROOT
HETATM    1  C3  UNL     1      34.323   5.246  47.147  1.00  0.00     0.240 C 
HETATM    2  O1  UNL     1      34.946   4.874  48.166  1.00  0.00    -0.269 OA
HETATM    3  N1  UNL     1      33.664   6.499  47.109  1.00  0.00    -0.341 N 
HETATM    4  C4  UNL     1      33.791   7.269  48.333  1.00  0.00     0.154 C 
HETATM    5  C5  UNL     1      32.524   7.852  48.827  1.00  0.00    -0.001 C 
HETATM    6  C6  UNL     1      31.710   8.846  48.449  1.00  0.00    -0.045 C 
HETATM    7  C7  UNL     1      30.392   8.309  48.957  1.00  0.00     0.161 C 
HETATM    8  N2  UNL     1      29.592   7.847  47.802  1.00  0.00    -0.350 N 
HETATM    9  C14 UNL     1      29.789   8.236  46.422  1.00  0.00     0.232 C 
HETATM   10  C15 UNL     1      30.952   7.580  45.759  1.00  0.00     0.037 C 
HETATM   11  C16 UNL     1      32.211   7.985  45.900  1.00  0.00    -0.003 C 
HETATM   12  C17 UNL     1      32.998   6.710  45.800  1.00  0.00     0.172 C 
HETATM   13  S1  UNL     1      32.821   9.682  46.191  1.00  0.00    -0.118 SA
HETATM   14  C18 UNL     1      31.877  10.154  47.709  1.00  0.00     0.122 C 
HETATM   15  C19 UNL     1      30.526  10.479  47.108  1.00  0.00     0.106 C 
HETATM   16  N3  UNL     1      29.848   9.664  46.403  1.00  0.00    -0.274 NA
ENDROOT
BRANCH   8  17
HETATM   17  C8  UNL     1      28.563   6.950  48.208  1.00  0.00     0.032 A 
HETATM   18  C9  UNL     1      28.672   5.579  48.289  1.00  0.00     0.029 A 
HETATM   19  C10 UNL     1      27.663   4.722  48.672  1.00  0.00     0.002 A 
HETATM   20  C11 UNL     1      26.438   5.251  49.005  1.00  0.00     0.000 A 
HETATM   21  C12 UNL     1      26.280   6.613  48.939  1.00  0.00     0.002 A 
HETATM   22  C13 UNL     1      27.315   7.420  48.552  1.00  0.00     0.029 A 
ENDBRANCH   8  17
BRANCH   1  23
HETATM   23  C2  UNL     1      34.298   4.344  46.004  1.00  0.00     0.048 C 
HETATM   24  C1  UNL     1      35.058   3.315  46.389  1.00  0.00     0.037 C 
ENDBRANCH   1  23
TORSDOF 2
ENDMDL
MODEL 3
REMARK VINA RESULT:      -7.5      1.973      2.638
REMARK  2 active torsions:
REMARK  status: ('A' for Active; 'I' for Inactive)
REMARK    1  A    between atoms: C2_2  and  C3_3 
REMARK       I    between atoms: C3_3  and  N1_5 
REMARK    2  A    between atoms: N2_10  and  C8_11 
ROOT
HETATM    1  C3  UNL     1      24.645   4.988  50.063  1.00  0.00     0.240 C 
HETATM    2  O1  UNL     1      24.896   5.963  50.805  1.00  0.00    -0.269 OA
HETATM    3  N1  UNL     1      23.327   4.481  49.943  1.00  0.00    -0.341 N 
HETATM    4  C4  UNL     1      22.347   5.191  50.744  1.00  0.00     0.154 C 
HETATM    5  C5  UNL     1      21.438   4.318  51.519  1.00  0.00    -0.001 C 
HETATM    6  C6  UNL     1      20.414   3.502  51.237  1.00  0.00    -0.045 C 
HETATM    7  C7  UNL     1      20.563   2.502  52.361  1.00  0.00     0.161 C 
HETATM    8  N2  UNL     1      21.106   1.243  51.804  1.00  0.00    -0.350 N 
HETATM    9  C14 UNL     1      21.074   0.847  50.412  1.00  0.00     0.232 C 
HETATM   10  C15 UNL     1      22.069   1.546  49.551  1.00  0.00     0.037 C 
HETATM   11  C16 UNL     1      21.893   2.767  49.056  1.00  0.00    -0.003 C 
HETATM   12  C17 UNL     1      23.286   3.328  49.010  1.00  0.00     0.172 C 
HETATM   13  S1  UNL     1      20.323   3.575  48.588  1.00  0.00    -0.118 SA
HETATM   14  C18 UNL     1      19.357   3.431  50.159  1.00  0.00     0.122 C 
HETATM   15  C19 UNL     1      18.919   1.984  50.085  1.00  0.00     0.106 C 
HETATM   16  N3  UNL     1      19.723   1.004  49.971  1.00  0.00    -0.274 NA
ENDROOT
BRANCH   8  17
HETATM   17  C8  UNL     1      21.678   0.428  52.822  1.00  0.00     0.032 A 
HETATM   18  C9  UNL     1      23.024   0.228  53.036  1.00  0.00     0.029 A 
HETATM   19  C10 UNL     1      23.562  -0.574  54.018  1.00  0.00     0.002 A 
HETATM   20  C11 UNL     1      22.711  -1.240  54.868  1.00  0.00     0.000 A 
HETATM   21  C12 UNL     1      21.360  -1.073  54.694  1.00  0.00     0.002 A 
HETATM   22  C13 UNL     1      20.876  -0.265  53.702  1.00  0.00     0.029 A 
ENDBRANCH   8  17
BRANCH   1  23
HETATM   23  C2  UNL     1      25.753   4.394  49.329  1.00  0.00     0.048 C 
HETATM   24  C1  UNL     1      26.479   5.444  48.936  1.00  0.00     0.037 C 
ENDBRANCH   1  23
TORSDOF 2
ENDMDL
MODEL 4
REMARK VINA RESULT:      -7.2      1.194      1.570
REMARK  2 active torsions:
REMARK  status: ('A' for Active; 'I' for Inactive)
REMARK    1  A    between atoms: C2_2  and  C3_3 
REMARK       I    between atoms: C3_3  and  N1_5 
REMARK    2  A    between atoms: N2_10  and  C8_11 
ROOT
HETATM    1  C3  UNL     1      26.280   7.037  49.347  1.00  0.00     0.240 C 
HETATM    2  O1  UNL     1      26.771   7.930  50.073  1.00  0.00    -0.269 OA
HETATM    3  N1  UNL     1      24.965   6.557  49.565  1.00  0.00    -0.341 N 
HETATM    4  C4  UNL     1      24.283   7.193  50.677  1.00  0.00     0.154 C 
HETATM    5  C5  UNL     1      23.601   6.255  51.597  1.00  0.00    -0.001 C 
HETATM    6  C6  UNL     1      22.509   5.482  51.547  1.00  0.00    -0.045 C 
HETATM    7  C7  UNL     1      22.934   4.372  52.481  1.00  0.00     0.161 C 
HETATM    8  N2  UNL     1      23.246   3.170  51.676  1.00  0.00    -0.350 N 
HETATM    9  C14 UNL     1      22.803   2.917  50.322  1.00  0.00     0.232 C 
HETATM   10  C15 UNL     1      23.536   3.689  49.280  1.00  0.00     0.037 C 
HETATM   11  C16 UNL     1      23.272   4.956  48.973  1.00  0.00    -0.003 C 
HETATM   12  C17 UNL     1      24.614   5.505  48.580  1.00  0.00     0.172 C 
HETATM   13  S1  UNL     1      21.666   5.821  49.056  1.00  0.00    -0.118 SA
HETATM   14  C18 UNL     1      21.185   5.530  50.817  1.00  0.00     0.122 C 
HETATM   15  C19 UNL     1      20.689   4.102  50.738  1.00  0.00     0.106 C 
HETATM   16  N3  UNL     1      21.389   3.130  50.306  1.00  0.00    -0.274 NA
ENDROOT
BRANCH   8  17
HETATM   17  C8  UNL     1      24.054   2.252  52.405  1.00  0.00     0.032 A 
HETATM   18  C9  UNL     1      23.867   0.889  52.474  1.00  0.00     0.029 A 
HETATM   19  C10 UNL     1      24.650   0.014  53.194  1.00  0.00     0.002 A 
HETATM   20  C11 UNL     1      25.711   0.514  53.911  1.00  0.00     0.000 A 
HETATM   21  C12 UNL     1      25.939   1.866  53.874  1.00  0.00     0.002 A 
HETATM   22  C13 UNL     1      25.130   2.693  53.142  1.00  0.00     0.029 A 
ENDBRANCH   8  17
BRANCH   1  23
HETATM   23  C2  UNL     1      27.109   6.510  48.272  1.00  0.00     0.048 C 
HETATM   24  C1  UNL     1      28.215   7.257  48.322  1.00  0.00     0.037 C 
ENDBRANCH   1  23
TORSDOF 2
ENDMDL
MODEL 5
REMARK VINA RESULT:      -7.0      2.550      4.820
REMARK  2 active torsions:
REMARK  status: ('A' for Active; 'I' for Inactive)
REMARK    1  A    between atoms: C2_2  and  C3_3 
REMARK       I    between atoms: C3_3  and  N1_5 
REMARK    2  A    between atoms: N2_10  and  C8_11 
ROOT
HETATM    1  C3  UNL     1      25.365   2.146  52.638  1.00  0.00     0.240 C 
HETATM    2  O1  UNL     1      25.644   2.481  53.811  1.00  0.00    -0.269 OA
HETATM    3  N1  UNL     1      24.359   2.820  51.904  1.00  0.00    -0.341 N 
HETATM    4  C4  UNL     1      23.717   3.897  52.634  1.00  0.00     0.154 C 
HETATM    5  C5  UNL     1      22.240   3.899  52.555  1.00  0.00    -0.001 C 
HETATM    6  C6  UNL     1      21.327   4.177  51.615  1.00  0.00    -0.045 C 
HETATM    7  C7  UNL     1      20.213   3.255  52.054  1.00  0.00     0.161 C 
HETATM    8  N2  UNL     1      20.145   2.114  51.114  1.00  0.00    -0.350 N 
HETATM    9  C14 UNL     1      20.694   2.084  49.776  1.00  0.00     0.232 C 
HETATM   10  C15 UNL     1      22.174   1.916  49.723  1.00  0.00     0.037 C 
HETATM   11  C16 UNL     1      23.039   2.911  49.896  1.00  0.00    -0.003 C 
HETATM   12  C17 UNL     1      24.215   2.239  50.546  1.00  0.00     0.172 C 
HETATM   13  S1  UNL     1      22.820   4.677  49.481  1.00  0.00    -0.118 SA
HETATM   14  C18 UNL     1      21.268   5.078  50.402  1.00  0.00     0.122 C 
HETATM   15  C19 UNL     1      20.231   4.480  49.475  1.00  0.00     0.106 C 
HETATM   16  N3  UNL     1      20.225   3.259  49.112  1.00  0.00    -0.274 NA
ENDROOT
BRANCH   8  17
HETATM   17  C8  UNL     1      19.448   1.012  51.685  1.00  0.00     0.032 A 
HETATM   18  C9  UNL     1      18.251   0.495  51.242  1.00  0.00     0.029 A 
HETATM   19  C10 UNL     1      17.582  -0.566  51.813  1.00  0.00     0.002 A 
HETATM   20  C11 UNL     1      18.132  -1.177  52.915  1.00  0.00     0.000 A 
HETATM   21  C12 UNL     1      19.325  -0.698  53.394  1.00  0.00     0.002 A 
HETATM   22  C13 UNL     1      19.949   0.360  52.790  1.00  0.00     0.029 A 
ENDBRANCH   8  17
BRANCH   1  23
HETATM   23  C2  UNL     1      26.112   1.038  52.058  1.00  0.00     0.048 C 
HETATM   24  C1  UNL     1      25.845   0.010  52.868  1.00  0.00     0.037 C 
ENDBRANCH   1  23
TORSDOF 2
ENDMDL
MODEL 6
REMARK VINA RESULT:      -6.7      2.874      5.001
REMARK  2 active torsions:
REMARK  status: ('A' for Active; 'I' for Inactive)
REMARK    1  A    between atoms: C2_2  and  C3_3 
REMARK       I    between atoms: C3_3  and  N1_5 
REMARK    2  A    between atoms: N2_10  and  C8_11 
ROOT
HETATM    1  C3  UNL     1      20.334   5.140  47.172  1.00  0.00     0.240 C 
HETATM    2  O1  UNL     1      19.849   6.262  46.905  1.00  0.00    -0.269 OA
HETATM    3  N1  UNL     1      20.852   4.854  48.459  1.00  0.00    -0.341 N 
HETATM    4  C4  UNL     1      20.759   5.963  49.391  1.00  0.00     0.154 C 
HETATM    5  C5  UNL     1      21.998   6.231  50.153  1.00  0.00    -0.001 C 
HETATM    6  C6  UNL     1      22.666   5.630  51.147  1.00  0.00    -0.045 C 
HETATM    7  C7  UNL     1      24.074   6.067  50.814  1.00  0.00     0.161 C 
HETATM    8  N2  UNL     1      24.808   4.910  50.255  1.00  0.00    -0.350 N 
HETATM    9  C14 UNL     1      24.445   3.518  50.410  1.00  0.00     0.232 C 
HETATM   10  C15 UNL     1      23.301   3.083  49.560  1.00  0.00     0.037 C 
HETATM   11  C16 UNL     1      22.025   3.298  49.868  1.00  0.00    -0.003 C 
HETATM   12  C17 UNL     1      21.369   3.465  48.527  1.00  0.00     0.172 C 
HETATM   13  S1  UNL     1      21.271   3.407  51.528  1.00  0.00    -0.118 SA
HETATM   14  C18 UNL     1      22.296   4.734  52.307  1.00  0.00     0.122 C 
HETATM   15  C19 UNL     1      23.545   3.952  52.657  1.00  0.00     0.106 C 
HETATM   16  N3  UNL     1      24.236   3.302  51.808  1.00  0.00    -0.274 NA
ENDROOT
BRANCH   8  17
HETATM   17  C8  UNL     1      25.958   5.327  49.525  1.00  0.00     0.032 A 
HETATM   18  C9  UNL     1      27.019   4.527  49.162  1.00  0.00     0.029 A 
HETATM   19  C10 UNL     1      28.131   4.948  48.466  1.00  0.00     0.002 A 
HETATM   20  C11 UNL     1      28.215   6.269  48.092  1.00  0.00     0.000 A 
HETATM   21  C12 UNL     1      27.182   7.106  48.431  1.00  0.00     0.002 A 
HETATM   22  C13 UNL     1      26.099   6.637  49.124  1.00  0.00     0.029 A 
ENDBRANCH   8  17
BRANCH   1  23
HETATM   23  C2  UNL     1      20.347   4.141  46.113  1.00  0.00     0.048 C 
HETATM   24  C1  UNL     1      20.965   4.753  45.100  1.00  0.00     0.037 C 
ENDBRANCH   1  23
TORSDOF 2
ENDMDL
MODEL 7
REMARK VINA RESULT:      -6.6      2.799      4.595
REMARK  2 active torsions:
REMARK  status: ('A' for Active; 'I' for Inactive)
REMARK    1  A    between atoms: C2_2  and  C3_3 
REMARK       I    between atoms: C3_3  and  N1_5 
REMARK    2  A    between atoms: N2_10  and  C8_11 
ROOT
HETATM    1  C3  UNL     1      20.460   6.097  48.851  1.00  0.00     0.240 C 
HETATM    2  O1  UNL     1      19.980   5.831  47.727  1.00  0.00    -0.269 OA
HETATM    3  N1  UNL     1      21.666   5.499  49.292  1.00  0.00    -0.341 N 
HETATM    4  C4  UNL     1      22.255   4.582  48.333  1.00  0.00     0.154 C 
HETATM    5  C5  UNL     1      22.685   3.287  48.905  1.00  0.00    -0.001 C 
HETATM    6  C6  UNL     1      23.675   2.870  49.705  1.00  0.00    -0.045 C 
HETATM    7  C7  UNL     1      22.995   1.694  50.367  1.00  0.00     0.161 C 
HETATM    8  N2  UNL     1      22.661   2.063  51.760  1.00  0.00    -0.350 N 
HETATM    9  C14 UNL     1      23.258   3.141  52.519  1.00  0.00     0.232 C 
HETATM   10  C15 UNL     1      22.774   4.499  52.142  1.00  0.00     0.037 C 
HETATM   11  C16 UNL     1      23.226   5.183  51.095  1.00  0.00    -0.003 C 
HETATM   12  C17 UNL     1      22.026   5.972  50.652  1.00  0.00     0.172 C 
HETATM   13  S1  UNL     1      24.895   5.133  50.354  1.00  0.00    -0.118 SA
HETATM   14  C18 UNL     1      25.085   3.328  50.005  1.00  0.00     0.122 C 
HETATM   15  C19 UNL     1      25.416   2.810  51.389  1.00  0.00     0.106 C 
HETATM   16  N3  UNL     1      24.675   2.986  52.409  1.00  0.00    -0.274 NA
ENDROOT
BRANCH   8  17
HETATM   17  C8  UNL     1      21.656   1.209  52.298  1.00  0.00     0.032 A 
HETATM   18  C9  UNL     1      20.452   0.904  51.703  1.00  0.00     0.029 A 
HETATM   19  C10 UNL     1      19.484   0.085  52.242  1.00  0.00     0.002 A 
HETATM   20  C11 UNL     1      19.712  -0.487  53.472  1.00  0.00     0.000 A 
HETATM   21  C12 UNL     1      20.898  -0.213  54.104  1.00  0.00     0.002 A 
HETATM   22  C13 UNL     1      21.828   0.608  53.525  1.00  0.00     0.029 A 
ENDBRANCH   8  17
BRANCH   1  23
HETATM   23  C2  UNL     1      19.735   7.043  49.687  1.00  0.00     0.048 C 
HETATM   24  C1  UNL     1      19.364   8.005  48.838  1.00  0.00     0.037 C 
ENDBRANCH   1  23
TORSDOF 2
ENDMDL
MODEL 8
REMARK VINA RESULT:      -6.5      6.112      9.177
REMARK  2 active torsions:
REMARK  status: ('A' for Active; 'I' for Inactive)
REMARK    1  A    between atoms: C2_2  and  C3_3 
REMARK       I    between atoms: C3_3  and  N1_5 
REMARK    2  A    between atoms: N2_10  and  C8_11 
ROOT
HETATM    1  C3  UNL     1      32.578   5.801  47.701  1.00  0.00     0.240 C 
HETATM    2  O1  UNL     1      33.180   5.411  48.726  1.00  0.00    -0.269 OA
HETATM    3  N1  UNL     1      32.046   7.111  47.619  1.00  0.00    -0.341 N 
HETATM    4  C4  UNL     1      32.270   7.914  48.807  1.00  0.00     0.154 C 
HETATM    5  C5  UNL     1      31.075   8.640  49.292  1.00  0.00    -0.001 C 
HETATM    6  C6  UNL     1      30.357   9.693  48.883  1.00  0.00    -0.045 C 
HETATM    7  C7  UNL     1      29.001   9.312  49.432  1.00  0.00     0.161 C 
HETATM    8  N2  UNL     1      28.139   8.884  48.309  1.00  0.00    -0.350 N 
HETATM    9  C14 UNL     1      28.349   9.194  46.911  1.00  0.00     0.232 C 
HETATM   10  C15 UNL     1      29.429   8.400  46.261  1.00  0.00     0.037 C 
HETATM   11  C16 UNL     1      30.724   8.683  46.367  1.00  0.00    -0.003 C 
HETATM   12  C17 UNL     1      31.380   7.332  46.311  1.00  0.00     0.172 C 
HETATM   13  S1  UNL     1      31.504  10.321  46.576  1.00  0.00    -0.118 SA
HETATM   14  C18 UNL     1      30.638  10.947  48.086  1.00  0.00     0.122 C 
HETATM   15  C19 UNL     1      29.316  11.380  47.490  1.00  0.00     0.106 C 
HETATM   16  N3  UNL     1      28.548  10.608  46.830  1.00  0.00    -0.274 NA
ENDROOT
BRANCH   8  17
HETATM   17  C8  UNL     1      27.034   8.111  48.767  1.00  0.00     0.032 A 
HETATM   18  C9  UNL     1      26.534   8.097  50.050  1.00  0.00     0.029 A 
HETATM   19  C10 UNL     1      25.471   7.334  50.481  1.00  0.00     0.002 A 
HETATM   20  C11 UNL     1      24.840   6.510  49.579  1.00  0.00     0.000 A 
HETATM   21  C12 UNL     1      25.302   6.489  48.287  1.00  0.00     0.002 A 
HETATM   22  C13 UNL     1      26.363   7.267  47.910  1.00  0.00     0.029 A 
ENDBRANCH   8  17
BRANCH   1  23
HETATM   23  C2  UNL     1      32.444   4.860  46.599  1.00  0.00     0.048 C 
HETATM   24  C1  UNL     1      32.337   3.672  47.200  1.00  0.00     0.037 C 
ENDBRANCH   1  23
TORSDOF 2
ENDMDL
MODEL 9
REMARK VINA RESULT:      -6.5      2.858      5.390
REMARK  2 active torsions:
REMARK  status: ('A' for Active; 'I' for Inactive)
REMARK    1  A    between atoms: C2_2  and  C3_3 
REMARK       I    between atoms: C3_3  and  N1_5 
REMARK    2  A    between atoms: N2_10  and  C8_11 
ROOT
HETATM    1  C3  UNL     1      21.751   5.926  49.487  1.00  0.00     0.240 C 
HETATM    2  O1  UNL     1      22.007   6.026  48.267  1.00  0.00    -0.269 OA
HETATM    3  N1  UNL     1      22.203   4.815  50.240  1.00  0.00    -0.341 N 
HETATM    4  C4  UNL     1      22.965   3.850  49.469  1.00  0.00     0.154 C 
HETATM    5  C5  UNL     1      22.568   2.441  49.682  1.00  0.00    -0.001 C 
HETATM    6  C6  UNL     1      22.694   1.544  50.669  1.00  0.00    -0.045 C 
HETATM    7  C7  UNL     1      21.454   0.716  50.426  1.00  0.00     0.161 C 
HETATM    8  N2  UNL     1      20.460   1.031  51.476  1.00  0.00    -0.350 N 
HETATM    9  C14 UNL     1      20.744   1.645  52.756  1.00  0.00     0.232 C 
HETATM   10  C15 UNL     1      21.000   3.112  52.690  1.00  0.00     0.037 C 
HETATM   11  C16 UNL     1      22.167   3.645  52.341  1.00  0.00    -0.003 C 
HETATM   12  C17 UNL     1      21.774   4.923  51.656  1.00  0.00     0.172 C 
HETATM   13  S1  UNL     1      23.840   2.958  52.598  1.00  0.00    -0.118 SA
HETATM   14  C18 UNL     1      23.683   1.304  51.788  1.00  0.00     0.122 C 
HETATM   15  C19 UNL     1      22.936   0.538  52.859  1.00  0.00     0.106 C 
HETATM   16  N3  UNL     1      21.815   0.901  53.341  1.00  0.00    -0.274 NA
ENDROOT
BRANCH   8  17
HETATM   17  C8  UNL     1      19.148   0.645  51.083  1.00  0.00     0.032 A 
HETATM   18  C9  UNL     1      18.321  -0.219  51.765  1.00  0.00     0.029 A 
HETATM   19  C10 UNL     1      17.056  -0.593  51.365  1.00  0.00     0.002 A 
HETATM   20  C11 UNL     1      16.554  -0.076  50.194  1.00  0.00     0.000 A 
HETATM   21  C12 UNL     1      17.341   0.790  49.478  1.00  0.00     0.002 A 
HETATM   22  C13 UNL     1      18.591   1.129  49.920  1.00  0.00     0.029 A 
ENDBRANCH   8  17
BRANCH   1  23
HETATM   23  C2  UNL     1      20.971   6.990  50.103  1.00  0.00     0.048 C 
HETATM   24  C1  UNL     1      21.508   8.109  49.611  1.00  0.00     0.037 C 
ENDBRANCH   1  23
TORSDOF 2
ENDMDL
