MODEL 1
REMARK VINA RESULT:      -8.5      0.000      0.000
REMARK  8 active torsions:
REMARK  status: ('A' for Active; 'I' for Inactive)
REMARK    1  A    between atoms: C1_2  and  C2_3 
REMARK    2  A    between atoms: C2_3  and  C3_4 
REMARK    3  A    between atoms: N2_7  and  C5_8 
REMARK    4  A    between atoms: C10_14  and  C11_15 
REMARK    5  A    between atoms: C12_16  and  N4_17 
REMARK    6  A    between atoms: C13_18  and  N5_19 
REMARK    7  A    between atoms: C14_20  and  N6_21 
REMARK    8  A    between atoms: N6_21  and  C15_22 
ROOT
HETATM    1  C5  UNL     1      25.002   2.255  50.864  1.00  0.00     0.142 C 
HETATM    2  C6  UNL     1      23.691   2.316  51.554  1.00  0.00     0.062 C 
HETATM    3  C7  UNL     1      23.440   3.563  52.343  1.00  0.00     0.272 C 
HETATM    4  N3  UNL     1      24.272   4.673  51.966  1.00  0.00     0.087 N 
HETATM    5  C8  UNL     1      24.450   4.682  50.504  1.00  0.00     0.306 C 
HETATM    6  C9  UNL     1      25.390   3.561  50.240  1.00  0.00    -0.028 C 
HETATM    7  C10 UNL     1      26.492   3.652  49.520  1.00  0.00     0.008 C 
HETATM    8  H11 UNL     1      25.234   4.549  52.361  1.00  0.00     0.316 HD
ENDROOT
BRANCH   7   9
HETATM    9  C11 UNL     1      26.921   4.888  48.889  1.00  0.00     0.020 C 
HETATM   10  C12 UNL     1      28.181   5.086  48.539  1.00  0.00     0.118 C 
BRANCH  10  11
HETATM   11  N4  UNL     1      28.717   6.239  47.923  1.00  0.00    -0.254 NA
HETATM   12  C13 UNL     1      29.994   6.531  47.937  1.00  0.00     0.233 C 
BRANCH  12  13
HETATM   13  N5  UNL     1      30.605   5.479  48.662  1.00  0.00    -0.237 NA
HETATM   14  C14 UNL     1      31.858   5.301  48.801  1.00  0.00     0.208 C 
BRANCH  14  15
HETATM   15  N6  UNL     1      33.043   5.932  48.390  1.00  0.00    -0.351 N 
HETATM   16  H19 UNL     1      33.130   6.795  48.971  1.00  0.00     0.166 HD
BRANCH  15  17
HETATM   17  C15 UNL     1      33.637   5.149  47.361  1.00  0.00     0.034 A 
HETATM   18  C16 UNL     1      34.451   4.132  47.869  1.00  0.00     0.029 A 
HETATM   19  C17 UNL     1      35.109   3.271  46.988  1.00  0.00     0.004 A 
HETATM   20  C18 UNL     1      34.898   3.499  45.645  1.00  0.00     0.024 A 
HETATM   21  C19 UNL     1      34.104   4.492  45.113  1.00  0.00     0.036 A 
HETATM   22 CL1  UNL     1      33.888   4.716  43.394  1.00  0.00    -0.084 Cl
HETATM   23  C20 UNL     1      33.465   5.328  46.004  1.00  0.00     0.053 A 
ENDBRANCH  15  17
ENDBRANCH  14  15
ENDBRANCH  12  13
ENDBRANCH  10  11
ENDBRANCH   7   9
BRANCH   1  24
HETATM   24  N2  UNL     1      26.086   1.722  51.691  1.00  0.00    -0.272 N 
HETATM   25  N1  UNL     1      26.897   2.485  52.412  1.00  0.00    -0.184 NA
HETATM   26  C4  UNL     1      27.796   1.750  53.072  1.00  0.00     0.147 A 
HETATM   27  C3  UNL     1      27.509   0.446  52.723  1.00  0.00    -0.019 A 
HETATM   28  C21 UNL     1      26.427   0.421  51.848  1.00  0.00     0.121 A 
BRANCH  27  29
HETATM   29  C2  UNL     1      28.271  -0.724  53.231  1.00  0.00     0.073 C 
BRANCH  29  30
HETATM   30  C1  UNL     1      29.449  -0.185  54.031  1.00  0.00     0.227 C 
HETATM   31  F1  UNL     1      30.544  -0.073  53.204  1.00  0.00    -0.255 F 
ENDBRANCH  29  30
ENDBRANCH  27  29
ENDBRANCH   1  24
TORSDOF 8
ENDMDL
MODEL 2
REMARK VINA RESULT:      -7.9      1.564      1.713
REMARK  8 active torsions:
REMARK  status: ('A' for Active; 'I' for Inactive)
REMARK    1  A    between atoms: C1_2  and  C2_3 
REMARK    2  A    between atoms: C2_3  and  C3_4 
REMARK    3  A    between atoms: N2_7  and  C5_8 
REMARK    4  A    between atoms: C10_14  and  C11_15 
REMARK    5  A    between atoms: C12_16  and  N4_17 
REMARK    6  A    between atoms: C13_18  and  N5_19 
REMARK    7  A    between atoms: C14_20  and  N6_21 
REMARK    8  A    between atoms: N6_21  and  C15_22 
ROOT
HETATM    1  C5  UNL     1      25.022   1.624  51.325  1.00  0.00     0.142 C 
HETATM    2  C6  UNL     1      23.702   1.292  51.913  1.00  0.00     0.062 C 
HETATM    3  C7  UNL     1      23.000   2.426  52.591  1.00  0.00     0.272 C 
HETATM    4  N3  UNL     1      23.469   3.726  52.195  1.00  0.00     0.087 N 
HETATM    5  C8  UNL     1      23.766   3.725  50.752  1.00  0.00     0.306 C 
HETATM    6  C9  UNL     1      25.032   2.955  50.637  1.00  0.00    -0.028 C 
HETATM    7  C10 UNL     1      26.109   3.362  49.992  1.00  0.00     0.008 C 
HETATM    8  H11 UNL     1      24.380   3.936  52.666  1.00  0.00     0.316 HD
ENDROOT
BRANCH   7   9
HETATM    9  C11 UNL     1      26.181   4.640  49.307  1.00  0.00     0.020 C 
HETATM   10  C12 UNL     1      27.304   5.070  48.757  1.00  0.00     0.118 C 
BRANCH  10  11
HETATM   11  N4  UNL     1      27.498   6.288  48.068  1.00  0.00    -0.254 NA
HETATM   12  C13 UNL     1      28.669   6.863  47.943  1.00  0.00     0.233 C 
BRANCH  12  13
HETATM   13  N5  UNL     1      29.573   6.008  48.620  1.00  0.00    -0.237 NA
HETATM   14  C14 UNL     1      30.749   5.713  48.232  1.00  0.00     0.208 C 
BRANCH  14  15
HETATM   15  N6  UNL     1      31.588   6.024  47.150  1.00  0.00    -0.351 N 
HETATM   16  H19 UNL     1      31.330   6.990  46.849  1.00  0.00     0.166 HD
BRANCH  15  17
HETATM   17  C15 UNL     1      32.439   4.910  46.906  1.00  0.00     0.034 A 
HETATM   18  C16 UNL     1      33.655   5.286  46.326  1.00  0.00     0.029 A 
HETATM   19  C17 UNL     1      34.605   4.309  46.022  1.00  0.00     0.004 A 
HETATM   20  C18 UNL     1      34.259   3.010  46.327  1.00  0.00     0.024 A 
HETATM   21  C19 UNL     1      33.071   2.607  46.897  1.00  0.00     0.036 A 
HETATM   22 CL1  UNL     1      32.707   0.935  47.253  1.00  0.00    -0.084 Cl
HETATM   23  C20 UNL     1      32.150   3.591  47.188  1.00  0.00     0.053 A 
ENDBRANCH  15  17
ENDBRANCH  14  15
ENDBRANCH  12  13
ENDBRANCH  10  11
ENDBRANCH   7   9
BRANCH   1  24
HETATM   24  N2  UNL     1      26.140   1.504  52.262  1.00  0.00    -0.272 N 
HETATM   25  N1  UNL     1      26.190   2.143  53.423  1.00  0.00    -0.184 NA
HETATM   26  C4  UNL     1      27.315   1.861  54.085  1.00  0.00     0.147 A 
HETATM   27  C3  UNL     1      27.996   0.987  53.263  1.00  0.00    -0.019 A 
HETATM   28  C21 UNL     1      27.257   0.757  52.106  1.00  0.00     0.121 A 
BRANCH  27  29
HETATM   29  C2  UNL     1      29.320   0.405  53.605  1.00  0.00     0.073 C 
BRANCH  29  30
HETATM   30  C1  UNL     1      29.182  -1.110  53.529  1.00  0.00     0.227 C 
HETATM   31  F1  UNL     1      30.343  -1.694  53.985  1.00  0.00    -0.255 F 
ENDBRANCH  29  30
ENDBRANCH  27  29
ENDBRANCH   1  24
TORSDOF 8
ENDMDL
MODEL 3
REMARK VINA RESULT:      -7.7      3.903      9.332
REMARK  8 active torsions:
REMARK  status: ('A' for Active; 'I' for Inactive)
REMARK    1  A    between atoms: C1_2  and  C2_3 
REMARK    2  A    between atoms: C2_3  and  C3_4 
REMARK    3  A    between atoms: N2_7  and  C5_8 
REMARK    4  A    between atoms: C10_14  and  C11_15 
REMARK    5  A    between atoms: C12_16  and  N4_17 
REMARK    6  A    between atoms: C13_18  and  N5_19 
REMARK    7  A    between atoms: C14_20  and  N6_21 
REMARK    8  A    between atoms: N6_21  and  C15_22 
ROOT
HETATM    1  C5  UNL     1      31.347   6.730  48.895  1.00  0.00     0.142 C 
HETATM    2  C6  UNL     1      32.083   8.001  49.096  1.00  0.00     0.062 C 
HETATM    3  C7  UNL     1      31.736   9.100  48.141  1.00  0.00     0.272 C 
HETATM    4  N3  UNL     1      30.468   8.928  47.485  1.00  0.00     0.087 N 
HETATM    5  C8  UNL     1      29.494   8.366  48.436  1.00  0.00     0.306 C 
HETATM    6  C9  UNL     1      29.897   6.944  48.580  1.00  0.00    -0.028 C 
HETATM    7  C10 UNL     1      29.086   5.910  48.453  1.00  0.00     0.008 C 
HETATM    8  H11 UNL     1      30.554   8.215  46.723  1.00  0.00     0.316 HD
ENDROOT
BRANCH   7   9
HETATM    9  C11 UNL     1      27.673   6.052  48.149  1.00  0.00     0.020 C 
HETATM   10  C12 UNL     1      26.744   5.471  48.889  1.00  0.00     0.118 C 
BRANCH  10  11
HETATM   11  N4  UNL     1      25.345   5.534  48.695  1.00  0.00    -0.254 NA
HETATM   12  C13 UNL     1      24.493   4.817  49.386  1.00  0.00     0.233 C 
BRANCH  12  13
HETATM   13  N5  UNL     1      25.288   4.055  50.277  1.00  0.00    -0.237 NA
HETATM   14  C14 UNL     1      24.859   3.182  51.097  1.00  0.00     0.208 C 
BRANCH  14  15
HETATM   15  N6  UNL     1      23.620   2.633  51.465  1.00  0.00    -0.351 N 
HETATM   16  H19 UNL     1      22.890   3.247  51.039  1.00  0.00     0.166 HD
BRANCH  15  17
HETATM   17  C15 UNL     1      23.858   1.477  52.259  1.00  0.00     0.034 A 
HETATM   18  C16 UNL     1      25.219   1.167  52.354  1.00  0.00     0.029 A 
HETATM   19  C17 UNL     1      25.623   0.059  53.101  1.00  0.00     0.004 A 
HETATM   20  C18 UNL     1      24.618  -0.667  53.704  1.00  0.00     0.024 A 
HETATM   21  C19 UNL     1      23.270  -0.389  53.630  1.00  0.00     0.036 A 
HETATM   22 CL1  UNL     1      22.055  -1.360  54.425  1.00  0.00    -0.084 Cl
HETATM   23  C20 UNL     1      22.897   0.712  52.887  1.00  0.00     0.053 A 
ENDBRANCH  15  17
ENDBRANCH  14  15
ENDBRANCH  12  13
ENDBRANCH  10  11
ENDBRANCH   7   9
BRANCH   1  24
HETATM   24  N2  UNL     1      31.970   5.826  47.928  1.00  0.00    -0.272 N 
HETATM   25  N1  UNL     1      32.091   6.108  46.638  1.00  0.00    -0.184 NA
HETATM   26  C4  UNL     1      32.696   5.116  45.978  1.00  0.00     0.147 A 
HETATM   27  C3  UNL     1      32.960   4.164  46.940  1.00  0.00    -0.019 A 
HETATM   28  C21 UNL     1      32.503   4.607  48.178  1.00  0.00     0.121 A 
BRANCH  27  29
HETATM   29  C2  UNL     1      33.634   2.872  46.650  1.00  0.00     0.073 C 
BRANCH  29  30
HETATM   30  C1  UNL     1      32.685   1.760  47.075  1.00  0.00     0.227 C 
HETATM   31  F1  UNL     1      33.030   1.328  48.336  1.00  0.00    -0.255 F 
ENDBRANCH  29  30
ENDBRANCH  27  29
ENDBRANCH   1  24
TORSDOF 8
ENDMDL
MODEL 4
REMARK VINA RESULT:      -7.6      6.439      9.426
REMARK  8 active torsions:
REMARK  status: ('A' for Active; 'I' for Inactive)
REMARK    1  A    between atoms: C1_2  and  C2_3 
REMARK    2  A    between atoms: C2_3  and  C3_4 
REMARK    3  A    between atoms: N2_7  and  C5_8 
REMARK    4  A    between atoms: C10_14  and  C11_15 
REMARK    5  A    between atoms: C12_16  and  N4_17 
REMARK    6  A    between atoms: C13_18  and  N5_19 
REMARK    7  A    between atoms: C14_20  and  N6_21 
REMARK    8  A    between atoms: N6_21  and  C15_22 
ROOT
HETATM    1  C5  UNL     1      22.840   3.176  48.799  1.00  0.00     0.142 C 
HETATM    2  C6  UNL     1      22.640   4.264  47.813  1.00  0.00     0.062 C 
HETATM    3  C7  UNL     1      22.687   5.652  48.372  1.00  0.00     0.272 C 
HETATM    4  N3  UNL     1      23.347   5.748  49.645  1.00  0.00     0.087 N 
HETATM    5  C8  UNL     1      24.509   4.843  49.669  1.00  0.00     0.306 C 
HETATM    6  C9  UNL     1      23.917   3.486  49.794  1.00  0.00    -0.028 C 
HETATM    7  C10 UNL     1      24.273   2.585  50.690  1.00  0.00     0.008 C 
HETATM    8  H11 UNL     1      22.712   5.404  50.403  1.00  0.00     0.316 HD
ENDROOT
BRANCH   7   9
HETATM    9  C11 UNL     1      25.308   2.825  51.680  1.00  0.00     0.020 C 
HETATM   10  C12 UNL     1      26.494   2.246  51.597  1.00  0.00     0.118 C 
BRANCH  10  11
HETATM   11  N4  UNL     1      27.576   2.399  52.493  1.00  0.00    -0.254 NA
HETATM   12  C13 UNL     1      28.225   1.387  53.013  1.00  0.00     0.233 C 
BRANCH  12  13
HETATM   13  N5  UNL     1      27.600   0.234  52.477  1.00  0.00    -0.237 NA
HETATM   14  C14 UNL     1      26.855  -0.574  53.118  1.00  0.00     0.208 C 
BRANCH  14  15
HETATM   15  N6  UNL     1      26.365  -0.710  54.427  1.00  0.00    -0.351 N 
HETATM   16  H19 UNL     1      27.200  -0.699  55.054  1.00  0.00     0.166 HD
BRANCH  15  17
HETATM   17  C15 UNL     1      24.947  -0.805  54.370  1.00  0.00     0.034 A 
HETATM   18  C16 UNL     1      24.398  -1.309  55.553  1.00  0.00     0.029 A 
HETATM   19  C17 UNL     1      23.015  -1.464  55.660  1.00  0.00     0.004 A 
HETATM   20  C18 UNL     1      22.275  -1.098  54.556  1.00  0.00     0.024 A 
HETATM   21  C19 UNL     1      22.784  -0.599  53.377  1.00  0.00     0.036 A 
HETATM   22 CL1  UNL     1      21.777  -0.157  52.019  1.00  0.00    -0.084 Cl
HETATM   23  C20 UNL     1      24.154  -0.455  53.297  1.00  0.00     0.053 A 
ENDBRANCH  15  17
ENDBRANCH  14  15
ENDBRANCH  12  13
ENDBRANCH  10  11
ENDBRANCH   7   9
BRANCH   1  24
HETATM   24  N2  UNL     1      21.612   2.743  49.467  1.00  0.00    -0.272 N 
HETATM   25  N1  UNL     1      21.131   3.322  50.559  1.00  0.00    -0.184 NA
HETATM   26  C4  UNL     1      20.002   2.736  50.964  1.00  0.00     0.147 A 
HETATM   27  C3  UNL     1      19.783   1.726  50.050  1.00  0.00    -0.019 A 
HETATM   28  C21 UNL     1      20.799   1.725  49.098  1.00  0.00     0.121 A 
BRANCH  27  29
HETATM   29  C2  UNL     1      18.621   0.802  50.113  1.00  0.00     0.073 C 
BRANCH  29  30
HETATM   30  C1  UNL     1      18.336   0.532  51.584  1.00  0.00     0.227 C 
HETATM   31  F1  UNL     1      18.029  -0.800  51.748  1.00  0.00    -0.255 F 
ENDBRANCH  29  30
ENDBRANCH  27  29
ENDBRANCH   1  24
TORSDOF 8
ENDMDL
MODEL 5
REMARK VINA RESULT:      -7.5      6.642      8.675
REMARK  8 active torsions:
REMARK  status: ('A' for Active; 'I' for Inactive)
REMARK    1  A    between atoms: C1_2  and  C2_3 
REMARK    2  A    between atoms: C2_3  and  C3_4 
REMARK    3  A    between atoms: N2_7  and  C5_8 
REMARK    4  A    between atoms: C10_14  and  C11_15 
REMARK    5  A    between atoms: C12_16  and  N4_17 
REMARK    6  A    between atoms: C13_18  and  N5_19 
REMARK    7  A    between atoms: C14_20  and  N6_21 
REMARK    8  A    between atoms: N6_21  and  C15_22 
ROOT
HETATM    1  C5  UNL     1      23.222  -0.542  52.810  1.00  0.00     0.142 C 
HETATM    2  C6  UNL     1      22.374  -1.621  53.371  1.00  0.00     0.062 C 
HETATM    3  C7  UNL     1      21.587  -1.248  54.588  1.00  0.00     0.272 C 
HETATM    4  N3  UNL     1      21.416   0.168  54.765  1.00  0.00     0.087 N 
HETATM    5  C8  UNL     1      21.201   0.806  53.455  1.00  0.00     0.306 C 
HETATM    6  C9  UNL     1      22.541   0.792  52.814  1.00  0.00    -0.028 C 
HETATM    7  C10 UNL     1      23.133   1.841  52.273  1.00  0.00     0.008 C 
HETATM    8  H11 UNL     1      22.299   0.590  55.137  1.00  0.00     0.316 HD
ENDROOT
BRANCH   7   9
HETATM    9  C11 UNL     1      22.525   3.160  52.245  1.00  0.00     0.020 C 
HETATM   10  C12 UNL     1      23.132   4.191  51.683  1.00  0.00     0.118 C 
BRANCH  10  11
HETATM   11  N4  UNL     1      22.646   5.515  51.593  1.00  0.00    -0.254 NA
HETATM   12  C13 UNL     1      22.786   6.259  50.524  1.00  0.00     0.233 C 
BRANCH  12  13
HETATM   13  N5  UNL     1      23.483   5.445  49.597  1.00  0.00    -0.237 NA
HETATM   14  C14 UNL     1      22.956   4.781  48.647  1.00  0.00     0.208 C 
BRANCH  14  15
HETATM   15  N6  UNL     1      21.668   4.559  48.133  1.00  0.00    -0.351 N 
HETATM   16  H19 UNL     1      21.498   5.318  47.436  1.00  0.00     0.166 HD
BRANCH  15  17
HETATM   17  C15 UNL     1      21.126   3.404  48.762  1.00  0.00     0.034 A 
HETATM   18  C16 UNL     1      21.834   2.242  48.442  1.00  0.00     0.029 A 
HETATM   19  C17 UNL     1      21.429   1.018  48.981  1.00  0.00     0.004 A 
HETATM   20  C18 UNL     1      20.328   1.053  49.809  1.00  0.00     0.024 A 
HETATM   21  C19 UNL     1      19.608   2.181  50.142  1.00  0.00     0.036 A 
HETATM   22 CL1  UNL     1      18.220   2.142  51.202  1.00  0.00    -0.084 Cl
HETATM   23  C20 UNL     1      20.029   3.376  49.598  1.00  0.00     0.053 A 
ENDBRANCH  15  17
ENDBRANCH  14  15
ENDBRANCH  12  13
ENDBRANCH  10  11
ENDBRANCH   7   9
BRANCH   1  24
HETATM   24  N2  UNL     1      24.554  -0.458  53.411  1.00  0.00    -0.272 N 
HETATM   25  N1  UNL     1      24.759  -0.273  54.708  1.00  0.00    -0.184 NA
HETATM   26  C4  UNL     1      26.064  -0.234  54.993  1.00  0.00     0.147 A 
HETATM   27  C3  UNL     1      26.694  -0.407  53.779  1.00  0.00    -0.019 A 
HETATM   28  C21 UNL     1      25.744  -0.550  52.771  1.00  0.00     0.121 A 
BRANCH  27  29
HETATM   29  C2  UNL     1      28.171  -0.431  53.619  1.00  0.00     0.073 C 
BRANCH  29  30
HETATM   30  C1  UNL     1      28.646   1.015  53.578  1.00  0.00     0.227 C 
HETATM   31  F1  UNL     1      29.387   1.281  54.708  1.00  0.00    -0.255 F 
ENDBRANCH  29  30
ENDBRANCH  27  29
ENDBRANCH   1  24
TORSDOF 8
ENDMDL
MODEL 6
REMARK VINA RESULT:      -7.5      4.210      9.860
REMARK  8 active torsions:
REMARK  status: ('A' for Active; 'I' for Inactive)
REMARK    1  A    between atoms: C1_2  and  C2_3 
REMARK    2  A    between atoms: C2_3  and  C3_4 
REMARK    3  A    between atoms: N2_7  and  C5_8 
REMARK    4  A    between atoms: C10_14  and  C11_15 
REMARK    5  A    between atoms: C12_16  and  N4_17 
REMARK    6  A    between atoms: C13_18  and  N5_19 
REMARK    7  A    between atoms: C14_20  and  N6_21 
REMARK    8  A    between atoms: N6_21  and  C15_22 
ROOT
HETATM    1  C5  UNL     1      32.589   5.559  47.880  1.00  0.00     0.142 C 
HETATM    2  C6  UNL     1      33.712   6.178  48.624  1.00  0.00     0.062 C 
HETATM    3  C7  UNL     1      33.595   7.652  48.850  1.00  0.00     0.272 C 
HETATM    4  N3  UNL     1      32.256   8.160  48.725  1.00  0.00     0.087 N 
HETATM    5  C8  UNL     1      31.306   7.191  49.298  1.00  0.00     0.306 C 
HETATM    6  C9  UNL     1      31.253   6.092  48.300  1.00  0.00    -0.028 C 
HETATM    7  C10 UNL     1      30.146   5.586  47.790  1.00  0.00     0.008 C 
HETATM    8  H11 UNL     1      31.996   8.237  47.714  1.00  0.00     0.316 HD
ENDROOT
BRANCH   7   9
HETATM    9  C11 UNL     1      28.822   6.059  48.156  1.00  0.00     0.020 C 
HETATM   10  C12 UNL     1      27.864   5.224  48.519  1.00  0.00     0.118 C 
BRANCH  10  11
HETATM   11  N4  UNL     1      26.544   5.561  48.895  1.00  0.00    -0.254 NA
HETATM   12  C13 UNL     1      25.727   4.718  49.479  1.00  0.00     0.233 C 
BRANCH  12  13
HETATM   13  N5  UNL     1      26.467   3.517  49.607  1.00  0.00    -0.237 NA
HETATM   14  C14 UNL     1      26.650   2.868  50.687  1.00  0.00     0.208 C 
BRANCH  14  15
HETATM   15  N6  UNL     1      26.284   2.987  52.038  1.00  0.00    -0.351 N 
HETATM   16  H19 UNL     1      26.537   3.959  52.324  1.00  0.00     0.166 HD
BRANCH  15  17
HETATM   17  C15 UNL     1      25.724   1.750  52.462  1.00  0.00     0.034 A 
HETATM   18  C16 UNL     1      26.703   0.813  52.807  1.00  0.00     0.029 A 
HETATM   19  C17 UNL     1      26.318  -0.455  53.247  1.00  0.00     0.004 A 
HETATM   20  C18 UNL     1      24.962  -0.692  53.307  1.00  0.00     0.024 A 
HETATM   21  C19 UNL     1      23.973   0.208  52.974  1.00  0.00     0.036 A 
HETATM   22 CL1  UNL     1      22.270  -0.169  53.078  1.00  0.00    -0.084 Cl
HETATM   23  C20 UNL     1      24.379   1.454  52.544  1.00  0.00     0.053 A 
ENDBRANCH  15  17
ENDBRANCH  14  15
ENDBRANCH  12  13
ENDBRANCH  10  11
ENDBRANCH   7   9
BRANCH   1  24
HETATM   24  N2  UNL     1      32.742   5.601  46.425  1.00  0.00    -0.272 N 
HETATM   25  N1  UNL     1      32.517   6.688  45.699  1.00  0.00    -0.184 NA
HETATM   26  C4  UNL     1      32.730   6.456  44.401  1.00  0.00     0.147 A 
HETATM   27  C3  UNL     1      33.110   5.132  44.337  1.00  0.00    -0.019 A 
HETATM   28  C21 UNL     1      33.120   4.583  45.616  1.00  0.00     0.121 A 
BRANCH  27  29
HETATM   29  C2  UNL     1      33.449   4.438  43.068  1.00  0.00     0.073 C 
BRANCH  29  30
HETATM   30  C1  UNL     1      34.279   5.403  42.231  1.00  0.00     0.227 C 
HETATM   31  F1  UNL     1      35.473   5.646  42.872  1.00  0.00    -0.255 F 
ENDBRANCH  29  30
ENDBRANCH  27  29
ENDBRANCH   1  24
TORSDOF 8
ENDMDL
MODEL 7
REMARK VINA RESULT:      -7.4      5.921      8.066
REMARK  8 active torsions:
REMARK  status: ('A' for Active; 'I' for Inactive)
REMARK    1  A    between atoms: C1_2  and  C2_3 
REMARK    2  A    between atoms: C2_3  and  C3_4 
REMARK    3  A    between atoms: N2_7  and  C5_8 
REMARK    4  A    between atoms: C10_14  and  C11_15 
REMARK    5  A    between atoms: C12_16  and  N4_17 
REMARK    6  A    between atoms: C13_18  and  N5_19 
REMARK    7  A    between atoms: C14_20  and  N6_21 
REMARK    8  A    between atoms: N6_21  and  C15_22 
ROOT
HETATM    1  C5  UNL     1      18.577   0.791  50.329  1.00  0.00     0.142 C 
HETATM    2  C6  UNL     1      17.313   1.564  50.379  1.00  0.00     0.062 C 
HETATM    3  C7  UNL     1      17.462   3.016  50.710  1.00  0.00     0.272 C 
HETATM    4  N3  UNL     1      18.785   3.534  50.490  1.00  0.00     0.087 N 
HETATM    5  C8  UNL     1      19.352   2.936  49.269  1.00  0.00     0.306 C 
HETATM    6  C9  UNL     1      19.689   1.544  49.663  1.00  0.00    -0.028 C 
HETATM    7  C10 UNL     1      20.858   0.964  49.467  1.00  0.00     0.008 C 
HETATM    8  H11 UNL     1      19.420   3.234  51.266  1.00  0.00     0.316 HD
ENDROOT
BRANCH   7   9
HETATM    9  C11 UNL     1      21.975   1.639  48.828  1.00  0.00     0.020 C 
HETATM   10  C12 UNL     1      22.731   2.501  49.485  1.00  0.00     0.118 C 
BRANCH  10  11
HETATM   11  N4  UNL     1      23.838   3.217  48.976  1.00  0.00    -0.254 NA
HETATM   12  C13 UNL     1      24.858   3.581  49.715  1.00  0.00     0.233 C 
BRANCH  12  13
HETATM   13  N5  UNL     1      24.560   3.103  51.015  1.00  0.00    -0.237 NA
HETATM   14  C14 UNL     1      25.413   2.735  51.885  1.00  0.00     0.208 C 
BRANCH  14  15
HETATM   15  N6  UNL     1      26.810   2.635  51.984  1.00  0.00    -0.351 N 
HETATM   16  H19 UNL     1      27.188   3.578  51.742  1.00  0.00     0.166 HD
BRANCH  15  17
HETATM   17  C15 UNL     1      27.140   1.306  52.369  1.00  0.00     0.034 A 
HETATM   18  C16 UNL     1      26.093   0.409  52.136  1.00  0.00     0.029 A 
HETATM   19  C17 UNL     1      26.256  -0.940  52.460  1.00  0.00     0.004 A 
HETATM   20  C18 UNL     1      27.474  -1.292  53.001  1.00  0.00     0.024 A 
HETATM   21  C19 UNL     1      28.524  -0.434  53.243  1.00  0.00     0.036 A 
HETATM   22 CL1  UNL     1      30.041  -0.959  53.933  1.00  0.00    -0.084 Cl
HETATM   23  C20 UNL     1      28.338   0.893  52.914  1.00  0.00     0.053 A 
ENDBRANCH  15  17
ENDBRANCH  14  15
ENDBRANCH  12  13
ENDBRANCH  10  11
ENDBRANCH   7   9
BRANCH   1  24
HETATM   24  N2  UNL     1      19.001   0.256  51.623  1.00  0.00    -0.272 N 
HETATM   25  N1  UNL     1      18.378  -0.739  52.241  1.00  0.00    -0.184 NA
HETATM   26  C4  UNL     1      18.967  -1.033  53.404  1.00  0.00     0.147 A 
HETATM   27  C3  UNL     1      20.023  -0.151  53.496  1.00  0.00    -0.019 A 
HETATM   28  C21 UNL     1      20.051   0.669  52.371  1.00  0.00     0.121 A 
BRANCH  27  29
HETATM   29  C2  UNL     1      20.965  -0.118  54.645  1.00  0.00     0.073 C 
BRANCH  29  30
HETATM   30  C1  UNL     1      21.857  -1.348  54.534  1.00  0.00     0.227 C 
HETATM   31  F1  UNL     1      22.900  -1.074  53.677  1.00  0.00    -0.255 F 
ENDBRANCH  29  30
ENDBRANCH  27  29
ENDBRANCH   1  24
TORSDOF 8
ENDMDL
MODEL 8
REMARK VINA RESULT:      -7.4      1.855      2.160
REMARK  8 active torsions:
REMARK  status: ('A' for Active; 'I' for Inactive)
REMARK    1  A    between atoms: C1_2  and  C2_3 
REMARK    2  A    between atoms: C2_3  and  C3_4 
REMARK    3  A    between atoms: N2_7  and  C5_8 
REMARK    4  A    between atoms: C10_14  and  C11_15 
REMARK    5  A    between atoms: C12_16  and  N4_17 
REMARK    6  A    between atoms: C13_18  and  N5_19 
REMARK    7  A    between atoms: C14_20  and  N6_21 
REMARK    8  A    between atoms: N6_21  and  C15_22 
ROOT
HETATM    1  C5  UNL     1      24.751   2.444  50.949  1.00  0.00     0.142 C 
HETATM    2  C6  UNL     1      23.439   2.549  51.631  1.00  0.00     0.062 C 
HETATM    3  C7  UNL     1      23.244   3.781  52.458  1.00  0.00     0.272 C 
HETATM    4  N3  UNL     1      24.134   4.859  52.122  1.00  0.00     0.087 N 
HETATM    5  C8  UNL     1      24.323   4.905  50.662  1.00  0.00     0.306 C 
HETATM    6  C9  UNL     1      25.208   3.748  50.369  1.00  0.00    -0.028 C 
HETATM    7  C10 UNL     1      26.319   3.806  49.659  1.00  0.00     0.008 C 
HETATM    8  H11 UNL     1      25.084   4.675  52.519  1.00  0.00     0.316 HD
ENDROOT
BRANCH   7   9
HETATM    9  C11 UNL     1      26.815   5.038  49.071  1.00  0.00     0.020 C 
HETATM   10  C12 UNL     1      28.006   5.104  48.501  1.00  0.00     0.118 C 
BRANCH  10  11
HETATM   11  N4  UNL     1      28.595   6.238  47.899  1.00  0.00    -0.254 NA
HETATM   12  C13 UNL     1      29.867   6.306  47.588  1.00  0.00     0.233 C 
BRANCH  12  13
HETATM   13  N5  UNL     1      30.410   5.059  47.984  1.00  0.00    -0.237 NA
HETATM   14  C14 UNL     1      31.473   4.531  47.524  1.00  0.00     0.208 C 
BRANCH  14  15
HETATM   15  N6  UNL     1      32.458   4.852  46.576  1.00  0.00    -0.351 N 
HETATM   16  H19 UNL     1      32.193   4.352  45.699  1.00  0.00     0.166 HD
BRANCH  15  17
HETATM   17  C15 UNL     1      33.407   5.717  47.189  1.00  0.00     0.034 A 
HETATM   18  C16 UNL     1      34.256   5.039  48.069  1.00  0.00     0.029 A 
HETATM   19  C17 UNL     1      35.247   5.747  48.752  1.00  0.00     0.004 A 
HETATM   20  C18 UNL     1      35.312   7.100  48.499  1.00  0.00     0.024 A 
HETATM   21  C19 UNL     1      34.491   7.797  47.640  1.00  0.00     0.036 A 
HETATM   22 CL1  UNL     1      34.638   9.518  47.372  1.00  0.00    -0.084 Cl
HETATM   23  C20 UNL     1      33.521   7.076  46.976  1.00  0.00     0.053 A 
ENDBRANCH  15  17
ENDBRANCH  14  15
ENDBRANCH  12  13
ENDBRANCH  10  11
ENDBRANCH   7   9
BRANCH   1  24
HETATM   24  N2  UNL     1      25.800   1.831  51.765  1.00  0.00    -0.272 N 
HETATM   25  N1  UNL     1      26.552   2.513  52.619  1.00  0.00    -0.184 NA
HETATM   26  C4  UNL     1      27.431   1.717  53.234  1.00  0.00     0.147 A 
HETATM   27  C3  UNL     1      27.194   0.462  52.713  1.00  0.00    -0.019 A 
HETATM   28  C21 UNL     1      26.162   0.527  51.781  1.00  0.00     0.121 A 
BRANCH  27  29
HETATM   29  C2  UNL     1      27.953  -0.749  53.118  1.00  0.00     0.073 C 
BRANCH  29  30
HETATM   30  C1  UNL     1      27.431  -1.912  52.284  1.00  0.00     0.227 C 
HETATM   31  F1  UNL     1      26.485  -2.600  53.009  1.00  0.00    -0.255 F 
ENDBRANCH  29  30
ENDBRANCH  27  29
ENDBRANCH   1  24
TORSDOF 8
ENDMDL
MODEL 9
REMARK VINA RESULT:      -7.3      6.318     11.395
REMARK  8 active torsions:
REMARK  status: ('A' for Active; 'I' for Inactive)
REMARK    1  A    between atoms: C1_2  and  C2_3 
REMARK    2  A    between atoms: C2_3  and  C3_4 
REMARK    3  A    between atoms: N2_7  and  C5_8 
REMARK    4  A    between atoms: C10_14  and  C11_15 
REMARK    5  A    between atoms: C12_16  and  N4_17 
REMARK    6  A    between atoms: C13_18  and  N5_19 
REMARK    7  A    between atoms: C14_20  and  N6_21 
REMARK    8  A    between atoms: N6_21  and  C15_22 
ROOT
HETATM    1  C5  UNL     1      22.977   5.527  51.615  1.00  0.00     0.142 C 
HETATM    2  C6  UNL     1      21.686   6.122  51.193  1.00  0.00     0.062 C 
HETATM    3  C7  UNL     1      21.017   5.446  50.038  1.00  0.00     0.272 C 
HETATM    4  N3  UNL     1      21.468   4.100  49.805  1.00  0.00     0.087 N 
HETATM    5  C8  UNL     1      21.696   3.427  51.095  1.00  0.00     0.306 C 
HETATM    6  C9  UNL     1      22.955   4.029  51.607  1.00  0.00    -0.028 C 
HETATM    7  C10 UNL     1      24.000   3.347  52.035  1.00  0.00     0.008 C 
HETATM    8  H11 UNL     1      22.401   4.113  49.330  1.00  0.00     0.316 HD
ENDROOT
BRANCH   7   9
HETATM    9  C11 UNL     1      24.040   1.895  52.052  1.00  0.00     0.020 C 
HETATM   10  C12 UNL     1      24.039   1.215  53.186  1.00  0.00     0.118 C 
BRANCH  10  11
HETATM   11  N4  UNL     1      24.075  -0.190  53.331  1.00  0.00    -0.254 NA
HETATM   12  C13 UNL     1      23.075  -0.887  53.812  1.00  0.00     0.233 C 
BRANCH  12  13
HETATM   13  N5  UNL     1      22.069   0.066  54.106  1.00  0.00    -0.237 NA
HETATM   14  C14 UNL     1      20.827  -0.181  54.241  1.00  0.00     0.208 C 
BRANCH  14  15
HETATM   15  N6  UNL     1      19.985  -1.303  54.182  1.00  0.00    -0.351 N 
HETATM   16  H19 UNL     1      20.393  -2.009  54.835  1.00  0.00     0.166 HD
BRANCH  15  17
HETATM   17  C15 UNL     1      18.930  -1.026  53.269  1.00  0.00     0.034 A 
HETATM   18  C16 UNL     1      19.289  -0.068  52.315  1.00  0.00     0.029 A 
HETATM   19  C17 UNL     1      18.364   0.316  51.342  1.00  0.00     0.004 A 
HETATM   20  C18 UNL     1      17.131  -0.297  51.400  1.00  0.00     0.024 A 
HETATM   21  C19 UNL     1      16.746  -1.242  52.326  1.00  0.00     0.036 A 
HETATM   22 CL1  UNL     1      15.159  -1.974  52.333  1.00  0.00    -0.084 Cl
HETATM   23  C20 UNL     1      17.678  -1.605  53.276  1.00  0.00     0.053 A 
ENDBRANCH  15  17
ENDBRANCH  14  15
ENDBRANCH  12  13
ENDBRANCH  10  11
ENDBRANCH   7   9
BRANCH   1  24
HETATM   24  N2  UNL     1      24.138   6.043  50.888  1.00  0.00    -0.272 N 
HETATM   25  N1  UNL     1      24.650   7.249  51.093  1.00  0.00    -0.184 NA
HETATM   26  C4  UNL     1      25.703   7.470  50.301  1.00  0.00     0.147 A 
HETATM   27  C3  UNL     1      25.836   6.313  49.562  1.00  0.00    -0.019 A 
HETATM   28  C21 UNL     1      24.848   5.404  49.929  1.00  0.00     0.121 A 
BRANCH  27  29
HETATM   29  C2  UNL     1      26.895   6.113  48.538  1.00  0.00     0.073 C 
BRANCH  29  30
HETATM   30  C1  UNL     1      27.505   4.738  48.780  1.00  0.00     0.227 C 
HETATM   31  F1  UNL     1      28.675   4.630  48.062  1.00  0.00    -0.255 F 
ENDBRANCH  29  30
ENDBRANCH  27  29
ENDBRANCH   1  24
TORSDOF 8
ENDMDL
