MODEL 1
REMARK VINA RESULT:      -8.0      0.000      0.000
REMARK  4 active torsions:
REMARK  status: ('A' for Active; 'I' for Inactive)
REMARK    1  A    between atoms: O1_1  and  C1_2 
REMARK    2  A    between atoms: C6_7  and  C7_8 
REMARK    3  A    between atoms: C11_13  and  C12_14 
REMARK    4  A    between atoms: C12_14  and  C13_15 
ROOT
HETATM    1  C7  UNL     1      26.461   0.736  52.545  1.00  0.00     0.001 A 
HETATM    2  C8  UNL     1      26.700   1.541  51.425  1.00  0.00     0.129 A 
HETATM    3  N1  UNL     1      25.889   2.592  51.265  1.00  0.00    -0.272 NA
HETATM    4  C9  UNL     1      24.903   2.842  52.147  1.00  0.00     0.116 A 
HETATM    5  C10 UNL     1      24.632   2.064  53.275  1.00  0.00     0.027 A 
HETATM    6  C11 UNL     1      25.460   0.969  53.462  1.00  0.00    -0.040 A 
ENDROOT
BRANCH   1   7
HETATM    7  C6  UNL     1      27.330  -0.421  52.748  1.00  0.00     0.009 A 
HETATM    8  C1  UNL     1      28.553  -0.073  53.292  1.00  0.00     0.076 A 
HETATM    9  C2  UNL     1      29.504  -1.046  53.552  1.00  0.00     0.037 A 
HETATM   10  C3  UNL     1      29.255  -2.383  53.277  1.00  0.00     0.003 A 
HETATM   11  C4  UNL     1      28.025  -2.705  52.735  1.00  0.00     0.001 A 
HETATM   12  C5  UNL     1      27.068  -1.747  52.470  1.00  0.00     0.015 A 
BRANCH   8  13
HETATM   13  O1  UNL     1      28.997   1.208  53.638  1.00  0.00    -0.360 OA
HETATM   14  H1  UNL     1      29.348   1.827  52.900  1.00  0.00     0.217 HD
ENDBRANCH   8  13
ENDBRANCH   1   7
BRANCH   6  15
HETATM   15  C12 UNL     1      25.298   0.056  54.605  1.00  0.00     0.079 C 
BRANCH  15  16
HETATM   16  C13 UNL     1      23.978  -0.612  54.511  1.00  0.00    -0.036 A 
HETATM   17  C14 UNL     1      23.303  -0.555  53.290  1.00  0.00     0.010 A 
HETATM   18  C15 UNL     1      22.071  -1.127  53.049  1.00  0.00     0.020 A 
HETATM   19  C16 UNL     1      21.505  -1.791  54.117  1.00  0.00     0.116 A 
HETATM   20  N2  UNL     1      22.127  -1.865  55.306  1.00  0.00    -0.273 NA
HETATM   21  C17 UNL     1      23.335  -1.295  55.519  1.00  0.00     0.123 A 
ENDBRANCH  15  16
ENDBRANCH   6  15
TORSDOF 4
ENDMDL
MODEL 2
REMARK VINA RESULT:      -8.0      1.797      4.244
REMARK  4 active torsions:
REMARK  status: ('A' for Active; 'I' for Inactive)
REMARK    1  A    between atoms: O1_1  and  C1_2 
REMARK    2  A    between atoms: C6_7  and  C7_8 
REMARK    3  A    between atoms: C11_13  and  C12_14 
REMARK    4  A    between atoms: C12_14  and  C13_15 
ROOT
HETATM    1  C7  UNL     1      25.402  -0.346  54.163  1.00  0.00     0.001 A 
HETATM    2  C8  UNL     1      24.978  -1.067  55.286  1.00  0.00     0.129 A 
HETATM    3  N1  UNL     1      23.668  -1.320  55.369  1.00  0.00    -0.272 NA
HETATM    4  C9  UNL     1      22.821  -0.894  54.411  1.00  0.00     0.116 A 
HETATM    5  C10 UNL     1      23.205  -0.173  53.278  1.00  0.00     0.027 A 
HETATM    6  C11 UNL     1      24.558   0.101  53.170  1.00  0.00    -0.040 A 
ENDROOT
BRANCH   1   7
HETATM    7  C6  UNL     1      26.828  -0.053  54.043  1.00  0.00     0.009 A 
HETATM    8  C1  UNL     1      27.530  -1.084  53.445  1.00  0.00     0.076 A 
HETATM    9  C2  UNL     1      28.897  -0.978  53.250  1.00  0.00     0.037 A 
HETATM   10  C3  UNL     1      29.591   0.157  53.646  1.00  0.00     0.003 A 
HETATM   11  C4  UNL     1      28.867   1.173  54.240  1.00  0.00     0.001 A 
HETATM   12  C5  UNL     1      27.505   1.081  54.442  1.00  0.00     0.015 A 
BRANCH   8  13
HETATM   13  O1  UNL     1      27.021  -2.301  52.978  1.00  0.00    -0.360 OA
HETATM   14  H1  UNL     1      26.030  -2.514  53.130  1.00  0.00     0.217 HD
ENDBRANCH   8  13
ENDBRANCH   1   7
BRANCH   6  15
HETATM   15  C12 UNL     1      25.113   0.852  52.032  1.00  0.00     0.079 C 
BRANCH  15  16
HETATM   16  C13 UNL     1      24.331   2.097  51.843  1.00  0.00    -0.036 A 
HETATM   17  C14 UNL     1      24.351   3.042  52.872  1.00  0.00     0.010 A 
HETATM   18  C15 UNL     1      23.676   4.245  52.841  1.00  0.00     0.020 A 
HETATM   19  C16 UNL     1      22.945   4.489  51.698  1.00  0.00     0.116 A 
HETATM   20  N2  UNL     1      22.905   3.601  50.689  1.00  0.00    -0.273 NA
HETATM   21  C17 UNL     1      23.574   2.427  50.742  1.00  0.00     0.123 A 
ENDBRANCH  15  16
ENDBRANCH   6  15
TORSDOF 4
ENDMDL
MODEL 3
REMARK VINA RESULT:      -7.9      2.240      5.863
REMARK  4 active torsions:
REMARK  status: ('A' for Active; 'I' for Inactive)
REMARK    1  A    between atoms: O1_1  and  C1_2 
REMARK    2  A    between atoms: C6_7  and  C7_8 
REMARK    3  A    between atoms: C11_13  and  C12_14 
REMARK    4  A    between atoms: C12_14  and  C13_15 
ROOT
HETATM    1  C7  UNL     1      23.683   1.149  52.484  1.00  0.00     0.001 A 
HETATM    2  C8  UNL     1      22.492   0.941  53.191  1.00  0.00     0.129 A 
HETATM    3  N1  UNL     1      22.505  -0.039  54.100  1.00  0.00    -0.272 NA
HETATM    4  C9  UNL     1      23.615  -0.773  54.307  1.00  0.00     0.116 A 
HETATM    5  C10 UNL     1      24.820  -0.597  53.623  1.00  0.00     0.027 A 
HETATM    6  C11 UNL     1      24.831   0.414  52.675  1.00  0.00    -0.040 A 
ENDROOT
BRANCH   1   7
HETATM    7  C6  UNL     1      23.702   2.213  51.483  1.00  0.00     0.009 A 
HETATM    8  C1  UNL     1      24.054   3.437  52.021  1.00  0.00     0.076 A 
HETATM    9  C2  UNL     1      24.123   4.561  51.214  1.00  0.00     0.037 A 
HETATM   10  C3  UNL     1      23.843   4.487  49.857  1.00  0.00     0.003 A 
HETATM   11  C4  UNL     1      23.494   3.253  49.344  1.00  0.00     0.001 A 
HETATM   12  C5  UNL     1      23.421   2.124  50.134  1.00  0.00     0.015 A 
BRANCH   8  13
HETATM   13  O1  UNL     1      24.371   3.722  53.354  1.00  0.00    -0.360 OA
HETATM   14  H1  UNL     1      24.690   2.959  53.960  1.00  0.00     0.217 HD
ENDBRANCH   8  13
ENDBRANCH   1   7
BRANCH   6  15
HETATM   15  C12 UNL     1      26.029   0.718  51.875  1.00  0.00     0.079 C 
BRANCH  15  16
HETATM   16  C13 UNL     1      27.155   1.035  52.784  1.00  0.00    -0.036 A 
HETATM   17  C14 UNL     1      28.053   0.011  53.093  1.00  0.00     0.010 A 
HETATM   18  C15 UNL     1      29.147   0.153  53.922  1.00  0.00     0.020 A 
HETATM   19  C16 UNL     1      29.326   1.409  54.460  1.00  0.00     0.116 A 
HETATM   20  N2  UNL     1      28.482   2.418  54.184  1.00  0.00    -0.273 NA
HETATM   21  C17 UNL     1      27.415   2.254  53.368  1.00  0.00     0.123 A 
ENDBRANCH  15  16
ENDBRANCH   6  15
TORSDOF 4
ENDMDL
MODEL 4
REMARK VINA RESULT:      -7.9      1.687      2.358
REMARK  4 active torsions:
REMARK  status: ('A' for Active; 'I' for Inactive)
REMARK    1  A    between atoms: O1_1  and  C1_2 
REMARK    2  A    between atoms: C6_7  and  C7_8 
REMARK    3  A    between atoms: C11_13  and  C12_14 
REMARK    4  A    between atoms: C12_14  and  C13_15 
ROOT
HETATM    1  C7  UNL     1      26.110   2.250  51.383  1.00  0.00     0.001 A 
HETATM    2  C8  UNL     1      26.630   2.697  50.162  1.00  0.00     0.129 A 
HETATM    3  N1  UNL     1      25.967   3.692  49.563  1.00  0.00    -0.272 NA
HETATM    4  C9  UNL     1      24.862   4.219  50.123  1.00  0.00     0.116 A 
HETATM    5  C10 UNL     1      24.312   3.802  51.338  1.00  0.00     0.027 A 
HETATM    6  C11 UNL     1      24.982   2.771  51.977  1.00  0.00    -0.040 A 
ENDROOT
BRANCH   1   7
HETATM    7  C6  UNL     1      26.810   1.163  52.062  1.00  0.00     0.009 A 
HETATM    8  C1  UNL     1      27.874   1.615  52.822  1.00  0.00     0.076 A 
HETATM    9  C2  UNL     1      28.652   0.719  53.537  1.00  0.00     0.037 A 
HETATM   10  C3  UNL     1      28.386  -0.642  53.509  1.00  0.00     0.003 A 
HETATM   11  C4  UNL     1      27.319  -1.068  52.743  1.00  0.00     0.001 A 
HETATM   12  C5  UNL     1      26.534  -0.189  52.025  1.00  0.00     0.015 A 
BRANCH   8  13
HETATM   13  O1  UNL     1      28.304   2.937  52.982  1.00  0.00    -0.360 OA
HETATM   14  H1  UNL     1      27.920   3.660  52.366  1.00  0.00     0.217 HD
ENDBRANCH   8  13
ENDBRANCH   1   7
BRANCH   6  15
HETATM   15  C12 UNL     1      24.522   2.224  53.264  1.00  0.00     0.079 C 
BRANCH  15  16
HETATM   16  C13 UNL     1      23.294   1.424  53.042  1.00  0.00    -0.036 A 
HETATM   17  C14 UNL     1      23.344   0.058  53.329  1.00  0.00     0.010 A 
HETATM   18  C15 UNL     1      22.286  -0.813  53.174  1.00  0.00     0.020 A 
HETATM   19  C16 UNL     1      21.119  -0.253  52.701  1.00  0.00     0.116 A 
HETATM   20  N2  UNL     1      21.035   1.058  52.415  1.00  0.00    -0.273 NA
HETATM   21  C17 UNL     1      22.087   1.893  52.575  1.00  0.00     0.123 A 
ENDBRANCH  15  16
ENDBRANCH   6  15
TORSDOF 4
ENDMDL
MODEL 5
REMARK VINA RESULT:      -7.9      2.025      4.085
REMARK  4 active torsions:
REMARK  status: ('A' for Active; 'I' for Inactive)
REMARK    1  A    between atoms: O1_1  and  C1_2 
REMARK    2  A    between atoms: C6_7  and  C7_8 
REMARK    3  A    between atoms: C11_13  and  C12_14 
REMARK    4  A    between atoms: C12_14  and  C13_15 
ROOT
HETATM    1  C7  UNL     1      27.273   1.746  52.850  1.00  0.00     0.001 A 
HETATM    2  C8  UNL     1      28.261   2.530  53.456  1.00  0.00     0.129 A 
HETATM    3  N1  UNL     1      29.025   1.921  54.369  1.00  0.00    -0.272 NA
HETATM    4  C9  UNL     1      28.834   0.623  54.672  1.00  0.00     0.116 A 
HETATM    5  C10 UNL     1      27.860  -0.192  54.090  1.00  0.00     0.027 A 
HETATM    6  C11 UNL     1      27.057   0.417  53.140  1.00  0.00    -0.040 A 
ENDROOT
BRANCH   1   7
HETATM    7  C6  UNL     1      26.421   2.382  51.847  1.00  0.00     0.009 A 
HETATM    8  C1  UNL     1      25.299   2.969  52.404  1.00  0.00     0.076 A 
HETATM    9  C2  UNL     1      24.379   3.619  51.599  1.00  0.00     0.037 A 
HETATM   10  C3  UNL     1      24.558   3.698  50.225  1.00  0.00     0.003 A 
HETATM   11  C4  UNL     1      25.687   3.105  49.693  1.00  0.00     0.001 A 
HETATM   12  C5  UNL     1      26.613   2.453  50.482  1.00  0.00     0.015 A 
BRANCH   8  13
HETATM   13  O1  UNL     1      24.937   3.000  53.755  1.00  0.00    -0.360 OA
HETATM   14  H1  UNL     1      25.676   2.979  54.466  1.00  0.00     0.217 HD
ENDBRANCH   8  13
ENDBRANCH   1   7
BRANCH   6  15
HETATM   15  C12 UNL     1      25.986  -0.313  52.442  1.00  0.00     0.079 C 
BRANCH  15  16
HETATM   16  C13 UNL     1      24.858  -0.535  53.376  1.00  0.00    -0.036 A 
HETATM   17  C14 UNL     1      23.573  -0.203  52.940  1.00  0.00     0.010 A 
HETATM   18  C15 UNL     1      22.428  -0.353  53.694  1.00  0.00     0.020 A 
HETATM   19  C16 UNL     1      22.611  -0.870  54.959  1.00  0.00     0.116 A 
HETATM   20  N2  UNL     1      23.834  -1.200  55.411  1.00  0.00    -0.273 NA
HETATM   21  C17 UNL     1      24.943  -1.043  54.653  1.00  0.00     0.123 A 
ENDBRANCH  15  16
ENDBRANCH   6  15
TORSDOF 4
ENDMDL
MODEL 6
REMARK VINA RESULT:      -7.6      3.026      5.483
REMARK  4 active torsions:
REMARK  status: ('A' for Active; 'I' for Inactive)
REMARK    1  A    between atoms: O1_1  and  C1_2 
REMARK    2  A    between atoms: C6_7  and  C7_8 
REMARK    3  A    between atoms: C11_13  and  C12_14 
REMARK    4  A    between atoms: C12_14  and  C13_15 
ROOT
HETATM    1  C7  UNL     1      23.774   2.416  50.772  1.00  0.00     0.001 A 
HETATM    2  C8  UNL     1      22.717   2.038  49.936  1.00  0.00     0.129 A 
HETATM    3  N1  UNL     1      21.839   1.168  50.446  1.00  0.00    -0.272 NA
HETATM    4  C9  UNL     1      21.986   0.694  51.698  1.00  0.00     0.116 A 
HETATM    5  C10 UNL     1      23.026   1.047  52.562  1.00  0.00     0.027 A 
HETATM    6  C11 UNL     1      23.948   1.948  52.055  1.00  0.00    -0.040 A 
ENDROOT
BRANCH   1   7
HETATM    7  C6  UNL     1      24.750   3.366  50.244  1.00  0.00     0.009 A 
HETATM    8  C1  UNL     1      24.342   4.679  50.391  1.00  0.00     0.076 A 
HETATM    9  C2  UNL     1      25.146   5.715  49.945  1.00  0.00     0.037 A 
HETATM   10  C3  UNL     1      26.372   5.464  49.345  1.00  0.00     0.003 A 
HETATM   11  C4  UNL     1      26.758   4.144  49.211  1.00  0.00     0.001 A 
HETATM   12  C5  UNL     1      25.968   3.101  49.649  1.00  0.00     0.015 A 
BRANCH   8  13
HETATM   13  O1  UNL     1      23.152   5.141  50.964  1.00  0.00    -0.360 OA
HETATM   14  H1  UNL     1      23.087   5.208  51.985  1.00  0.00     0.217 HD
ENDBRANCH   8  13
ENDBRANCH   1   7
BRANCH   6  15
HETATM   15  C12 UNL     1      25.099   2.413  52.847  1.00  0.00     0.079 C 
BRANCH  15  16
HETATM   16  C13 UNL     1      25.960   1.254  53.181  1.00  0.00    -0.036 A 
HETATM   17  C14 UNL     1      26.378   0.429  52.135  1.00  0.00     0.010 A 
HETATM   18  C15 UNL     1      27.180  -0.684  52.289  1.00  0.00     0.020 A 
HETATM   19  C16 UNL     1      27.571  -0.961  53.581  1.00  0.00     0.116 A 
HETATM   20  N2  UNL     1      27.186  -0.188  54.612  1.00  0.00    -0.273 NA
HETATM   21  C17 UNL     1      26.399   0.898  54.436  1.00  0.00     0.123 A 
ENDBRANCH  15  16
ENDBRANCH   6  15
TORSDOF 4
ENDMDL
MODEL 7
REMARK VINA RESULT:      -7.5      2.968      5.601
REMARK  4 active torsions:
REMARK  status: ('A' for Active; 'I' for Inactive)
REMARK    1  A    between atoms: O1_1  and  C1_2 
REMARK    2  A    between atoms: C6_7  and  C7_8 
REMARK    3  A    between atoms: C11_13  and  C12_14 
REMARK    4  A    between atoms: C12_14  and  C13_15 
ROOT
HETATM    1  C7  UNL     1      22.780   1.359  51.476  1.00  0.00     0.001 A 
HETATM    2  C8  UNL     1      22.199   1.362  50.202  1.00  0.00     0.129 A 
HETATM    3  N1  UNL     1      22.745   2.187  49.303  1.00  0.00    -0.272 NA
HETATM    4  C9  UNL     1      23.797   2.963  49.628  1.00  0.00     0.116 A 
HETATM    5  C10 UNL     1      24.404   2.988  50.886  1.00  0.00     0.027 A 
HETATM    6  C11 UNL     1      23.855   2.141  51.835  1.00  0.00    -0.040 A 
ENDROOT
BRANCH   1   7
HETATM    7  C6  UNL     1      22.206   0.468  52.482  1.00  0.00     0.009 A 
HETATM    8  C1  UNL     1      21.126   1.035  53.134  1.00  0.00     0.076 A 
HETATM    9  C2  UNL     1      20.458   0.330  54.122  1.00  0.00     0.037 A 
HETATM   10  C3  UNL     1      20.852  -0.952  54.479  1.00  0.00     0.003 A 
HETATM   11  C4  UNL     1      21.933  -1.496  53.812  1.00  0.00     0.001 A 
HETATM   12  C5  UNL     1      22.609  -0.806  52.826  1.00  0.00     0.015 A 
BRANCH   8  13
HETATM   13  O1  UNL     1      20.576   2.304  52.924  1.00  0.00    -0.360 OA
HETATM   14  H1  UNL     1      19.838   2.414  52.221  1.00  0.00     0.217 HD
ENDBRANCH   8  13
ENDBRANCH   1   7
BRANCH   6  15
HETATM   15  C12 UNL     1      24.386   2.058  53.206  1.00  0.00     0.079 C 
BRANCH  15  16
HETATM   16  C13 UNL     1      25.761   1.506  53.162  1.00  0.00    -0.036 A 
HETATM   17  C14 UNL     1      25.925   0.199  52.697  1.00  0.00     0.010 A 
HETATM   18  C15 UNL     1      27.138  -0.450  52.598  1.00  0.00     0.020 A 
HETATM   19  C16 UNL     1      28.237   0.280  52.997  1.00  0.00     0.116 A 
HETATM   20  N2  UNL     1      28.116   1.540  53.450  1.00  0.00    -0.273 NA
HETATM   21  C17 UNL     1      26.915   2.155  53.538  1.00  0.00     0.123 A 
ENDBRANCH  15  16
ENDBRANCH   6  15
TORSDOF 4
ENDMDL
MODEL 8
REMARK VINA RESULT:      -7.4      2.365      5.081
REMARK  4 active torsions:
REMARK  status: ('A' for Active; 'I' for Inactive)
REMARK    1  A    between atoms: O1_1  and  C1_2 
REMARK    2  A    between atoms: C6_7  and  C7_8 
REMARK    3  A    between atoms: C11_13  and  C12_14 
REMARK    4  A    between atoms: C12_14  and  C13_15 
ROOT
HETATM    1  C7  UNL     1      25.368   0.055  53.275  1.00  0.00     0.001 A 
HETATM    2  C8  UNL     1      26.414  -0.861  53.107  1.00  0.00     0.129 A 
HETATM    3  N1  UNL     1      27.598  -0.352  52.751  1.00  0.00    -0.272 NA
HETATM    4  C9  UNL     1      27.752   0.974  52.569  1.00  0.00     0.116 A 
HETATM    5  C10 UNL     1      26.735   1.919  52.727  1.00  0.00     0.027 A 
HETATM    6  C11 UNL     1      25.498   1.415  53.096  1.00  0.00    -0.040 A 
ENDROOT
BRANCH   1   7
HETATM    7  C6  UNL     1      24.062  -0.469  53.664  1.00  0.00     0.009 A 
HETATM    8  C1  UNL     1      24.063  -0.995  54.943  1.00  0.00     0.076 A 
HETATM    9  C2  UNL     1      22.906  -1.537  55.477  1.00  0.00     0.037 A 
HETATM   10  C3  UNL     1      21.726  -1.567  54.747  1.00  0.00     0.003 A 
HETATM   11  C4  UNL     1      21.750  -1.035  53.472  1.00  0.00     0.001 A 
HETATM   12  C5  UNL     1      22.895  -0.492  52.927  1.00  0.00     0.015 A 
BRANCH   8  13
HETATM   13  O1  UNL     1      25.140  -1.061  55.834  1.00  0.00    -0.360 OA
HETATM   14  H1  UNL     1      25.468  -1.981  56.147  1.00  0.00     0.217 HD
ENDBRANCH   8  13
ENDBRANCH   1   7
BRANCH   6  15
HETATM   15  C12 UNL     1      24.330   2.287  53.299  1.00  0.00     0.079 C 
BRANCH  15  16
HETATM   16  C13 UNL     1      24.042   3.015  52.041  1.00  0.00    -0.036 A 
HETATM   17  C14 UNL     1      23.794   2.260  50.892  1.00  0.00     0.010 A 
HETATM   18  C15 UNL     1      23.511   2.794  49.652  1.00  0.00     0.020 A 
HETATM   19  C16 UNL     1      23.482   4.170  49.588  1.00  0.00     0.116 A 
HETATM   20  N2  UNL     1      23.716   4.928  50.674  1.00  0.00    -0.273 NA
HETATM   21  C17 UNL     1      23.992   4.382  51.881  1.00  0.00     0.123 A 
ENDBRANCH  15  16
ENDBRANCH   6  15
TORSDOF 4
ENDMDL
MODEL 9
REMARK VINA RESULT:      -7.4      2.676      3.795
REMARK  4 active torsions:
REMARK  status: ('A' for Active; 'I' for Inactive)
REMARK    1  A    between atoms: O1_1  and  C1_2 
REMARK    2  A    between atoms: C6_7  and  C7_8 
REMARK    3  A    between atoms: C11_13  and  C12_14 
REMARK    4  A    between atoms: C12_14  and  C13_15 
ROOT
HETATM    1  C7  UNL     1      23.800   2.447  52.502  1.00  0.00     0.001 A 
HETATM    2  C8  UNL     1      24.165   3.634  53.148  1.00  0.00     0.129 A 
HETATM    3  N1  UNL     1      23.353   4.680  52.973  1.00  0.00    -0.272 NA
HETATM    4  C9  UNL     1      22.247   4.575  52.211  1.00  0.00     0.116 A 
HETATM    5  C10 UNL     1      21.848   3.411  51.550  1.00  0.00     0.027 A 
HETATM    6  C11 UNL     1      22.675   2.312  51.717  1.00  0.00    -0.040 A 
ENDROOT
BRANCH   1   7
HETATM    7  C6  UNL     1      24.667   1.285  52.673  1.00  0.00     0.009 A 
HETATM    8  C1  UNL     1      25.765   1.317  51.832  1.00  0.00     0.076 A 
HETATM    9  C2  UNL     1      26.696   0.292  51.859  1.00  0.00     0.037 A 
HETATM   10  C3  UNL     1      26.553  -0.784  52.723  1.00  0.00     0.003 A 
HETATM   11  C4  UNL     1      25.448  -0.793  53.553  1.00  0.00     0.001 A 
HETATM   12  C5  UNL     1      24.512   0.221  53.538  1.00  0.00     0.015 A 
BRANCH   8  13
HETATM   13  O1  UNL     1      26.090   2.305  50.895  1.00  0.00    -0.360 OA
HETATM   14  H1  UNL     1      25.579   3.193  50.915  1.00  0.00     0.217 HD
ENDBRANCH   8  13
ENDBRANCH   1   7
BRANCH   6  15
HETATM   15  C12 UNL     1      22.386   1.016  51.082  1.00  0.00     0.079 C 
BRANCH  15  16
HETATM   16  C13 UNL     1      21.069   0.526  51.552  1.00  0.00    -0.036 A 
HETATM   17  C14 UNL     1      20.991  -0.001  52.844  1.00  0.00     0.010 A 
HETATM   18  C15 UNL     1      19.838  -0.493  53.419  1.00  0.00     0.020 A 
HETATM   19  C16 UNL     1      18.710  -0.442  52.629  1.00  0.00     0.116 A 
HETATM   20  N2  UNL     1      18.749   0.059  51.382  1.00  0.00    -0.273 NA
HETATM   21  C17 UNL     1      19.892   0.536  50.839  1.00  0.00     0.123 A 
ENDBRANCH  15  16
ENDBRANCH   6  15
TORSDOF 4
ENDMDL
