MODEL 1
REMARK VINA RESULT:      -7.5      0.000      0.000
REMARK  5 active torsions:
REMARK  status: ('A' for Active; 'I' for Inactive)
REMARK    1  A    between atoms: C2_2  and  C3_3 
REMARK    2  A    between atoms: C4_4  and  C5_5 
REMARK    3  A    between atoms: N1_6  and  C6_7 
REMARK    4  A    between atoms: C6_7  and  N2_8 
REMARK    5  A    between atoms: C11_16  and  O1_17 
ROOT
HETATM    1  N2  UNL     1      25.684   2.992  51.681  1.00  0.00    -0.063 NA
HETATM    2  N3  UNL     1      24.613   2.254  52.176  1.00  0.00    -0.214 N 
HETATM    3  N4  UNL     1      24.149   1.182  52.915  1.00  0.00    -0.168 NA
HETATM    4  C7  UNL     1      24.623   0.140  53.454  1.00  0.00     0.067 C 
HETATM    5  C8  UNL     1      24.382  -0.881  54.553  1.00  0.00     0.206 C 
HETATM    6  N5  UNL     1      25.653  -0.716  55.302  1.00  0.00    -0.287 NA
HETATM    7  C9  UNL     1      26.604  -0.403  54.439  1.00  0.00     0.045 C 
HETATM    8  C10 UNL     1      28.084  -0.052  54.240  1.00  0.00     0.067 C 
HETATM    9  C11 UNL     1      27.966   1.126  53.571  1.00  0.00     0.105 C 
HETATM   10  C13 UNL     1      27.098   0.963  52.363  1.00  0.00     0.125 C 
HETATM   11  C14 UNL     1      26.555  -0.191  51.968  1.00  0.00     0.032 C 
HETATM   12  C15 UNL     1      25.832  -0.630  53.147  1.00  0.00     0.114 C 
HETATM   13  O2  UNL     1      26.927   2.240  51.736  1.00  0.00    -0.236 OA
HETATM   14  H9  UNL     1      23.734   2.725  51.843  1.00  0.00     0.206 HD
ENDROOT
BRANCH   1  15
HETATM   15  C6  UNL     1      25.470   3.015  50.219  1.00  0.00     0.296 C 
BRANCH  15  16
HETATM   16  N1  UNL     1      26.796   3.273  49.674  1.00  0.00    -0.283 NA
HETATM   17  C5  UNL     1      27.112   4.382  49.123  1.00  0.00     0.112 C 
BRANCH  17  18
HETATM   18  C4  UNL     1      26.423   5.636  48.851  1.00  0.00     0.019 C 
HETATM   19  C3  UNL     1      27.255   6.492  48.320  1.00  0.00    -0.003 C 
BRANCH  19  20
HETATM   20  C2  UNL     1      28.587   5.917  48.178  1.00  0.00    -0.009 C 
HETATM   21  C1  UNL     1      29.641   6.618  47.728  1.00  0.00     0.013 C 
ENDBRANCH  19  20
ENDBRANCH  17  18
ENDBRANCH  15  16
ENDBRANCH   1  15
BRANCH   9  22
HETATM   22  O1  UNL     1      28.554   2.324  53.911  1.00  0.00    -0.353 OA
HETATM   23  C12 UNL     1      29.757   2.227  54.689  1.00  0.00     0.210 C 
ENDBRANCH   9  22
TORSDOF 5
ENDMDL
MODEL 2
REMARK VINA RESULT:      -7.5      3.187      6.816
REMARK  5 active torsions:
REMARK  status: ('A' for Active; 'I' for Inactive)
REMARK    1  A    between atoms: C2_2  and  C3_3 
REMARK    2  A    between atoms: C4_4  and  C5_5 
REMARK    3  A    between atoms: N1_6  and  C6_7 
REMARK    4  A    between atoms: C6_7  and  N2_8 
REMARK    5  A    between atoms: C11_16  and  O1_17 
ROOT
HETATM    1  N2  UNL     1      23.656  -0.047  53.825  1.00  0.00    -0.063 NA
HETATM    2  N3  UNL     1      24.695  -0.491  54.637  1.00  0.00    -0.214 N 
HETATM    3  N4  UNL     1      26.042  -0.494  54.949  1.00  0.00    -0.168 NA
HETATM    4  C7  UNL     1      27.126  -0.101  54.426  1.00  0.00     0.067 C 
HETATM    5  C8  UNL     1      28.552   0.316  54.744  1.00  0.00     0.206 C 
HETATM    6  N5  UNL     1      28.537   1.668  54.133  1.00  0.00    -0.287 NA
HETATM    7  C9  UNL     1      27.729   1.641  53.088  1.00  0.00     0.045 C 
HETATM    8  C10 UNL     1      27.097   2.438  51.940  1.00  0.00     0.067 C 
HETATM    9  C11 UNL     1      25.780   2.190  52.167  1.00  0.00     0.105 C 
HETATM   10  C13 UNL     1      25.526   0.717  52.244  1.00  0.00     0.125 C 
HETATM   11  C14 UNL     1      26.455  -0.225  52.063  1.00  0.00     0.032 C 
HETATM   12  C15 UNL     1      27.479   0.142  53.024  1.00  0.00     0.114 C 
HETATM   13  O2  UNL     1      24.148   0.499  52.570  1.00  0.00    -0.236 OA
HETATM   14  H9  UNL     1      24.271  -1.119  55.365  1.00  0.00     0.206 HD
ENDROOT
BRANCH   1  15
HETATM   15  C6  UNL     1      23.022  -1.285  53.329  1.00  0.00     0.296 C 
BRANCH  15  16
HETATM   16  N1  UNL     1      21.794  -1.387  54.106  1.00  0.00    -0.283 NA
HETATM   17  C5  UNL     1      20.709  -0.805  53.760  1.00  0.00     0.112 C 
BRANCH  17  18
HETATM   18  C4  UNL     1      20.299   0.048  52.653  1.00  0.00     0.019 C 
HETATM   19  C3  UNL     1      19.049  -0.190  52.351  1.00  0.00    -0.003 C 
BRANCH  19  20
HETATM   20  C2  UNL     1      18.483  -1.221  53.212  1.00  0.00    -0.009 C 
HETATM   21  C1  UNL     1      17.241  -1.704  53.052  1.00  0.00     0.013 C 
ENDBRANCH  19  20
ENDBRANCH  17  18
ENDBRANCH  15  16
ENDBRANCH   1  15
BRANCH   9  22
HETATM   22  O1  UNL     1      24.781   3.128  52.303  1.00  0.00    -0.353 OA
HETATM   23  C12 UNL     1      24.306   3.710  51.079  1.00  0.00     0.210 C 
ENDBRANCH   9  22
TORSDOF 5
ENDMDL
MODEL 3
REMARK VINA RESULT:      -7.2      3.515      7.333
REMARK  5 active torsions:
REMARK  status: ('A' for Active; 'I' for Inactive)
REMARK    1  A    between atoms: C2_2  and  C3_3 
REMARK    2  A    between atoms: C4_4  and  C5_5 
REMARK    3  A    between atoms: N1_6  and  C6_7 
REMARK    4  A    between atoms: C6_7  and  N2_8 
REMARK    5  A    between atoms: C11_16  and  O1_17 
ROOT
HETATM    1  N2  UNL     1      23.318  -0.797  53.595  1.00  0.00    -0.063 NA
HETATM    2  N3  UNL     1      23.114   0.287  52.747  1.00  0.00    -0.214 N 
HETATM    3  N4  UNL     1      23.632   1.350  52.031  1.00  0.00    -0.168 NA
HETATM    4  C7  UNL     1      24.730   1.972  51.939  1.00  0.00     0.067 C 
HETATM    5  C8  UNL     1      25.565   2.841  51.014  1.00  0.00     0.206 C 
HETATM    6  N5  UNL     1      26.793   2.008  50.964  1.00  0.00    -0.287 NA
HETATM    7  C9  UNL     1      26.926   1.398  52.129  1.00  0.00     0.045 C 
HETATM    8  C10 UNL     1      27.756   0.424  52.974  1.00  0.00     0.067 C 
HETATM    9  C11 UNL     1      26.795  -0.468  53.332  1.00  0.00     0.105 C 
HETATM   10  C13 UNL     1      25.638   0.232  53.973  1.00  0.00     0.125 C 
HETATM   11  C14 UNL     1      25.580   1.545  54.207  1.00  0.00     0.032 C 
HETATM   12  C15 UNL     1      25.829   2.119  52.898  1.00  0.00     0.114 C 
HETATM   13  O2  UNL     1      24.612  -0.727  54.256  1.00  0.00    -0.236 OA
HETATM   14  H9  UNL     1      22.084   0.328  52.542  1.00  0.00     0.206 HD
ENDROOT
BRANCH   1  15
HETATM   15  C6  UNL     1      22.433  -0.534  54.748  1.00  0.00     0.296 C 
BRANCH  15  16
HETATM   16  N1  UNL     1      21.521  -1.670  54.758  1.00  0.00    -0.283 NA
HETATM   17  C5  UNL     1      20.381  -1.643  54.182  1.00  0.00     0.112 C 
BRANCH  17  18
HETATM   18  C4  UNL     1      19.633  -0.660  53.410  1.00  0.00     0.019 C 
HETATM   19  C3  UNL     1      18.411  -1.084  53.218  1.00  0.00    -0.003 C 
BRANCH  19  20
HETATM   20  C2  UNL     1      18.201  -2.389  53.833  1.00  0.00    -0.009 C 
HETATM   21  C1  UNL     1      17.248  -3.243  53.425  1.00  0.00     0.013 C 
ENDBRANCH  19  20
ENDBRANCH  17  18
ENDBRANCH  15  16
ENDBRANCH   1  15
BRANCH   9  22
HETATM   22  O1  UNL     1      26.839  -1.834  53.161  1.00  0.00    -0.353 OA
HETATM   23  C12 UNL     1      28.129  -2.379  52.841  1.00  0.00     0.210 C 
ENDBRANCH   9  22
TORSDOF 5
ENDMDL
MODEL 4
REMARK VINA RESULT:      -6.9      3.651      6.430
REMARK  5 active torsions:
REMARK  status: ('A' for Active; 'I' for Inactive)
REMARK    1  A    between atoms: C2_2  and  C3_3 
REMARK    2  A    between atoms: C4_4  and  C5_5 
REMARK    3  A    between atoms: N1_6  and  C6_7 
REMARK    4  A    between atoms: C6_7  and  N2_8 
REMARK    5  A    between atoms: C11_16  and  O1_17 
ROOT
HETATM    1  N2  UNL     1      24.581   2.570  53.488  1.00  0.00    -0.063 NA
HETATM    2  N3  UNL     1      24.009   3.723  52.957  1.00  0.00    -0.214 N 
HETATM    3  N4  UNL     1      22.940   4.341  52.335  1.00  0.00    -0.168 NA
HETATM    4  C7  UNL     1      21.864   4.002  51.764  1.00  0.00     0.067 C 
HETATM    5  C8  UNL     1      20.474   4.490  51.391  1.00  0.00     0.206 C 
HETATM    6  N5  UNL     1      19.673   3.438  52.065  1.00  0.00    -0.287 NA
HETATM    7  C9  UNL     1      20.362   2.311  52.034  1.00  0.00     0.045 C 
HETATM    8  C10 UNL     1      20.407   0.830  52.430  1.00  0.00     0.067 C 
HETATM    9  C11 UNL     1      21.588   0.793  53.102  1.00  0.00     0.105 C 
HETATM   10  C13 UNL     1      22.693   1.344  52.257  1.00  0.00     0.125 C 
HETATM   11  C14 UNL     1      22.549   1.767  50.998  1.00  0.00     0.032 C 
HETATM   12  C15 UNL     1      21.485   2.747  51.105  1.00  0.00     0.114 C 
HETATM   13  O2  UNL     1      23.901   1.370  53.028  1.00  0.00    -0.236 OA
HETATM   14  H9  UNL     1      24.705   4.499  53.086  1.00  0.00     0.206 HD
ENDROOT
BRANCH   1  15
HETATM   15  C6  UNL     1      25.860   2.427  52.764  1.00  0.00     0.296 C 
BRANCH  15  16
HETATM   16  N1  UNL     1      26.785   1.938  53.777  1.00  0.00    -0.283 NA
HETATM   17  C5  UNL     1      27.143   0.713  53.850  1.00  0.00     0.112 C 
BRANCH  17  18
HETATM   18  C4  UNL     1      26.846  -0.499  53.100  1.00  0.00     0.019 C 
HETATM   19  C3  UNL     1      27.900  -1.272  53.073  1.00  0.00    -0.003 C 
BRANCH  19  20
HETATM   20  C2  UNL     1      29.015  -0.672  53.795  1.00  0.00    -0.009 C 
HETATM   21  C1  UNL     1      30.258  -1.180  53.771  1.00  0.00     0.013 C 
ENDBRANCH  19  20
ENDBRANCH  17  18
ENDBRANCH  15  16
ENDBRANCH   1  15
BRANCH   9  22
HETATM   22  O1  UNL     1      21.791   0.314  54.377  1.00  0.00    -0.353 OA
HETATM   23  C12 UNL     1      21.370  -1.039  54.608  1.00  0.00     0.210 C 
ENDBRANCH   9  22
TORSDOF 5
ENDMDL
MODEL 5
REMARK VINA RESULT:      -6.8      3.866      7.595
REMARK  5 active torsions:
REMARK  status: ('A' for Active; 'I' for Inactive)
REMARK    1  A    between atoms: C2_2  and  C3_3 
REMARK    2  A    between atoms: C4_4  and  C5_5 
REMARK    3  A    between atoms: N1_6  and  C6_7 
REMARK    4  A    between atoms: C6_7  and  N2_8 
REMARK    5  A    between atoms: C11_16  and  O1_17 
ROOT
HETATM    1  N2  UNL     1      22.178   0.392  51.857  1.00  0.00    -0.063 NA
HETATM    2  N3  UNL     1      22.454   1.346  50.881  1.00  0.00    -0.214 N 
HETATM    3  N4  UNL     1      23.333   2.256  50.325  1.00  0.00    -0.168 NA
HETATM    4  C7  UNL     1      24.439   2.793  50.621  1.00  0.00     0.067 C 
HETATM    5  C8  UNL     1      25.668   3.461  50.028  1.00  0.00     0.206 C 
HETATM    6  N5  UNL     1      26.709   2.561  50.583  1.00  0.00    -0.287 NA
HETATM    7  C9  UNL     1      26.296   2.127  51.761  1.00  0.00     0.045 C 
HETATM    8  C10 UNL     1      26.604   1.246  52.978  1.00  0.00     0.067 C 
HETATM    9  C11 UNL     1      25.484   0.475  53.009  1.00  0.00     0.105 C 
HETATM   10  C13 UNL     1      24.256   1.330  53.034  1.00  0.00     0.125 C 
HETATM   11  C14 UNL     1      24.260   2.665  53.071  1.00  0.00     0.032 C 
HETATM   12  C15 UNL     1      25.074   3.019  51.924  1.00  0.00     0.114 C 
HETATM   13  O2  UNL     1      23.099   0.486  52.978  1.00  0.00    -0.236 OA
HETATM   14  H9  UNL     1      21.603   1.414  50.269  1.00  0.00     0.206 HD
ENDROOT
BRANCH   1  15
HETATM   15  C6  UNL     1      20.943   0.877  52.506  1.00  0.00     0.296 C 
BRANCH  15  16
HETATM   16  N1  UNL     1      20.541  -0.227  53.367  1.00  0.00    -0.283 NA
HETATM   17  C5  UNL     1      19.368  -0.732  53.339  1.00  0.00     0.112 C 
BRANCH  17  18
HETATM   18  C4  UNL     1      18.149  -0.479  52.582  1.00  0.00     0.019 C 
HETATM   19  C3  UNL     1      17.331  -1.491  52.708  1.00  0.00    -0.003 C 
BRANCH  19  20
HETATM   20  C2  UNL     1      17.902  -2.530  53.556  1.00  0.00    -0.009 C 
HETATM   21  C1  UNL     1      17.279  -3.694  53.804  1.00  0.00     0.013 C 
ENDBRANCH  19  20
ENDBRANCH  17  18
ENDBRANCH  15  16
ENDBRANCH   1  15
BRANCH   9  22
HETATM   22  O1  UNL     1      25.436  -0.901  53.029  1.00  0.00    -0.353 OA
HETATM   23  C12 UNL     1      26.649  -1.571  52.653  1.00  0.00     0.210 C 
ENDBRANCH   9  22
TORSDOF 5
ENDMDL
MODEL 6
REMARK VINA RESULT:      -6.6      2.364      3.897
REMARK  5 active torsions:
REMARK  status: ('A' for Active; 'I' for Inactive)
REMARK    1  A    between atoms: C2_2  and  C3_3 
REMARK    2  A    between atoms: C4_4  and  C5_5 
REMARK    3  A    between atoms: N1_6  and  C6_7 
REMARK    4  A    between atoms: C6_7  and  N2_8 
REMARK    5  A    between atoms: C11_16  and  O1_17 
ROOT
HETATM    1  N2  UNL     1      25.275   4.094  50.072  1.00  0.00    -0.063 NA
HETATM    2  N3  UNL     1      26.441   3.588  50.639  1.00  0.00    -0.214 N 
HETATM    3  N4  UNL     1      27.054   2.695  51.499  1.00  0.00    -0.168 NA
HETATM    4  C7  UNL     1      26.711   1.882  52.406  1.00  0.00     0.067 C 
HETATM    5  C8  UNL     1      27.141   0.624  53.141  1.00  0.00     0.206 C 
HETATM    6  N5  UNL     1      25.958  -0.225  52.854  1.00  0.00    -0.287 NA
HETATM    7  C9  UNL     1      24.896   0.558  52.780  1.00  0.00     0.045 C 
HETATM    8  C10 UNL     1      23.384   0.641  52.535  1.00  0.00     0.067 C 
HETATM    9  C11 UNL     1      23.349   1.563  51.537  1.00  0.00     0.105 C 
HETATM   10  C13 UNL     1      24.080   2.805  51.940  1.00  0.00     0.125 C 
HETATM   11  C14 UNL     1      24.645   3.000  53.134  1.00  0.00     0.032 C 
HETATM   12  C15 UNL     1      25.525   1.854  53.268  1.00  0.00     0.114 C 
HETATM   13  O2  UNL     1      24.096   3.716  50.834  1.00  0.00    -0.236 OA
HETATM   14  H9  UNL     1      27.243   4.126  50.226  1.00  0.00     0.206 HD
ENDROOT
BRANCH   1  15
HETATM   15  C6  UNL     1      25.317   5.539  50.374  1.00  0.00     0.296 C 
BRANCH  15  16
HETATM   16  N1  UNL     1      25.262   6.175  49.065  1.00  0.00    -0.283 NA
HETATM   17  C5  UNL     1      26.303   6.370  48.349  1.00  0.00     0.112 C 
BRANCH  17  18
HETATM   18  C4  UNL     1      27.726   6.097  48.494  1.00  0.00     0.019 C 
HETATM   19  C3  UNL     1      28.412   6.906  47.731  1.00  0.00    -0.003 C 
BRANCH  19  20
HETATM   20  C2  UNL     1      27.536   7.807  46.991  1.00  0.00    -0.009 C 
HETATM   21  C1  UNL     1      27.964   8.562  45.966  1.00  0.00     0.013 C 
ENDBRANCH  19  20
ENDBRANCH  17  18
ENDBRANCH  15  16
ENDBRANCH   1  15
BRANCH   9  22
HETATM   22  O1  UNL     1      22.731   1.425  50.314  1.00  0.00    -0.353 OA
HETATM   23  C12 UNL     1      21.428   0.822  50.342  1.00  0.00     0.210 C 
ENDBRANCH   9  22
TORSDOF 5
ENDMDL
MODEL 7
REMARK VINA RESULT:      -6.5      2.169      3.697
REMARK  5 active torsions:
REMARK  status: ('A' for Active; 'I' for Inactive)
REMARK    1  A    between atoms: C2_2  and  C3_3 
REMARK    2  A    between atoms: C4_4  and  C5_5 
REMARK    3  A    between atoms: N1_6  and  C6_7 
REMARK    4  A    between atoms: C6_7  and  N2_8 
REMARK    5  A    between atoms: C11_16  and  O1_17 
ROOT
HETATM    1  N2  UNL     1      25.399   3.052  49.870  1.00  0.00    -0.063 NA
HETATM    2  N3  UNL     1      26.347   2.255  50.505  1.00  0.00    -0.214 N 
HETATM    3  N4  UNL     1      26.670   1.369  51.517  1.00  0.00    -0.168 NA
HETATM    4  C7  UNL     1      26.144   0.926  52.578  1.00  0.00     0.067 C 
HETATM    5  C8  UNL     1      26.152  -0.245  53.546  1.00  0.00     0.206 C 
HETATM    6  N5  UNL     1      24.719  -0.621  53.464  1.00  0.00    -0.287 NA
HETATM    7  C9  UNL     1      24.014   0.477  53.253  1.00  0.00     0.045 C 
HETATM    8  C10 UNL     1      22.622   1.079  53.028  1.00  0.00     0.067 C 
HETATM    9  C11 UNL     1      22.830   1.747  51.863  1.00  0.00     0.105 C 
HETATM   10  C13 UNL     1      24.000   2.673  51.988  1.00  0.00     0.125 C 
HETATM   11  C14 UNL     1      24.710   2.854  53.105  1.00  0.00     0.032 C 
HETATM   12  C15 UNL     1      25.118   1.505  53.452  1.00  0.00     0.114 C 
HETATM   13  O2  UNL     1      24.242   3.292  50.719  1.00  0.00    -0.236 OA
HETATM   14  H9  UNL     1      27.247   2.365  49.974  1.00  0.00     0.206 HD
ENDROOT
BRANCH   1  15
HETATM   15  C6  UNL     1      25.995   4.403  49.870  1.00  0.00     0.296 C 
BRANCH  15  16
HETATM   16  N1  UNL     1      27.291   4.215  49.231  1.00  0.00    -0.283 NA
HETATM   17  C5  UNL     1      27.869   5.136  48.560  1.00  0.00     0.112 C 
BRANCH  17  18
HETATM   18  C4  UNL     1      27.553   6.514  48.206  1.00  0.00     0.019 C 
HETATM   19  C3  UNL     1      28.618   7.103  47.729  1.00  0.00    -0.003 C 
BRANCH  19  20
HETATM   20  C2  UNL     1      29.760   6.197  47.708  1.00  0.00    -0.009 C 
HETATM   21  C1  UNL     1      31.023   6.620  47.535  1.00  0.00     0.013 C 
ENDBRANCH  19  20
ENDBRANCH  17  18
ENDBRANCH  15  16
ENDBRANCH   1  15
BRANCH   9  22
HETATM   22  O1  UNL     1      22.090   1.633  50.707  1.00  0.00    -0.353 OA
HETATM   23  C12 UNL     1      21.236   0.482  50.629  1.00  0.00     0.210 C 
ENDBRANCH   9  22
TORSDOF 5
ENDMDL
MODEL 8
REMARK VINA RESULT:      -6.5      2.055      2.856
REMARK  5 active torsions:
REMARK  status: ('A' for Active; 'I' for Inactive)
REMARK    1  A    between atoms: C2_2  and  C3_3 
REMARK    2  A    between atoms: C4_4  and  C5_5 
REMARK    3  A    between atoms: N1_6  and  C6_7 
REMARK    4  A    between atoms: C6_7  and  N2_8 
REMARK    5  A    between atoms: C11_16  and  O1_17 
ROOT
HETATM    1  N2  UNL     1      25.708   2.996  51.541  1.00  0.00    -0.063 NA
HETATM    2  N3  UNL     1      24.604   2.255  51.955  1.00  0.00    -0.214 N 
HETATM    3  N4  UNL     1      24.090   1.183  52.660  1.00  0.00    -0.168 NA
HETATM    4  C7  UNL     1      24.525   0.145  53.238  1.00  0.00     0.067 C 
HETATM    5  C8  UNL     1      24.205  -0.874  54.319  1.00  0.00     0.206 C 
HETATM    6  N5  UNL     1      25.414  -0.700  55.163  1.00  0.00    -0.287 NA
HETATM    7  C9  UNL     1      26.427  -0.386  54.374  1.00  0.00     0.045 C 
HETATM    8  C10 UNL     1      27.916  -0.029  54.288  1.00  0.00     0.067 C 
HETATM    9  C11 UNL     1      27.846   1.146  53.608  1.00  0.00     0.105 C 
HETATM   10  C13 UNL     1      27.073   0.975  52.337  1.00  0.00     0.125 C 
HETATM   11  C14 UNL     1      26.567  -0.183  51.906  1.00  0.00     0.032 C 
HETATM   12  C15 UNL     1      25.758  -0.621  53.028  1.00  0.00     0.114 C 
HETATM   13  O2  UNL     1      26.946   2.249  51.695  1.00  0.00    -0.236 OA
HETATM   14  H9  UNL     1      23.753   2.721  51.554  1.00  0.00     0.206 HD
ENDROOT
BRANCH   1  15
HETATM   15  C6  UNL     1      25.607   3.013  50.067  1.00  0.00     0.296 C 
BRANCH  15  16
HETATM   16  N1  UNL     1      24.710   4.127  49.790  1.00  0.00    -0.283 NA
HETATM   17  C5  UNL     1      23.610   3.985  49.155  1.00  0.00     0.112 C 
BRANCH  17  18
HETATM   18  C4  UNL     1      22.901   2.867  48.547  1.00  0.00     0.019 C 
HETATM   19  C3  UNL     1      22.230   3.282  47.506  1.00  0.00    -0.003 C 
BRANCH  19  20
HETATM   20  C2  UNL     1      22.408   4.713  47.296  1.00  0.00    -0.009 C 
HETATM   21  C1  UNL     1      21.829   5.381  46.285  1.00  0.00     0.013 C 
ENDBRANCH  19  20
ENDBRANCH  17  18
ENDBRANCH  15  16
ENDBRANCH   1  15
BRANCH   9  22
HETATM   22  O1  UNL     1      28.401   2.347  53.988  1.00  0.00    -0.353 OA
HETATM   23  C12 UNL     1      29.725   2.273  54.539  1.00  0.00     0.210 C 
ENDBRANCH   9  22
TORSDOF 5
ENDMDL
MODEL 9
REMARK VINA RESULT:      -6.5      5.378      8.263
REMARK  5 active torsions:
REMARK  status: ('A' for Active; 'I' for Inactive)
REMARK    1  A    between atoms: C2_2  and  C3_3 
REMARK    2  A    between atoms: C4_4  and  C5_5 
REMARK    3  A    between atoms: N1_6  and  C6_7 
REMARK    4  A    between atoms: C6_7  and  N2_8 
REMARK    5  A    between atoms: C11_16  and  O1_17 
ROOT
HETATM    1  N2  UNL     1      30.953   6.291  48.710  1.00  0.00    -0.063 NA
HETATM    2  N3  UNL     1      30.729   7.594  49.147  1.00  0.00    -0.214 N 
HETATM    3  N4  UNL     1      29.845   8.623  49.411  1.00  0.00    -0.168 NA
HETATM    4  C7  UNL     1      28.627   8.890  49.196  1.00  0.00     0.067 C 
HETATM    5  C8  UNL     1      27.453   9.714  49.698  1.00  0.00     0.206 C 
HETATM    6  N5  UNL     1      26.485   8.614  49.934  1.00  0.00    -0.287 NA
HETATM    7  C9  UNL     1      26.712   7.665  49.044  1.00  0.00     0.045 C 
HETATM    8  C10 UNL     1      26.313   6.279  48.523  1.00  0.00     0.067 C 
HETATM    9  C11 UNL     1      27.514   5.645  48.570  1.00  0.00     0.105 C 
HETATM   10  C13 UNL     1      28.551   6.422  47.820  1.00  0.00     0.125 C 
HETATM   11  C14 UNL     1      28.316   7.556  47.154  1.00  0.00     0.032 C 
HETATM   12  C15 UNL     1      27.708   8.404  48.162  1.00  0.00     0.114 C 
HETATM   13  O2  UNL     1      29.818   5.770  47.966  1.00  0.00    -0.236 OA
HETATM   14  H9  UNL     1      31.664   7.997  49.406  1.00  0.00     0.206 HD
ENDROOT
BRANCH   1  15
HETATM   15  C6  UNL     1      31.929   6.436  47.610  1.00  0.00     0.296 C 
BRANCH  15  16
HETATM   16  N1  UNL     1      31.870   5.155  46.918  1.00  0.00    -0.283 NA
HETATM   17  C5  UNL     1      32.847   4.331  46.908  1.00  0.00     0.112 C 
BRANCH  17  18
HETATM   18  C4  UNL     1      34.189   4.309  47.474  1.00  0.00     0.019 C 
HETATM   19  C3  UNL     1      34.454   3.116  47.937  1.00  0.00    -0.003 C 
BRANCH  19  20
HETATM   20  C2  UNL     1      33.330   2.209  47.738  1.00  0.00    -0.009 C 
HETATM   21  C1  UNL     1      33.100   1.148  48.529  1.00  0.00     0.013 C 
ENDBRANCH  19  20
ENDBRANCH  17  18
ENDBRANCH  15  16
ENDBRANCH   1  15
BRANCH   9  22
HETATM   22  O1  UNL     1      27.787   4.449  49.195  1.00  0.00    -0.353 OA
HETATM   23  C12 UNL     1      26.644   3.637  49.508  1.00  0.00     0.210 C 
ENDBRANCH   9  22
TORSDOF 5
ENDMDL
