MODEL 1
REMARK VINA RESULT:      -8.2      0.000      0.000
REMARK  4 active torsions:
REMARK  status: ('A' for Active; 'I' for Inactive)
REMARK    1  A    between atoms: C2_2  and  N1_3 
REMARK    2  A    between atoms: N3_8  and  C6_9 
REMARK    3  A    between atoms: C10_13  and  C11_14 
REMARK    4  A    between atoms: C13_19  and  N4_20 
ROOT
HETATM    1  N1  UNL     1      28.128   1.038  53.713  1.00  0.00    -0.324 N 
HETATM    2  C3  UNL     1      28.071   1.947  52.722  1.00  0.00     0.212 A 
HETATM    3  N2  UNL     1      26.797   2.009  52.299  1.00  0.00    -0.239 NA
HETATM    4  C4  UNL     1      26.086   1.134  53.039  1.00  0.00     0.121 A 
HETATM    5  C5  UNL     1      24.753   0.797  53.027  1.00  0.00     0.151 A 
HETATM    6  N3  UNL     1      24.345  -0.142  53.921  1.00  0.00    -0.153 N 
HETATM    7  C13 UNL     1      25.160  -0.751  54.801  1.00  0.00     0.728 A 
HETATM    8  N5  UNL     1      26.474  -0.430  54.825  1.00  0.00    -0.042 NA
HETATM    9  C14 UNL     1      26.921   0.498  53.953  1.00  0.00     0.180 A 
ENDROOT
BRANCH   6  10
HETATM   10  C6  UNL     1      22.957  -0.451  53.864  1.00  0.00     0.057 A 
HETATM   11  C7  UNL     1      22.231  -1.237  54.732  1.00  0.00     0.030 A 
HETATM   12  C8  UNL     1      20.873  -1.421  54.505  1.00  0.00     0.003 A 
HETATM   13  C9  UNL     1      20.275  -0.814  53.412  1.00  0.00     0.016 A 
HETATM   14  C10 UNL     1      20.969  -0.025  52.528  1.00  0.00     0.050 A 
HETATM   15  C12 UNL     1      22.334   0.152  52.767  1.00  0.00     0.046 A 
BRANCH  14  16
HETATM   16  C11 UNL     1      20.309   0.626  51.351  1.00  0.00     0.417 C 
HETATM   17  F1  UNL     1      20.100   1.957  51.605  1.00  0.00    -0.166 F 
HETATM   18  F2  UNL     1      19.111  -0.052  51.109  1.00  0.00    -0.166 F 
HETATM   19  F3  UNL     1      21.089   0.427  50.212  1.00  0.00    -0.166 F 
ENDBRANCH  14  16
ENDBRANCH   6  10
BRANCH   7  20
HETATM   20  N4  UNL     1      24.722  -1.638  55.629  1.00  0.00    -0.115 NA
HETATM   21  H12 UNL     1      23.728  -1.897  55.694  1.00  0.00     0.206 HD
ENDBRANCH   7  20
BRANCH   1  22
HETATM   22  C2  UNL     1      29.367   0.754  54.364  1.00  0.00     0.127 C 
HETATM   23  C1  UNL     1      29.984  -0.510  53.760  1.00  0.00     0.027 C 
ENDBRANCH   1  22
TORSDOF 4
ENDMDL
MODEL 2
REMARK VINA RESULT:      -8.2      2.813      4.286
REMARK  4 active torsions:
REMARK  status: ('A' for Active; 'I' for Inactive)
REMARK    1  A    between atoms: C2_2  and  N1_3 
REMARK    2  A    between atoms: N3_8  and  C6_9 
REMARK    3  A    between atoms: C10_13  and  C11_14 
REMARK    4  A    between atoms: C13_19  and  N4_20 
ROOT
HETATM    1  N1  UNL     1      28.003   0.667  53.941  1.00  0.00    -0.324 N 
HETATM    2  C3  UNL     1      27.222  -0.028  54.787  1.00  0.00     0.212 A 
HETATM    3  N2  UNL     1      25.943   0.256  54.488  1.00  0.00    -0.239 NA
HETATM    4  C4  UNL     1      25.956   1.126  53.458  1.00  0.00     0.121 A 
HETATM    5  C5  UNL     1      24.939   1.737  52.763  1.00  0.00     0.151 A 
HETATM    6  N3  UNL     1      25.296   2.578  51.757  1.00  0.00    -0.153 N 
HETATM    7  C13 UNL     1      26.568   2.841  51.409  1.00  0.00     0.728 A 
HETATM    8  N5  UNL     1      27.580   2.247  52.082  1.00  0.00    -0.042 NA
HETATM    9  C14 UNL     1      27.269   1.405  53.090  1.00  0.00     0.180 A 
ENDROOT
BRANCH   6  10
HETATM   10  C6  UNL     1      24.203   3.182  51.074  1.00  0.00     0.057 A 
HETATM   11  C7  UNL     1      23.694   4.450  51.251  1.00  0.00     0.030 A 
HETATM   12  C8  UNL     1      22.613   4.859  50.481  1.00  0.00     0.003 A 
HETATM   13  C9  UNL     1      22.067   3.988  49.552  1.00  0.00     0.016 A 
HETATM   14  C10 UNL     1      22.550   2.719  49.350  1.00  0.00     0.050 A 
HETATM   15  C12 UNL     1      23.638   2.318  50.130  1.00  0.00     0.046 A 
BRANCH  14  16
HETATM   16  C11 UNL     1      21.951   1.788  48.341  1.00  0.00     0.417 C 
HETATM   17  F1  UNL     1      21.687   0.573  48.920  1.00  0.00    -0.166 F 
HETATM   18  F2  UNL     1      22.854   1.674  47.281  1.00  0.00    -0.166 F 
HETATM   19  F3  UNL     1      20.804   2.367  47.797  1.00  0.00    -0.166 F 
ENDBRANCH  14  16
ENDBRANCH   6  10
BRANCH   7  20
HETATM   20  N4  UNL     1      26.854   3.649  50.444  1.00  0.00    -0.115 NA
HETATM   21  H12 UNL     1      26.284   4.476  50.223  1.00  0.00     0.206 HD
ENDBRANCH   7  20
BRANCH   1  22
HETATM   22  C2  UNL     1      29.426   0.566  54.019  1.00  0.00     0.127 C 
HETATM   23  C1  UNL     1      29.867  -0.821  53.545  1.00  0.00     0.027 C 
ENDBRANCH   1  22
TORSDOF 4
ENDMDL
MODEL 3
REMARK VINA RESULT:      -7.9      4.825      6.701
REMARK  4 active torsions:
REMARK  status: ('A' for Active; 'I' for Inactive)
REMARK    1  A    between atoms: C2_2  and  N1_3 
REMARK    2  A    between atoms: N3_8  and  C6_9 
REMARK    3  A    between atoms: C10_13  and  C11_14 
REMARK    4  A    between atoms: C13_19  and  N4_20 
ROOT
HETATM    1  N1  UNL     1      25.852   5.808  49.176  1.00  0.00    -0.324 N 
HETATM    2  C3  UNL     1      27.009   5.561  48.534  1.00  0.00     0.212 A 
HETATM    3  N2  UNL     1      27.477   4.383  48.978  1.00  0.00    -0.239 NA
HETATM    4  C4  UNL     1      26.599   3.920  49.890  1.00  0.00     0.121 A 
HETATM    5  C5  UNL     1      26.586   2.772  50.647  1.00  0.00     0.151 A 
HETATM    6  N3  UNL     1      25.534   2.599  51.489  1.00  0.00    -0.153 N 
HETATM    7  C13 UNL     1      24.522   3.474  51.621  1.00  0.00     0.728 A 
HETATM    8  N5  UNL     1      24.519   4.608  50.883  1.00  0.00    -0.042 NA
HETATM    9  C14 UNL     1      25.546   4.819  50.033  1.00  0.00     0.180 A 
ENDROOT
BRANCH   6  10
HETATM   10  C6  UNL     1      25.573   1.395  52.248  1.00  0.00     0.057 A 
HETATM   11  C7  UNL     1      24.514   0.593  52.613  1.00  0.00     0.030 A 
HETATM   12  C8  UNL     1      24.758  -0.550  53.362  1.00  0.00     0.003 A 
HETATM   13  C9  UNL     1      26.057  -0.865  53.727  1.00  0.00     0.016 A 
HETATM   14  C10 UNL     1      27.135  -0.088  53.379  1.00  0.00     0.050 A 
HETATM   15  C12 UNL     1      26.877   1.061  52.626  1.00  0.00     0.046 A 
BRANCH  14  16
HETATM   16  C11 UNL     1      28.535  -0.439  53.780  1.00  0.00     0.417 C 
HETATM   17  F1  UNL     1      28.829  -1.720  53.388  1.00  0.00    -0.166 F 
HETATM   18  F2  UNL     1      28.630  -0.284  55.165  1.00  0.00    -0.166 F 
HETATM   19  F3  UNL     1      29.422   0.490  53.236  1.00  0.00    -0.166 F 
ENDBRANCH  14  16
ENDBRANCH   6  10
BRANCH   7  20
HETATM   20  N4  UNL     1      23.544   3.263  52.437  1.00  0.00    -0.115 NA
HETATM   21  H12 UNL     1      23.445   3.765  53.330  1.00  0.00     0.206 HD
ENDBRANCH   7  20
BRANCH   1  22
HETATM   22  C2  UNL     1      25.115   7.002  48.908  1.00  0.00     0.127 C 
HETATM   23  C1  UNL     1      25.610   7.626  47.601  1.00  0.00     0.027 C 
ENDBRANCH   1  22
TORSDOF 4
ENDMDL
MODEL 4
REMARK VINA RESULT:      -7.9      4.500      6.080
REMARK  4 active torsions:
REMARK  status: ('A' for Active; 'I' for Inactive)
REMARK    1  A    between atoms: C2_2  and  N1_3 
REMARK    2  A    between atoms: N3_8  and  C6_9 
REMARK    3  A    between atoms: C10_13  and  C11_14 
REMARK    4  A    between atoms: C13_19  and  N4_20 
ROOT
HETATM    1  N1  UNL     1      26.426   6.199  49.113  1.00  0.00    -0.324 N 
HETATM    2  C3  UNL     1      27.471   5.555  48.560  1.00  0.00     0.212 A 
HETATM    3  N2  UNL     1      27.403   4.268  48.941  1.00  0.00    -0.239 NA
HETATM    4  C4  UNL     1      26.314   4.138  49.725  1.00  0.00     0.121 A 
HETATM    5  C5  UNL     1      25.780   3.051  50.375  1.00  0.00     0.151 A 
HETATM    6  N3  UNL     1      24.649   3.259  51.100  1.00  0.00    -0.153 N 
HETATM    7  C13 UNL     1      24.035   4.449  51.215  1.00  0.00     0.728 A 
HETATM    8  N5  UNL     1      24.547   5.529  50.581  1.00  0.00    -0.042 NA
HETATM    9  C14 UNL     1      25.671   5.365  49.850  1.00  0.00     0.180 A 
ENDROOT
BRANCH   6  10
HETATM   10  C6  UNL     1      24.141   2.100  51.751  1.00  0.00     0.057 A 
HETATM   11  C7  UNL     1      22.907   1.510  51.583  1.00  0.00     0.030 A 
HETATM   12  C8  UNL     1      22.594   0.374  52.318  1.00  0.00     0.003 A 
HETATM   13  C9  UNL     1      23.524  -0.145  53.204  1.00  0.00     0.016 A 
HETATM   14  C10 UNL     1      24.762   0.417  53.396  1.00  0.00     0.050 A 
HETATM   15  C12 UNL     1      25.066   1.561  52.651  1.00  0.00     0.046 A 
BRANCH  14  16
HETATM   16  C11 UNL     1      25.759  -0.154  54.357  1.00  0.00     0.417 C 
HETATM   17  F1  UNL     1      26.478   0.854  54.944  1.00  0.00    -0.166 F 
HETATM   18  F2  UNL     1      26.580  -1.032  53.643  1.00  0.00    -0.166 F 
HETATM   19  F3  UNL     1      25.097  -0.942  55.299  1.00  0.00    -0.166 F 
ENDBRANCH  14  16
ENDBRANCH   6  10
BRANCH   7  20
HETATM   20  N4  UNL     1      22.962   4.594  51.917  1.00  0.00    -0.115 NA
HETATM   21  H12 UNL     1      22.945   4.479  52.939  1.00  0.00     0.206 HD
ENDBRANCH   7  20
BRANCH   1  22
HETATM   22  C2  UNL     1      26.232   7.595  48.884  1.00  0.00     0.127 C 
HETATM   23  C1  UNL     1      26.786   8.389  50.069  1.00  0.00     0.027 C 
ENDBRANCH   1  22
TORSDOF 4
ENDMDL
MODEL 5
REMARK VINA RESULT:      -7.6      2.435      3.039
REMARK  4 active torsions:
REMARK  status: ('A' for Active; 'I' for Inactive)
REMARK    1  A    between atoms: C2_2  and  N1_3 
REMARK    2  A    between atoms: N3_8  and  C6_9 
REMARK    3  A    between atoms: C10_13  and  C11_14 
REMARK    4  A    between atoms: C13_19  and  N4_20 
ROOT
HETATM    1  N1  UNL     1      28.032   0.619  53.746  1.00  0.00    -0.324 N 
HETATM    2  C3  UNL     1      28.809   1.613  53.279  1.00  0.00     0.212 A 
HETATM    3  N2  UNL     1      28.019   2.461  52.597  1.00  0.00    -0.239 NA
HETATM    4  C4  UNL     1      26.764   1.973  52.655  1.00  0.00     0.121 A 
HETATM    5  C5  UNL     1      25.578   2.436  52.135  1.00  0.00     0.151 A 
HETATM    6  N3  UNL     1      24.465   1.695  52.380  1.00  0.00    -0.153 N 
HETATM    7  C13 UNL     1      24.460   0.554  53.089  1.00  0.00     0.728 A 
HETATM    8  N5  UNL     1      25.618   0.085  53.608  1.00  0.00    -0.042 NA
HETATM    9  C14 UNL     1      26.747   0.791  53.388  1.00  0.00     0.180 A 
ENDROOT
BRANCH   6  10
HETATM   10  C6  UNL     1      23.267   2.221  51.818  1.00  0.00     0.057 A 
HETATM   11  C7  UNL     1      22.359   3.071  52.411  1.00  0.00     0.030 A 
HETATM   12  C8  UNL     1      21.242   3.475  51.693  1.00  0.00     0.003 A 
HETATM   13  C9  UNL     1      21.059   3.018  50.397  1.00  0.00     0.016 A 
HETATM   14  C10 UNL     1      21.944   2.172  49.777  1.00  0.00     0.050 A 
HETATM   15  C12 UNL     1      23.065   1.771  50.509  1.00  0.00     0.046 A 
BRANCH  14  16
HETATM   16  C11 UNL     1      21.736   1.686  48.375  1.00  0.00     0.417 C 
HETATM   17  F1  UNL     1      22.735   2.155  47.561  1.00  0.00    -0.166 F 
HETATM   18  F2  UNL     1      20.476   2.125  47.958  1.00  0.00    -0.166 F 
HETATM   19  F3  UNL     1      21.668   0.293  48.371  1.00  0.00    -0.166 F 
ENDBRANCH  14  16
ENDBRANCH   6  10
BRANCH   7  20
HETATM   20  N4  UNL     1      23.374  -0.114  53.293  1.00  0.00    -0.115 NA
HETATM   21  H12 UNL     1      23.095  -0.454  54.223  1.00  0.00     0.206 HD
ENDBRANCH   7  20
BRANCH   1  22
HETATM   22  C2  UNL     1      28.598  -0.441  54.518  1.00  0.00     0.127 C 
HETATM   23  C1  UNL     1      29.821  -1.006  53.791  1.00  0.00     0.027 C 
ENDBRANCH   1  22
TORSDOF 4
ENDMDL
MODEL 6
REMARK VINA RESULT:      -7.6      4.184      6.160
REMARK  4 active torsions:
REMARK  status: ('A' for Active; 'I' for Inactive)
REMARK    1  A    between atoms: C2_2  and  N1_3 
REMARK    2  A    between atoms: N3_8  and  C6_9 
REMARK    3  A    between atoms: C10_13  and  C11_14 
REMARK    4  A    between atoms: C13_19  and  N4_20 
ROOT
HETATM    1  N1  UNL     1      22.505   5.532  49.364  1.00  0.00    -0.324 N 
HETATM    2  C3  UNL     1      22.116   4.875  48.255  1.00  0.00     0.212 A 
HETATM    3  N2  UNL     1      22.374   3.570  48.443  1.00  0.00    -0.239 NA
HETATM    4  C4  UNL     1      22.921   3.442  49.669  1.00  0.00     0.121 A 
HETATM    5  C5  UNL     1      23.368   2.341  50.360  1.00  0.00     0.151 A 
HETATM    6  N3  UNL     1      23.875   2.555  51.603  1.00  0.00    -0.153 N 
HETATM    7  C13 UNL     1      23.962   3.764  52.184  1.00  0.00     0.728 A 
HETATM    8  N5  UNL     1      23.525   4.858  51.517  1.00  0.00    -0.042 NA
HETATM    9  C14 UNL     1      23.015   4.689  50.279  1.00  0.00     0.180 A 
ENDROOT
BRANCH   6  10
HETATM   10  C6  UNL     1      24.323   1.381  52.271  1.00  0.00     0.057 A 
HETATM   11  C7  UNL     1      25.578   0.814  52.231  1.00  0.00     0.030 A 
HETATM   12  C8  UNL     1      25.821  -0.344  52.959  1.00  0.00     0.003 A 
HETATM   13  C9  UNL     1      24.802  -0.907  53.709  1.00  0.00     0.016 A 
HETATM   14  C10 UNL     1      23.540  -0.367  53.772  1.00  0.00     0.050 A 
HETATM   15  C12 UNL     1      23.307   0.798  53.035  1.00  0.00     0.046 A 
BRANCH  14  16
HETATM   16  C11 UNL     1      22.447  -0.985  54.588  1.00  0.00     0.417 C 
HETATM   17  F1  UNL     1      21.807  -1.955  53.859  1.00  0.00    -0.166 F 
HETATM   18  F2  UNL     1      21.576   0.037  54.973  1.00  0.00    -0.166 F 
HETATM   19  F3  UNL     1      22.981  -1.490  55.774  1.00  0.00    -0.166 F 
ENDBRANCH  14  16
ENDBRANCH   6  10
BRANCH   7  20
HETATM   20  N4  UNL     1      24.452   3.915  53.368  1.00  0.00    -0.115 NA
HETATM   21  H12 UNL     1      23.899   4.271  54.159  1.00  0.00     0.206 HD
ENDBRANCH   7  20
BRANCH   1  22
HETATM   22  C2  UNL     1      22.353   6.949  49.458  1.00  0.00     0.127 C 
HETATM   23  C1  UNL     1      21.019   7.276  50.132  1.00  0.00     0.027 C 
ENDBRANCH   1  22
TORSDOF 4
ENDMDL
MODEL 7
REMARK VINA RESULT:      -7.6      5.043      7.285
REMARK  4 active torsions:
REMARK  status: ('A' for Active; 'I' for Inactive)
REMARK    1  A    between atoms: C2_2  and  N1_3 
REMARK    2  A    between atoms: N3_8  and  C6_9 
REMARK    3  A    between atoms: C10_13  and  C11_14 
REMARK    4  A    between atoms: C13_19  and  N4_20 
ROOT
HETATM    1  N1  UNL     1      23.048   5.873  50.733  1.00  0.00    -0.324 N 
HETATM    2  C3  UNL     1      22.038   5.787  51.619  1.00  0.00     0.212 A 
HETATM    3  N2  UNL     1      22.260   4.705  52.384  1.00  0.00    -0.239 NA
HETATM    4  C4  UNL     1      23.406   4.139  51.956  1.00  0.00     0.121 A 
HETATM    5  C5  UNL     1      24.090   3.024  52.380  1.00  0.00     0.151 A 
HETATM    6  N3  UNL     1      25.240   2.717  51.724  1.00  0.00    -0.153 N 
HETATM    7  C13 UNL     1      25.738   3.432  50.700  1.00  0.00     0.728 A 
HETATM    8  N5  UNL     1      25.078   4.533  50.271  1.00  0.00    -0.042 NA
HETATM    9  C14 UNL     1      23.930   4.872  50.896  1.00  0.00     0.180 A 
ENDROOT
BRANCH   6  10
HETATM   10  C6  UNL     1      25.905   1.554  52.204  1.00  0.00     0.057 A 
HETATM   11  C7  UNL     1      25.520   0.239  52.054  1.00  0.00     0.030 A 
HETATM   12  C8  UNL     1      26.309  -0.763  52.601  1.00  0.00     0.003 A 
HETATM   13  C9  UNL     1      27.465  -0.427  53.287  1.00  0.00     0.016 A 
HETATM   14  C10 UNL     1      27.878   0.873  53.455  1.00  0.00     0.050 A 
HETATM   15  C12 UNL     1      27.075   1.874  52.900  1.00  0.00     0.046 A 
BRANCH  14  16
HETATM   16  C11 UNL     1      29.130   1.223  54.197  1.00  0.00     0.417 C 
HETATM   17  F1  UNL     1      29.034   0.813  55.502  1.00  0.00    -0.166 F 
HETATM   18  F2  UNL     1      29.309   2.605  54.098  1.00  0.00    -0.166 F 
HETATM   19  F3  UNL     1      30.229   0.656  53.551  1.00  0.00    -0.166 F 
ENDBRANCH  14  16
ENDBRANCH   6  10
BRANCH   7  20
HETATM   20  N4  UNL     1      26.836   3.098  50.110  1.00  0.00    -0.115 NA
HETATM   21  H12 UNL     1      26.947   3.120  49.087  1.00  0.00     0.206 HD
ENDBRANCH   7  20
BRANCH   1  22
HETATM   22  C2  UNL     1      23.085   6.935  49.777  1.00  0.00     0.127 C 
HETATM   23  C1  UNL     1      23.856   8.121  50.361  1.00  0.00     0.027 C 
ENDBRANCH   1  22
TORSDOF 4
ENDMDL
MODEL 8
REMARK VINA RESULT:      -7.3      4.794      6.462
REMARK  4 active torsions:
REMARK  status: ('A' for Active; 'I' for Inactive)
REMARK    1  A    between atoms: C2_2  and  N1_3 
REMARK    2  A    between atoms: N3_8  and  C6_9 
REMARK    3  A    between atoms: C10_13  and  C11_14 
REMARK    4  A    between atoms: C13_19  and  N4_20 
ROOT
HETATM    1  N1  UNL     1      22.957   6.134  49.596  1.00  0.00    -0.324 N 
HETATM    2  C3  UNL     1      23.545   6.971  50.470  1.00  0.00     0.212 A 
HETATM    3  N2  UNL     1      23.931   6.245  51.533  1.00  0.00    -0.239 NA
HETATM    4  C4  UNL     1      23.573   4.967  51.297  1.00  0.00     0.121 A 
HETATM    5  C5  UNL     1      23.723   3.823  52.043  1.00  0.00     0.151 A 
HETATM    6  N3  UNL     1      23.242   2.669  51.510  1.00  0.00    -0.153 N 
HETATM    7  C13 UNL     1      22.637   2.587  50.312  1.00  0.00     0.728 A 
HETATM    8  N5  UNL     1      22.482   3.704  49.565  1.00  0.00    -0.042 NA
HETATM    9  C14 UNL     1      22.945   4.872  50.059  1.00  0.00     0.180 A 
ENDROOT
BRANCH   6  10
HETATM   10  C6  UNL     1      23.425   1.516  52.325  1.00  0.00     0.057 A 
HETATM   11  C7  UNL     1      22.496   0.899  53.134  1.00  0.00     0.030 A 
HETATM   12  C8  UNL     1      22.871  -0.225  53.859  1.00  0.00     0.003 A 
HETATM   13  C9  UNL     1      24.168  -0.703  53.758  1.00  0.00     0.016 A 
HETATM   14  C10 UNL     1      25.118  -0.111  52.962  1.00  0.00     0.050 A 
HETATM   15  C12 UNL     1      24.729   1.019  52.237  1.00  0.00     0.046 A 
BRANCH  14  16
HETATM   16  C11 UNL     1      26.516  -0.639  52.862  1.00  0.00     0.417 C 
HETATM   17  F1  UNL     1      27.221  -0.323  53.995  1.00  0.00    -0.166 F 
HETATM   18  F2  UNL     1      27.096  -0.086  51.717  1.00  0.00    -0.166 F 
HETATM   19  F3  UNL     1      26.479  -2.015  52.636  1.00  0.00    -0.166 F 
ENDBRANCH  14  16
ENDBRANCH   6  10
BRANCH   7  20
HETATM   20  N4  UNL     1      22.198   1.465  49.850  1.00  0.00    -0.115 NA
HETATM   21  H12 UNL     1      22.629   0.985  49.048  1.00  0.00     0.206 HD
ENDBRANCH   7  20
BRANCH   1  22
HETATM   22  C2  UNL     1      22.441   6.624  48.358  1.00  0.00     0.127 C 
HETATM   23  C1  UNL     1      23.601   6.962  47.419  1.00  0.00     0.027 C 
ENDBRANCH   1  22
TORSDOF 4
ENDMDL
MODEL 9
REMARK VINA RESULT:      -7.3      4.260      6.136
REMARK  4 active torsions:
REMARK  status: ('A' for Active; 'I' for Inactive)
REMARK    1  A    between atoms: C2_2  and  N1_3 
REMARK    2  A    between atoms: N3_8  and  C6_9 
REMARK    3  A    between atoms: C10_13  and  C11_14 
REMARK    4  A    between atoms: C13_19  and  N4_20 
ROOT
HETATM    1  N1  UNL     1      23.530   6.537  50.196  1.00  0.00    -0.324 N 
HETATM    2  C3  UNL     1      22.358   6.620  50.853  1.00  0.00     0.212 A 
HETATM    3  N2  UNL     1      22.220   5.500  51.582  1.00  0.00    -0.239 NA
HETATM    4  C4  UNL     1      23.312   4.741  51.362  1.00  0.00     0.121 A 
HETATM    5  C5  UNL     1      23.684   3.510  51.849  1.00  0.00     0.151 A 
HETATM    6  N3  UNL     1      24.873   3.010  51.421  1.00  0.00    -0.153 N 
HETATM    7  C13 UNL     1      25.693   3.642  50.563  1.00  0.00     0.728 A 
HETATM    8  N5  UNL     1      25.343   4.854  50.076  1.00  0.00    -0.042 NA
HETATM    9  C14 UNL     1      24.168   5.387  50.475  1.00  0.00     0.180 A 
ENDROOT
BRANCH   6  10
HETATM   10  C6  UNL     1      25.207   1.734  51.956  1.00  0.00     0.057 A 
HETATM   11  C7  UNL     1      26.407   1.064  51.857  1.00  0.00     0.030 A 
HETATM   12  C8  UNL     1      26.537  -0.184  52.452  1.00  0.00     0.003 A 
HETATM   13  C9  UNL     1      25.461  -0.733  53.132  1.00  0.00     0.016 A 
HETATM   14  C10 UNL     1      24.252  -0.092  53.251  1.00  0.00     0.050 A 
HETATM   15  C12 UNL     1      24.133   1.163  52.647  1.00  0.00     0.046 A 
BRANCH  14  16
HETATM   16  C11 UNL     1      23.098  -0.696  53.990  1.00  0.00     0.417 C 
HETATM   17  F1  UNL     1      23.539  -1.297  55.141  1.00  0.00    -0.166 F 
HETATM   18  F2  UNL     1      22.476  -1.608  53.132  1.00  0.00    -0.166 F 
HETATM   19  F3  UNL     1      22.144   0.288  54.247  1.00  0.00    -0.166 F 
ENDBRANCH  14  16
ENDBRANCH   6  10
BRANCH   7  20
HETATM   20  N4  UNL     1      26.814   3.123  50.188  1.00  0.00    -0.115 NA
HETATM   21  H12 UNL     1      27.478   3.615  49.575  1.00  0.00     0.206 HD
ENDBRANCH   7  20
BRANCH   1  22
HETATM   22  C2  UNL     1      23.953   7.594  49.332  1.00  0.00     0.127 C 
HETATM   23  C1  UNL     1      24.917   8.514  50.085  1.00  0.00     0.027 C 
ENDBRANCH   1  22
TORSDOF 4
ENDMDL
