MODEL 1
REMARK VINA RESULT:      -8.0      0.000      0.000
REMARK  4 active torsions:
REMARK  status: ('A' for Active; 'I' for Inactive)
REMARK    1  A    between atoms: C2_2  and  S1_3 
REMARK    2  A    between atoms: S1_3  and  C3_6 
REMARK    3  A    between atoms: C5_8  and  N1_9 
REMARK    4  A    between atoms: N1_9  and  C6_10 
ROOT
HETATM    1  C3  UNL     1      26.866   1.716  53.092  1.00  0.00     0.152 C 
HETATM    2  C4  UNL     1      25.819   2.256  53.748  1.00  0.00     0.079 C 
HETATM    3  C5  UNL     1      24.812   2.426  52.658  1.00  0.00     0.195 A 
HETATM    4  N2  UNL     1      23.782   3.330  53.091  1.00  0.00    -0.240 NA
HETATM    5  C12 UNL     1      23.709   4.264  52.176  1.00  0.00     0.231 A 
HETATM    6  N3  UNL     1      24.667   4.025  51.133  1.00  0.00    -0.240 NA
HETATM    7  C13 UNL     1      25.333   2.930  51.421  1.00  0.00     0.108 A 
HETATM    8  C14 UNL     1      26.467   2.254  50.819  1.00  0.00     0.150 C 
HETATM    9  N4  UNL     1      27.242   1.654  51.708  1.00  0.00    -0.247 NA
ENDROOT
BRANCH   3  10
HETATM   10  N1  UNL     1      24.234   1.063  52.496  1.00  0.00    -0.354 N 
HETATM   11  H5  UNL     1      24.714   0.464  51.751  1.00  0.00     0.163 HD
BRANCH  10  12
HETATM   12  C6  UNL     1      23.169   0.276  53.072  1.00  0.00     0.031 A 
HETATM   13  C7  UNL     1      23.360  -0.633  54.122  1.00  0.00     0.029 A 
HETATM   14  C8  UNL     1      22.252  -1.309  54.561  1.00  0.00     0.004 A 
HETATM   15  C9  UNL     1      20.983  -1.160  54.049  1.00  0.00     0.019 A 
HETATM   16  C10 UNL     1      20.803  -0.268  53.018  1.00  0.00     0.013 A 
HETATM   17 BR1  UNL     1      19.018  -0.120  52.366  1.00  0.00    -0.051 Br
HETATM   18  C11 UNL     1      21.899   0.423  52.561  1.00  0.00     0.048 A 
ENDBRANCH  10  12
ENDBRANCH   3  10
BRANCH   1  19
HETATM   19  S1  UNL     1      28.306   1.300  54.041  1.00  0.00     0.198 S 
HETATM   20  O1  UNL     1      27.857   0.459  55.232  1.00  0.00    -0.221 OA
HETATM   21  O2  UNL     1      29.070   2.492  54.496  1.00  0.00    -0.221 OA
BRANCH  19  22
HETATM   22  C2  UNL     1      29.349   0.225  53.095  1.00  0.00     0.134 C 
HETATM   23  C1  UNL     1      29.622  -0.867  53.835  1.00  0.00     0.023 C 
ENDBRANCH  19  22
ENDBRANCH   1  19
TORSDOF 4
ENDMDL
MODEL 2
REMARK VINA RESULT:      -7.5      1.516      2.010
REMARK  4 active torsions:
REMARK  status: ('A' for Active; 'I' for Inactive)
REMARK    1  A    between atoms: C2_2  and  S1_3 
REMARK    2  A    between atoms: S1_3  and  C3_6 
REMARK    3  A    between atoms: C5_8  and  N1_9 
REMARK    4  A    between atoms: N1_9  and  C6_10 
ROOT
HETATM    1  C3  UNL     1      26.271   2.298  52.506  1.00  0.00     0.152 C 
HETATM    2  C4  UNL     1      25.142   2.883  52.957  1.00  0.00     0.079 C 
HETATM    3  C5  UNL     1      24.462   3.287  51.691  1.00  0.00     0.195 A 
HETATM    4  N2  UNL     1      23.438   4.254  51.981  1.00  0.00    -0.240 NA
HETATM    5  C12 UNL     1      23.681   5.284  51.210  1.00  0.00     0.231 A 
HETATM    6  N3  UNL     1      24.847   5.049  50.405  1.00  0.00    -0.240 NA
HETATM    7  C13 UNL     1      25.321   3.858  50.694  1.00  0.00     0.108 A 
HETATM    8  C14 UNL     1      26.507   3.123  50.297  1.00  0.00     0.150 C 
HETATM    9  N4  UNL     1      26.977   2.343  51.257  1.00  0.00    -0.247 NA
ENDROOT
BRANCH   3  10
HETATM   10  N1  UNL     1      23.828   2.028  51.212  1.00  0.00    -0.354 N 
HETATM   11  H5  UNL     1      24.403   1.489  50.488  1.00  0.00     0.163 HD
BRANCH  10  12
HETATM   12  C6  UNL     1      22.613   1.283  51.448  1.00  0.00     0.031 A 
HETATM   13  C7  UNL     1      21.491   1.348  50.609  1.00  0.00     0.029 A 
HETATM   14  C8  UNL     1      20.410   0.585  50.965  1.00  0.00     0.004 A 
HETATM   15  C9  UNL     1      20.351  -0.228  52.074  1.00  0.00     0.019 A 
HETATM   16  C10 UNL     1      21.454  -0.287  52.893  1.00  0.00     0.013 A 
HETATM   17 BR1  UNL     1      21.290  -1.436  54.405  1.00  0.00    -0.051 Br
HETATM   18  C11 UNL     1      22.551   0.469  52.557  1.00  0.00     0.048 A 
ENDBRANCH  10  12
ENDBRANCH   3  10
BRANCH   1  19
HETATM   19  S1  UNL     1      27.381   1.616  53.708  1.00  0.00     0.198 S 
HETATM   20  O1  UNL     1      26.555   1.159  54.906  1.00  0.00    -0.221 OA
HETATM   21  O2  UNL     1      28.441   2.568  54.132  1.00  0.00    -0.221 OA
BRANCH  19  22
HETATM   22  C2  UNL     1      28.109   0.132  53.068  1.00  0.00     0.134 C 
HETATM   23  C1  UNL     1      27.159  -0.822  53.016  1.00  0.00     0.023 C 
ENDBRANCH  19  22
ENDBRANCH   1  19
TORSDOF 4
ENDMDL
MODEL 3
REMARK VINA RESULT:      -7.5      2.752      4.095
REMARK  4 active torsions:
REMARK  status: ('A' for Active; 'I' for Inactive)
REMARK    1  A    between atoms: C2_2  and  S1_3 
REMARK    2  A    between atoms: S1_3  and  C3_6 
REMARK    3  A    between atoms: C5_8  and  N1_9 
REMARK    4  A    between atoms: N1_9  and  C6_10 
ROOT
HETATM    1  C3  UNL     1      25.418   2.561  51.475  1.00  0.00     0.152 C 
HETATM    2  C4  UNL     1      26.320   1.561  51.397  1.00  0.00     0.079 C 
HETATM    3  C5  UNL     1      26.150   0.872  52.710  1.00  0.00     0.195 A 
HETATM    4  N2  UNL     1      27.282   0.022  52.959  1.00  0.00    -0.240 NA
HETATM    5  C12 UNL     1      27.744   0.367  54.135  1.00  0.00     0.231 A 
HETATM    6  N3  UNL     1      26.960   1.433  54.693  1.00  0.00    -0.240 NA
HETATM    7  C13 UNL     1      26.010   1.743  53.841  1.00  0.00     0.108 A 
HETATM    8  C14 UNL     1      24.997   2.781  53.797  1.00  0.00     0.150 C 
HETATM    9  N4  UNL     1      24.728   3.188  52.567  1.00  0.00    -0.247 NA
ENDROOT
BRANCH   3  10
HETATM   10  N1  UNL     1      24.937   0.031  52.513  1.00  0.00    -0.354 N 
HETATM   11  H5  UNL     1      24.887  -0.460  51.564  1.00  0.00     0.163 HD
BRANCH  10  12
HETATM   12  C6  UNL     1      23.754  -0.335  53.258  1.00  0.00     0.031 A 
HETATM   13  C7  UNL     1      23.793  -0.964  54.510  1.00  0.00     0.029 A 
HETATM   14  C8  UNL     1      22.587  -1.251  55.093  1.00  0.00     0.004 A 
HETATM   15  C9  UNL     1      21.358  -0.969  54.541  1.00  0.00     0.019 A 
HETATM   16  C10 UNL     1      21.327  -0.353  53.312  1.00  0.00     0.013 A 
HETATM   17 BR1  UNL     1      19.587   0.002  52.618  1.00  0.00    -0.051 Br
HETATM   18  C11 UNL     1      22.524  -0.055  52.707  1.00  0.00     0.048 A 
ENDBRANCH  10  12
ENDBRANCH   3  10
BRANCH   1  19
HETATM   19  S1  UNL     1      25.251   3.631  50.071  1.00  0.00     0.198 S 
HETATM   20  O1  UNL     1      24.885   5.021  50.579  1.00  0.00    -0.221 OA
HETATM   21  O2  UNL     1      24.247   3.149  49.085  1.00  0.00    -0.221 OA
BRANCH  19  22
HETATM   22  C2  UNL     1      26.830   3.835  49.291  1.00  0.00     0.134 C 
HETATM   23  C1  UNL     1      26.925   5.102  48.844  1.00  0.00     0.023 C 
ENDBRANCH  19  22
ENDBRANCH   1  19
TORSDOF 4
ENDMDL
MODEL 4
REMARK VINA RESULT:      -7.3      3.413      5.403
REMARK  4 active torsions:
REMARK  status: ('A' for Active; 'I' for Inactive)
REMARK    1  A    between atoms: C2_2  and  S1_3 
REMARK    2  A    between atoms: S1_3  and  C3_6 
REMARK    3  A    between atoms: C5_8  and  N1_9 
REMARK    4  A    between atoms: N1_9  and  C6_10 
ROOT
HETATM    1  C3  UNL     1      25.504   1.235  53.079  1.00  0.00     0.152 C 
HETATM    2  C4  UNL     1      24.746   0.717  52.090  1.00  0.00     0.079 C 
HETATM    3  C5  UNL     1      24.112   1.935  51.502  1.00  0.00     0.195 A 
HETATM    4  N2  UNL     1      22.989   1.550  50.692  1.00  0.00    -0.240 NA
HETATM    5  C12 UNL     1      21.968   2.241  51.133  1.00  0.00     0.231 A 
HETATM    6  N3  UNL     1      22.363   3.083  52.228  1.00  0.00    -0.240 NA
HETATM    7  C13 UNL     1      23.643   2.898  52.456  1.00  0.00     0.108 A 
HETATM    8  C14 UNL     1      24.564   3.374  53.471  1.00  0.00     0.150 C 
HETATM    9  N4  UNL     1      25.497   2.489  53.778  1.00  0.00    -0.247 NA
ENDROOT
BRANCH   3  10
HETATM   10  N1  UNL     1      25.177   2.501  50.629  1.00  0.00    -0.354 N 
HETATM   11  H5  UNL     1      26.012   1.851  50.469  1.00  0.00     0.163 HD
BRANCH  10  12
HETATM   12  C6  UNL     1      25.429   3.724  49.902  1.00  0.00     0.031 A 
HETATM   13  C7  UNL     1      24.427   4.645  49.568  1.00  0.00     0.029 A 
HETATM   14  C8  UNL     1      24.820   5.759  48.873  1.00  0.00     0.004 A 
HETATM   15  C9  UNL     1      26.113   6.031  48.487  1.00  0.00     0.019 A 
HETATM   16  C10 UNL     1      27.091   5.123  48.818  1.00  0.00     0.013 A 
HETATM   17 BR1  UNL     1      28.853   5.574  48.246  1.00  0.00    -0.051 Br
HETATM   18  C11 UNL     1      26.722   3.998  49.514  1.00  0.00     0.048 A 
ENDBRANCH  10  12
ENDBRANCH   3  10
BRANCH   1  19
HETATM   19  S1  UNL     1      26.489   0.111  54.034  1.00  0.00     0.198 S 
HETATM   20  O1  UNL     1      25.549  -0.886  54.703  1.00  0.00    -0.221 OA
HETATM   21  O2  UNL     1      27.340   0.793  55.044  1.00  0.00    -0.221 OA
BRANCH  19  22
HETATM   22  C2  UNL     1      27.490  -0.868  52.947  1.00  0.00     0.134 C 
HETATM   23  C1  UNL     1      28.749  -0.885  53.425  1.00  0.00     0.023 C 
ENDBRANCH  19  22
ENDBRANCH   1  19
TORSDOF 4
ENDMDL
MODEL 5
REMARK VINA RESULT:      -7.1      3.624      5.660
REMARK  4 active torsions:
REMARK  status: ('A' for Active; 'I' for Inactive)
REMARK    1  A    between atoms: C2_2  and  S1_3 
REMARK    2  A    between atoms: S1_3  and  C3_6 
REMARK    3  A    between atoms: C5_8  and  N1_9 
REMARK    4  A    between atoms: N1_9  and  C6_10 
ROOT
HETATM    1  C3  UNL     1      23.070   2.543  51.822  1.00  0.00     0.152 C 
HETATM    2  C4  UNL     1      24.020   2.144  50.951  1.00  0.00     0.079 C 
HETATM    3  C5  UNL     1      25.053   3.212  51.093  1.00  0.00     0.195 A 
HETATM    4  N2  UNL     1      25.957   3.160  49.976  1.00  0.00    -0.240 NA
HETATM    5  C12 UNL     1      25.971   4.365  49.463  1.00  0.00     0.231 A 
HETATM    6  N3  UNL     1      25.096   5.237  50.196  1.00  0.00    -0.240 NA
HETATM    7  C13 UNL     1      24.541   4.549  51.168  1.00  0.00     0.108 A 
HETATM    8  C14 UNL     1      23.517   4.846  52.153  1.00  0.00     0.150 C 
HETATM    9  N4  UNL     1      22.770   3.796  52.454  1.00  0.00    -0.247 NA
ENDROOT
BRANCH   3  10
HETATM   10  N1  UNL     1      25.783   2.834  52.335  1.00  0.00    -0.354 N 
HETATM   11  H5  UNL     1      25.485   3.376  53.207  1.00  0.00     0.163 HD
BRANCH  10  12
HETATM   12  C6  UNL     1      26.822   1.910  52.727  1.00  0.00     0.031 A 
HETATM   13  C7  UNL     1      28.038   2.310  53.299  1.00  0.00     0.029 A 
HETATM   14  C8  UNL     1      28.926   1.316  53.617  1.00  0.00     0.004 A 
HETATM   15  C9  UNL     1      28.709  -0.028  53.416  1.00  0.00     0.019 A 
HETATM   16  C10 UNL     1      27.515  -0.414  52.854  1.00  0.00     0.013 A 
HETATM   17 BR1  UNL     1      27.294  -2.291  52.609  1.00  0.00    -0.051 Br
HETATM   18  C11 UNL     1      26.607   0.564  52.527  1.00  0.00     0.048 A 
ENDBRANCH  10  12
ENDBRANCH   3  10
BRANCH   1  19
HETATM   19  S1  UNL     1      21.640   1.510  52.009  1.00  0.00     0.198 S 
HETATM   20  O1  UNL     1      21.615   0.525  50.844  1.00  0.00    -0.221 OA
HETATM   21  O2  UNL     1      20.369   2.278  52.078  1.00  0.00    -0.221 OA
BRANCH  19  22
HETATM   22  C2  UNL     1      21.826   0.498  53.453  1.00  0.00     0.134 C 
HETATM   23  C1  UNL     1      22.866  -0.336  53.259  1.00  0.00     0.023 C 
ENDBRANCH  19  22
ENDBRANCH   1  19
TORSDOF 4
ENDMDL
MODEL 6
REMARK VINA RESULT:      -7.0      4.115      5.738
REMARK  4 active torsions:
REMARK  status: ('A' for Active; 'I' for Inactive)
REMARK    1  A    between atoms: C2_2  and  S1_3 
REMARK    2  A    between atoms: S1_3  and  C3_6 
REMARK    3  A    between atoms: C5_8  and  N1_9 
REMARK    4  A    between atoms: N1_9  and  C6_10 
ROOT
HETATM    1  C3  UNL     1      23.152   3.788  49.892  1.00  0.00     0.152 C 
HETATM    2  C4  UNL     1      24.243   3.222  49.337  1.00  0.00     0.079 C 
HETATM    3  C5  UNL     1      25.359   3.973  49.985  1.00  0.00     0.195 A 
HETATM    4  N2  UNL     1      26.572   3.771  49.242  1.00  0.00    -0.240 NA
HETATM    5  C12 UNL     1      27.031   4.965  48.963  1.00  0.00     0.231 A 
HETATM    6  N3  UNL     1      26.160   5.978  49.491  1.00  0.00    -0.240 NA
HETATM    7  C13 UNL     1      25.155   5.389  50.098  1.00  0.00     0.108 A 
HETATM    8  C14 UNL     1      23.934   5.866  50.718  1.00  0.00     0.150 C 
HETATM    9  N4  UNL     1      22.921   5.027  50.580  1.00  0.00    -0.247 NA
ENDROOT
BRANCH   3  10
HETATM   10  N1  UNL     1      25.487   3.330  51.322  1.00  0.00    -0.354 N 
HETATM   11  H5  UNL     1      25.524   4.015  52.143  1.00  0.00     0.163 HD
BRANCH  10  12
HETATM   12  C6  UNL     1      25.581   1.994  51.863  1.00  0.00     0.031 A 
HETATM   13  C7  UNL     1      26.739   1.207  51.785  1.00  0.00     0.029 A 
HETATM   14  C8  UNL     1      26.673  -0.042  52.344  1.00  0.00     0.004 A 
HETATM   15  C9  UNL     1      25.565  -0.570  52.966  1.00  0.00     0.019 A 
HETATM   16  C10 UNL     1      24.433   0.206  53.039  1.00  0.00     0.013 A 
HETATM   17 BR1  UNL     1      22.943  -0.598  53.916  1.00  0.00    -0.051 Br
HETATM   18  C11 UNL     1      24.473   1.464  52.486  1.00  0.00     0.048 A 
ENDBRANCH  10  12
ENDBRANCH   3  10
BRANCH   1  19
HETATM   19  S1  UNL     1      21.565   3.149  49.423  1.00  0.00     0.198 S 
HETATM   20  O1  UNL     1      21.196   3.751  48.072  1.00  0.00    -0.221 OA
HETATM   21  O2  UNL     1      20.505   3.422  50.429  1.00  0.00    -0.221 OA
BRANCH  19  22
HETATM   22  C2  UNL     1      21.694   1.407  49.123  1.00  0.00     0.134 C 
HETATM   23  C1  UNL     1      21.471   0.756  50.281  1.00  0.00     0.023 C 
ENDBRANCH  19  22
ENDBRANCH   1  19
TORSDOF 4
ENDMDL
MODEL 7
REMARK VINA RESULT:      -6.8      3.921      6.275
REMARK  4 active torsions:
REMARK  status: ('A' for Active; 'I' for Inactive)
REMARK    1  A    between atoms: C2_2  and  S1_3 
REMARK    2  A    between atoms: S1_3  and  C3_6 
REMARK    3  A    between atoms: C5_8  and  N1_9 
REMARK    4  A    between atoms: N1_9  and  C6_10 
ROOT
HETATM    1  C3  UNL     1      25.043   2.361  52.352  1.00  0.00     0.152 C 
HETATM    2  C4  UNL     1      25.076   2.195  51.014  1.00  0.00     0.079 C 
HETATM    3  C5  UNL     1      24.424   3.444  50.520  1.00  0.00     0.195 A 
HETATM    4  N2  UNL     1      24.030   3.274  49.149  1.00  0.00    -0.240 NA
HETATM    5  C12 UNL     1      22.756   3.571  49.096  1.00  0.00     0.231 A 
HETATM    6  N3  UNL     1      22.268   3.935  50.397  1.00  0.00    -0.240 NA
HETATM    7  C13 UNL     1      23.261   3.854  51.253  1.00  0.00     0.108 A 
HETATM    8  C14 UNL     1      23.362   3.994  52.693  1.00  0.00     0.150 C 
HETATM    9  N4  UNL     1      24.276   3.202  53.227  1.00  0.00    -0.247 NA
ENDROOT
BRANCH   3  10
HETATM   10  N1  UNL     1      25.507   4.463  50.599  1.00  0.00    -0.354 N 
HETATM   11  H5  UNL     1      25.843   4.679  51.591  1.00  0.00     0.163 HD
BRANCH  10  12
HETATM   12  C6  UNL     1      26.275   5.282  49.689  1.00  0.00     0.031 A 
HETATM   13  C7  UNL     1      27.384   4.812  48.972  1.00  0.00     0.029 A 
HETATM   14  C8  UNL     1      28.012   5.709  48.149  1.00  0.00     0.004 A 
HETATM   15  C9  UNL     1      27.634   7.022  47.981  1.00  0.00     0.019 A 
HETATM   16  C10 UNL     1      26.546   7.477  48.687  1.00  0.00     0.013 A 
HETATM   17 BR1  UNL     1      26.088   9.305  48.397  1.00  0.00    -0.051 Br
HETATM   18  C11 UNL     1      25.899   6.596  49.519  1.00  0.00     0.048 A 
ENDBRANCH  10  12
ENDBRANCH   3  10
BRANCH   1  19
HETATM   19  S1  UNL     1      25.774   1.094  53.355  1.00  0.00     0.198 S 
HETATM   20  O1  UNL     1      24.667   0.138  53.787  1.00  0.00    -0.221 OA
HETATM   21  O2  UNL     1      26.498   1.630  54.538  1.00  0.00    -0.221 OA
BRANCH  19  22
HETATM   22  C2  UNL     1      26.863   0.108  52.363  1.00  0.00     0.134 C 
HETATM   23  C1  UNL     1      26.614  -1.191  52.618  1.00  0.00     0.023 C 
ENDBRANCH  19  22
ENDBRANCH   1  19
TORSDOF 4
ENDMDL
MODEL 8
REMARK VINA RESULT:      -6.7      4.363      6.095
REMARK  4 active torsions:
REMARK  status: ('A' for Active; 'I' for Inactive)
REMARK    1  A    between atoms: C2_2  and  S1_3 
REMARK    2  A    between atoms: S1_3  and  C3_6 
REMARK    3  A    between atoms: C5_8  and  N1_9 
REMARK    4  A    between atoms: N1_9  and  C6_10 
ROOT
HETATM    1  C3  UNL     1      23.329   3.597  50.248  1.00  0.00     0.152 C 
HETATM    2  C4  UNL     1      24.384   2.991  49.666  1.00  0.00     0.079 C 
HETATM    3  C5  UNL     1      25.533   3.814  50.150  1.00  0.00     0.195 A 
HETATM    4  N2  UNL     1      26.689   3.553  49.337  1.00  0.00    -0.240 NA
HETATM    5  C12 UNL     1      27.104   4.719  48.910  1.00  0.00     0.231 A 
HETATM    6  N3  UNL     1      26.258   5.769  49.405  1.00  0.00    -0.240 NA
HETATM    7  C13 UNL     1      25.313   5.231  50.142  1.00  0.00     0.108 A 
HETATM    8  C14 UNL     1      24.135   5.754  50.807  1.00  0.00     0.150 C 
HETATM    9  N4  UNL     1      23.129   4.895  50.830  1.00  0.00    -0.247 NA
ENDROOT
BRANCH   3  10
HETATM   10  N1  UNL     1      25.775   3.304  51.529  1.00  0.00    -0.354 N 
HETATM   11  H5  UNL     1      25.770   4.058  52.288  1.00  0.00     0.163 HD
BRANCH  10  12
HETATM   12  C6  UNL     1      26.026   2.036  52.173  1.00  0.00     0.031 A 
HETATM   13  C7  UNL     1      25.018   1.108  52.473  1.00  0.00     0.029 A 
HETATM   14  C8  UNL     1      25.411  -0.051  53.088  1.00  0.00     0.004 A 
HETATM   15  C9  UNL     1      26.708  -0.363  53.427  1.00  0.00     0.019 A 
HETATM   16  C10 UNL     1      27.692   0.551  53.131  1.00  0.00     0.013 A 
HETATM   17 BR1  UNL     1      29.459   0.044  53.632  1.00  0.00    -0.051 Br
HETATM   18  C11 UNL     1      27.323   1.722  52.513  1.00  0.00     0.048 A 
ENDBRANCH  10  12
ENDBRANCH   3  10
BRANCH   1  19
HETATM   19  S1  UNL     1      21.723   2.900  49.968  1.00  0.00     0.198 S 
HETATM   20  O1  UNL     1      21.897   1.406  49.713  1.00  0.00    -0.221 OA
HETATM   21  O2  UNL     1      20.993   3.545  48.845  1.00  0.00    -0.221 OA
BRANCH  19  22
HETATM   22  C2  UNL     1      20.767   2.996  51.458  1.00  0.00     0.134 C 
HETATM   23  C1  UNL     1      21.267   2.112  52.344  1.00  0.00     0.023 C 
ENDBRANCH  19  22
ENDBRANCH   1  19
TORSDOF 4
ENDMDL
MODEL 9
REMARK VINA RESULT:      -6.7      7.721      9.525
REMARK  4 active torsions:
REMARK  status: ('A' for Active; 'I' for Inactive)
REMARK    1  A    between atoms: C2_2  and  S1_3 
REMARK    2  A    between atoms: S1_3  and  C3_6 
REMARK    3  A    between atoms: C5_8  and  N1_9 
REMARK    4  A    between atoms: N1_9  and  C6_10 
ROOT
HETATM    1  C3  UNL     1      32.429   5.929  47.169  1.00  0.00     0.152 C 
HETATM    2  C4  UNL     1      31.923   6.278  48.370  1.00  0.00     0.079 C 
HETATM    3  C5  UNL     1      30.966   7.367  48.010  1.00  0.00     0.195 A 
HETATM    4  N2  UNL     1      30.619   8.112  49.189  1.00  0.00    -0.240 NA
HETATM    5  C12 UNL     1      30.867   9.367  48.913  1.00  0.00     0.231 A 
HETATM    6  N3  UNL     1      31.381   9.499  47.578  1.00  0.00    -0.240 NA
HETATM    7  C13 UNL     1      31.448   8.304  47.037  1.00  0.00     0.108 A 
HETATM    8  C14 UNL     1      31.968   7.794  45.782  1.00  0.00     0.150 C 
HETATM    9  N4  UNL     1      32.479   6.579  45.889  1.00  0.00    -0.247 NA
ENDROOT
BRANCH   3  10
HETATM   10  N1  UNL     1      29.766   6.634  47.519  1.00  0.00    -0.354 N 
HETATM   11  H5  UNL     1      29.910   6.117  46.594  1.00  0.00     0.163 HD
BRANCH  10  12
HETATM   12  C6  UNL     1      28.404   6.405  47.942  1.00  0.00     0.031 A 
HETATM   13  C7  UNL     1      27.376   7.345  47.785  1.00  0.00     0.029 A 
HETATM   14  C8  UNL     1      26.135   6.983  48.238  1.00  0.00     0.004 A 
HETATM   15  C9  UNL     1      25.832   5.778  48.829  1.00  0.00     0.019 A 
HETATM   16  C10 UNL     1      26.845   4.860  48.981  1.00  0.00     0.013 A 
HETATM   17 BR1  UNL     1      26.343   3.217  49.807  1.00  0.00    -0.051 Br
HETATM   18  C11 UNL     1      28.099   5.199  48.534  1.00  0.00     0.048 A 
ENDBRANCH  10  12
ENDBRANCH   3  10
BRANCH   1  19
HETATM   19  S1  UNL     1      33.606   4.603  47.126  1.00  0.00     0.198 S 
HETATM   20  O1  UNL     1      32.929   3.355  47.682  1.00  0.00    -0.221 OA
HETATM   21  O2  UNL     1      34.853   4.905  47.877  1.00  0.00    -0.221 OA
BRANCH  19  22
HETATM   22  C2  UNL     1      33.984   4.202  45.441  1.00  0.00     0.134 C 
HETATM   23  C1  UNL     1      35.213   3.653  45.399  1.00  0.00     0.023 C 
ENDBRANCH  19  22
ENDBRANCH   1  19
TORSDOF 4
ENDMDL
