MODEL 1
REMARK VINA RESULT:      -8.9      0.000      0.000
REMARK  3 active torsions:
REMARK  status: ('A' for Active; 'I' for Inactive)
REMARK    1  A    between atoms: C4_5  and  N1_6 
REMARK    2  A    between atoms: N1_6  and  C5_7 
REMARK    3  A    between atoms: C9_13  and  O1_14 
ROOT
HETATM    1  C5  UNL     1      24.235  -0.274  53.883  1.00  0.00     0.144 A 
HETATM    2  N2  UNL     1      24.541  -0.944  54.999  1.00  0.00    -0.223 NA
HETATM    3  C6  UNL     1      23.604  -1.552  55.718  1.00  0.00     0.236 A 
HETATM    4  N3  UNL     1      22.311  -1.523  55.360  1.00  0.00    -0.241 NA
HETATM    5  C7  UNL     1      21.910  -0.875  54.254  1.00  0.00     0.077 A 
HETATM    6  C8  UNL     1      20.585  -0.836  53.874  1.00  0.00     0.074 A 
HETATM    7  C9  UNL     1      20.228  -0.161  52.738  1.00  0.00     0.130 A 
HETATM    8  C10 UNL     1      21.235   0.458  52.020  1.00  0.00     0.138 A 
HETATM    9  C11 UNL     1      22.558   0.422  52.395  1.00  0.00     0.121 A 
HETATM   10  C12 UNL     1      22.907  -0.254  53.531  1.00  0.00     0.075 A 
HETATM   11  O2  UNL     1      23.425   1.089  51.570  1.00  0.00    -0.345 OA
HETATM   12  C13 UNL     1      23.062   2.301  50.939  1.00  0.00     0.202 C 
HETATM   13  C14 UNL     1      21.656   2.280  50.421  1.00  0.00     0.202 C 
HETATM   14  O3  UNL     1      20.925   1.154  50.863  1.00  0.00    -0.344 OA
ENDROOT
BRANCH   1  15
HETATM   15  N1  UNL     1      25.290   0.342  53.166  1.00  0.00    -0.340 N 
HETATM   16  H3  UNL     1      25.476   1.096  52.486  1.00  0.00     0.167 HD
BRANCH  15  17
HETATM   17  C4  UNL     1      26.618  -0.134  53.340  1.00  0.00     0.033 A 
HETATM   18  C3  UNL     1      27.227  -1.269  52.845  1.00  0.00     0.032 A 
HETATM   19  C2  UNL     1      28.531  -1.639  53.053  1.00  0.00     0.044 A 
HETATM   20  C1  UNL     1      29.333  -0.825  53.823  1.00  0.00     0.116 A 
HETATM   21  F1  UNL     1      30.617  -1.210  54.014  1.00  0.00    -0.206 F 
HETATM   22  C16 UNL     1      28.780   0.341  54.356  1.00  0.00     0.044 A 
HETATM   23  C15 UNL     1      27.468   0.663  54.115  1.00  0.00     0.032 A 
ENDBRANCH  15  17
ENDBRANCH   1  15
BRANCH   7  24
HETATM   24  O1  UNL     1      18.900  -0.115  52.344  1.00  0.00    -0.238 OA
HETATM   25 CL1  UNL     1      17.708  -1.228  52.840  1.00  0.00     0.067 Cl
ENDBRANCH   7  24
TORSDOF 3
ENDMDL
MODEL 2
REMARK VINA RESULT:      -8.5      1.780      3.406
REMARK  3 active torsions:
REMARK  status: ('A' for Active; 'I' for Inactive)
REMARK    1  A    between atoms: C4_5  and  N1_6 
REMARK    2  A    between atoms: N1_6  and  C5_7 
REMARK    3  A    between atoms: C9_13  and  O1_14 
ROOT
HETATM    1  C5  UNL     1      24.867   0.981  52.458  1.00  0.00     0.144 A 
HETATM    2  N2  UNL     1      25.790   1.685  51.795  1.00  0.00    -0.223 NA
HETATM    3  C6  UNL     1      25.479   2.813  51.166  1.00  0.00     0.236 A 
HETATM    4  N3  UNL     1      24.226   3.297  51.166  1.00  0.00    -0.241 NA
HETATM    5  C7  UNL     1      23.234   2.658  51.806  1.00  0.00     0.077 A 
HETATM    6  C8  UNL     1      21.943   3.145  51.815  1.00  0.00     0.074 A 
HETATM    7  C9  UNL     1      20.967   2.454  52.483  1.00  0.00     0.130 A 
HETATM    8  C10 UNL     1      21.335   1.286  53.123  1.00  0.00     0.138 A 
HETATM    9  C11 UNL     1      22.621   0.797  53.117  1.00  0.00     0.121 A 
HETATM   10  C12 UNL     1      23.591   1.492  52.448  1.00  0.00     0.075 A 
HETATM   11  O2  UNL     1      22.812  -0.374  53.802  1.00  0.00    -0.345 OA
HETATM   12  C13 UNL     1      21.833  -1.394  53.810  1.00  0.00     0.202 C 
HETATM   13  C14 UNL     1      20.442  -0.854  53.946  1.00  0.00     0.202 C 
HETATM   14  O3  UNL     1      20.383   0.551  53.812  1.00  0.00    -0.344 OA
ENDROOT
BRANCH   1  15
HETATM   15  N1  UNL     1      25.277  -0.207  53.111  1.00  0.00    -0.340 N 
HETATM   16  H3  UNL     1      24.907  -1.094  53.489  1.00  0.00     0.167 HD
BRANCH  15  17
HETATM   17  C4  UNL     1      26.653  -0.391  53.417  1.00  0.00     0.033 A 
HETATM   18  C3  UNL     1      27.467   0.296  54.294  1.00  0.00     0.032 A 
HETATM   19  C2  UNL     1      28.791   0.032  54.540  1.00  0.00     0.044 A 
HETATM   20  C1  UNL     1      29.392  -1.007  53.864  1.00  0.00     0.116 A 
HETATM   21  F1  UNL     1      30.699  -1.249  54.123  1.00  0.00    -0.206 F 
HETATM   22  C16 UNL     1      28.625  -1.745  52.960  1.00  0.00     0.044 A 
HETATM   23  C15 UNL     1      27.304  -1.438  52.754  1.00  0.00     0.032 A 
ENDBRANCH  15  17
ENDBRANCH   1  15
BRANCH   7  24
HETATM   24  O1  UNL     1      19.666   2.932  52.500  1.00  0.00    -0.238 OA
HETATM   25 CL1  UNL     1      18.386   2.279  51.581  1.00  0.00     0.067 Cl
ENDBRANCH   7  24
TORSDOF 3
ENDMDL
MODEL 3
REMARK VINA RESULT:      -8.1      2.196      4.110
REMARK  3 active torsions:
REMARK  status: ('A' for Active; 'I' for Inactive)
REMARK    1  A    between atoms: C4_5  and  N1_6 
REMARK    2  A    between atoms: N1_6  and  C5_7 
REMARK    3  A    between atoms: C9_13  and  O1_14 
ROOT
HETATM    1  C5  UNL     1      25.873   2.379  51.799  1.00  0.00     0.144 A 
HETATM    2  N2  UNL     1      26.860   2.869  51.042  1.00  0.00    -0.223 NA
HETATM    3  C6  UNL     1      26.616   3.404  49.850  1.00  0.00     0.236 A 
HETATM    4  N3  UNL     1      25.372   3.476  49.352  1.00  0.00    -0.241 NA
HETATM    5  C7  UNL     1      24.318   3.010  50.041  1.00  0.00     0.077 A 
HETATM    6  C8  UNL     1      23.034   3.078  49.542  1.00  0.00     0.074 A 
HETATM    7  C9  UNL     1      21.994   2.587  50.285  1.00  0.00     0.130 A 
HETATM    8  C10 UNL     1      22.293   2.039  51.519  1.00  0.00     0.138 A 
HETATM    9  C11 UNL     1      23.572   1.969  52.021  1.00  0.00     0.121 A 
HETATM   10  C12 UNL     1      24.606   2.461  51.273  1.00  0.00     0.075 A 
HETATM   11  O2  UNL     1      23.690   1.395  53.259  1.00  0.00    -0.345 OA
HETATM   12  C13 UNL     1      22.884   0.301  53.647  1.00  0.00     0.202 C 
HETATM   13  C14 UNL     1      21.460   0.451  53.203  1.00  0.00     0.202 C 
HETATM   14  O3  UNL     1      21.276   1.528  52.308  1.00  0.00    -0.344 OA
ENDROOT
BRANCH   1  15
HETATM   15  N1  UNL     1      26.211   1.832  53.061  1.00  0.00    -0.340 N 
HETATM   16  H3  UNL     1      26.044   1.961  54.072  1.00  0.00     0.167 HD
BRANCH  15  17
HETATM   17  C4  UNL     1      27.074   0.703  53.120  1.00  0.00     0.033 A 
HETATM   18  C3  UNL     1      28.369   0.598  53.584  1.00  0.00     0.032 A 
HETATM   19  C2  UNL     1      29.122  -0.547  53.618  1.00  0.00     0.044 A 
HETATM   20  C1  UNL     1      28.563  -1.718  53.154  1.00  0.00     0.116 A 
HETATM   21  F1  UNL     1      29.325  -2.836  53.198  1.00  0.00    -0.206 F 
HETATM   22  C16 UNL     1      27.254  -1.683  52.669  1.00  0.00     0.044 A 
HETATM   23  C15 UNL     1      26.546  -0.508  52.659  1.00  0.00     0.032 A 
ENDBRANCH  15  17
ENDBRANCH   1  15
BRANCH   7  24
HETATM   24  O1  UNL     1      20.699   2.649  49.795  1.00  0.00    -0.238 OA
HETATM   25 CL1  UNL     1      19.742   1.288  49.423  1.00  0.00     0.067 Cl
ENDBRANCH   7  24
TORSDOF 3
ENDMDL
MODEL 4
REMARK VINA RESULT:      -8.0      3.951      5.775
REMARK  3 active torsions:
REMARK  status: ('A' for Active; 'I' for Inactive)
REMARK    1  A    between atoms: C4_5  and  N1_6 
REMARK    2  A    between atoms: N1_6  and  C5_7 
REMARK    3  A    between atoms: C9_13  and  O1_14 
ROOT
HETATM    1  C5  UNL     1      23.425   3.511  51.051  1.00  0.00     0.144 A 
HETATM    2  N2  UNL     1      22.620   3.964  50.084  1.00  0.00    -0.223 NA
HETATM    3  C6  UNL     1      21.586   3.248  49.655  1.00  0.00     0.236 A 
HETATM    4  N3  UNL     1      21.302   2.041  50.170  1.00  0.00    -0.241 NA
HETATM    5  C7  UNL     1      22.055   1.506  51.145  1.00  0.00     0.077 A 
HETATM    6  C8  UNL     1      21.775   0.268  51.684  1.00  0.00     0.074 A 
HETATM    7  C9  UNL     1      22.575  -0.233  52.677  1.00  0.00     0.130 A 
HETATM    8  C10 UNL     1      23.640   0.546  53.092  1.00  0.00     0.138 A 
HETATM    9  C11 UNL     1      23.923   1.781  52.558  1.00  0.00     0.121 A 
HETATM   10  C12 UNL     1      23.120   2.275  51.567  1.00  0.00     0.075 A 
HETATM   11  O2  UNL     1      25.016   2.417  53.085  1.00  0.00    -0.345 OA
HETATM   12  C13 UNL     1      26.173   1.703  53.469  1.00  0.00     0.202 C 
HETATM   13  C14 UNL     1      25.850   0.416  54.166  1.00  0.00     0.202 C 
HETATM   14  O3  UNL     1      24.479   0.083  54.093  1.00  0.00    -0.344 OA
ENDROOT
BRANCH   1  15
HETATM   15  N1  UNL     1      24.502   4.335  51.460  1.00  0.00    -0.340 N 
HETATM   16  H3  UNL     1      24.938   4.741  52.304  1.00  0.00     0.167 HD
BRANCH  15  17
HETATM   17  C4  UNL     1      25.383   4.864  50.478  1.00  0.00     0.033 A 
HETATM   18  C3  UNL     1      25.500   6.149  49.988  1.00  0.00     0.032 A 
HETATM   19  C2  UNL     1      26.401   6.572  49.045  1.00  0.00     0.044 A 
HETATM   20  C1  UNL     1      27.285   5.656  48.518  1.00  0.00     0.116 A 
HETATM   21  F1  UNL     1      28.166   6.097  47.590  1.00  0.00    -0.206 F 
HETATM   22  C16 UNL     1      27.222   4.336  48.970  1.00  0.00     0.044 A 
HETATM   23  C15 UNL     1      26.300   3.967  49.917  1.00  0.00     0.032 A 
ENDBRANCH  15  17
ENDBRANCH   1  15
BRANCH   7  24
HETATM   24  O1  UNL     1      22.305  -1.475  53.227  1.00  0.00    -0.238 OA
HETATM   25 CL1  UNL     1      21.126  -1.763  54.425  1.00  0.00     0.067 Cl
ENDBRANCH   7  24
TORSDOF 3
ENDMDL
MODEL 5
REMARK VINA RESULT:      -7.9      4.039      5.947
REMARK  3 active torsions:
REMARK  status: ('A' for Active; 'I' for Inactive)
REMARK    1  A    between atoms: C4_5  and  N1_6 
REMARK    2  A    between atoms: N1_6  and  C5_7 
REMARK    3  A    between atoms: C9_13  and  O1_14 
ROOT
HETATM    1  C5  UNL     1      25.888   3.250  50.350  1.00  0.00     0.144 A 
HETATM    2  N2  UNL     1      26.985   3.360  49.592  1.00  0.00    -0.223 NA
HETATM    3  C6  UNL     1      27.275   4.491  48.958  1.00  0.00     0.236 A 
HETATM    4  N3  UNL     1      26.485   5.573  49.049  1.00  0.00    -0.241 NA
HETATM    5  C7  UNL     1      25.363   5.555  49.788  1.00  0.00     0.077 A 
HETATM    6  C8  UNL     1      24.542   6.658  49.890  1.00  0.00     0.074 A 
HETATM    7  C9  UNL     1      23.409   6.588  50.656  1.00  0.00     0.130 A 
HETATM    8  C10 UNL     1      23.146   5.392  51.297  1.00  0.00     0.138 A 
HETATM    9  C11 UNL     1      23.962   4.288  51.198  1.00  0.00     0.121 A 
HETATM   10  C12 UNL     1      25.091   4.366  50.432  1.00  0.00     0.075 A 
HETATM   11  O2  UNL     1      23.551   3.185  51.899  1.00  0.00    -0.345 OA
HETATM   12  C13 UNL     1      22.183   2.851  52.018  1.00  0.00     0.202 C 
HETATM   13  C14 UNL     1      21.317   4.051  52.253  1.00  0.00     0.202 C 
HETATM   14  O3  UNL     1      22.012   5.270  52.084  1.00  0.00    -0.344 OA
ENDROOT
BRANCH   1  15
HETATM   15  N1  UNL     1      25.651   2.014  51.001  1.00  0.00    -0.340 N 
HETATM   16  H3  UNL     1      24.951   1.259  51.075  1.00  0.00     0.167 HD
BRANCH  15  17
HETATM   17  C4  UNL     1      26.630   1.501  51.894  1.00  0.00     0.033 A 
HETATM   18  C3  UNL     1      27.546   2.163  52.684  1.00  0.00     0.032 A 
HETATM   19  C2  UNL     1      28.447   1.578  53.537  1.00  0.00     0.044 A 
HETATM   20  C1  UNL     1      28.464   0.204  53.637  1.00  0.00     0.116 A 
HETATM   21  F1  UNL     1      29.360  -0.351  54.486  1.00  0.00    -0.206 F 
HETATM   22  C16 UNL     1      27.561  -0.530  52.865  1.00  0.00     0.044 A 
HETATM   23  C15 UNL     1      26.681   0.108  52.028  1.00  0.00     0.032 A 
ENDBRANCH  15  17
ENDBRANCH   1  15
BRANCH   7  24
HETATM   24  O1  UNL     1      22.576   7.689  50.768  1.00  0.00    -0.238 OA
HETATM   25 CL1  UNL     1      21.071   7.844  49.981  1.00  0.00     0.067 Cl
ENDBRANCH   7  24
TORSDOF 3
ENDMDL
MODEL 6
REMARK VINA RESULT:      -7.8      4.526      7.490
REMARK  3 active torsions:
REMARK  status: ('A' for Active; 'I' for Inactive)
REMARK    1  A    between atoms: C4_5  and  N1_6 
REMARK    2  A    between atoms: N1_6  and  C5_7 
REMARK    3  A    between atoms: C9_13  and  O1_14 
ROOT
HETATM    1  C5  UNL     1      24.376   1.858  51.478  1.00  0.00     0.144 A 
HETATM    2  N2  UNL     1      24.730   2.831  50.632  1.00  0.00    -0.223 NA
HETATM    3  C6  UNL     1      25.996   3.218  50.515  1.00  0.00     0.236 A 
HETATM    4  N3  UNL     1      26.975   2.652  51.238  1.00  0.00    -0.241 NA
HETATM    5  C7  UNL     1      26.714   1.667  52.112  1.00  0.00     0.077 A 
HETATM    6  C8  UNL     1      27.710   1.076  52.861  1.00  0.00     0.074 A 
HETATM    7  C9  UNL     1      27.390   0.076  53.740  1.00  0.00     0.130 A 
HETATM    8  C10 UNL     1      26.061  -0.295  53.830  1.00  0.00     0.138 A 
HETATM    9  C11 UNL     1      25.064   0.292  53.085  1.00  0.00     0.121 A 
HETATM   10  C12 UNL     1      25.391   1.290  52.209  1.00  0.00     0.075 A 
HETATM   11  O2  UNL     1      23.802  -0.196  53.299  1.00  0.00    -0.345 OA
HETATM   12  C13 UNL     1      23.370  -0.592  54.585  1.00  0.00     0.202 C 
HETATM   13  C14 UNL     1      24.425  -1.343  55.339  1.00  0.00     0.202 C 
HETATM   14  O3  UNL     1      25.687  -1.302  54.705  1.00  0.00    -0.344 OA
ENDROOT
BRANCH   1  15
HETATM   15  N1  UNL     1      23.008   1.496  51.541  1.00  0.00    -0.340 N 
HETATM   16  H3  UNL     1      22.330   0.987  52.131  1.00  0.00     0.167 HD
BRANCH  15  17
HETATM   17  C4  UNL     1      22.132   1.908  50.500  1.00  0.00     0.033 A 
HETATM   18  C3  UNL     1      21.943   1.383  49.238  1.00  0.00     0.032 A 
HETATM   19  C2  UNL     1      21.053   1.841  48.300  1.00  0.00     0.044 A 
HETATM   20  C1  UNL     1      20.261   2.924  48.615  1.00  0.00     0.116 A 
HETATM   21  F1  UNL     1      19.390   3.357  47.674  1.00  0.00    -0.206 F 
HETATM   22  C16 UNL     1      20.401   3.505  49.877  1.00  0.00     0.044 A 
HETATM   23  C15 UNL     1      21.308   3.005  50.778  1.00  0.00     0.032 A 
ENDBRANCH  15  17
ENDBRANCH   1  15
BRANCH   7  24
HETATM   24  O1  UNL     1      28.381  -0.527  54.498  1.00  0.00    -0.238 OA
HETATM   25 CL1  UNL     1      29.897  -1.017  53.890  1.00  0.00     0.067 Cl
ENDBRANCH   7  24
TORSDOF 3
ENDMDL
MODEL 7
REMARK VINA RESULT:      -7.4      4.439      6.978
REMARK  3 active torsions:
REMARK  status: ('A' for Active; 'I' for Inactive)
REMARK    1  A    between atoms: C4_5  and  N1_6 
REMARK    2  A    between atoms: N1_6  and  C5_7 
REMARK    3  A    between atoms: C9_13  and  O1_14 
ROOT
HETATM    1  C5  UNL     1      22.211   0.815  53.189  1.00  0.00     0.144 A 
HETATM    2  N2  UNL     1      21.252   0.061  53.736  1.00  0.00    -0.223 NA
HETATM    3  C6  UNL     1      21.546  -0.955  54.540  1.00  0.00     0.236 A 
HETATM    4  N3  UNL     1      22.816  -1.272  54.839  1.00  0.00    -0.241 NA
HETATM    5  C7  UNL     1      23.845  -0.571  54.336  1.00  0.00     0.077 A 
HETATM    6  C8  UNL     1      25.154  -0.885  54.635  1.00  0.00     0.074 A 
HETATM    7  C9  UNL     1      26.168  -0.138  54.095  1.00  0.00     0.130 A 
HETATM    8  C10 UNL     1      25.816   0.910  53.265  1.00  0.00     0.138 A 
HETATM    9  C11 UNL     1      24.511   1.227  52.963  1.00  0.00     0.121 A 
HETATM   10  C12 UNL     1      23.505   0.476  53.506  1.00  0.00     0.075 A 
HETATM   11  O2  UNL     1      24.342   2.295  52.123  1.00  0.00    -0.345 OA
HETATM   12  C13 UNL     1      25.231   2.544  51.054  1.00  0.00     0.202 C 
HETATM   13  C14 UNL     1      26.664   2.318  51.434  1.00  0.00     0.202 C 
HETATM   14  O3  UNL     1      26.805   1.695  52.694  1.00  0.00    -0.344 OA
ENDROOT
BRANCH   1  15
HETATM   15  N1  UNL     1      21.818   1.886  52.349  1.00  0.00    -0.340 N 
HETATM   16  H3  UNL     1      22.135   2.807  52.009  1.00  0.00     0.167 HD
BRANCH  15  17
HETATM   17  C4  UNL     1      20.577   1.808  51.661  1.00  0.00     0.033 A 
HETATM   18  C3  UNL     1      20.165   0.946  50.665  1.00  0.00     0.032 A 
HETATM   19  C2  UNL     1      18.930   0.935  50.069  1.00  0.00     0.044 A 
HETATM   20  C1  UNL     1      17.991   1.857  50.480  1.00  0.00     0.116 A 
HETATM   21  F1  UNL     1      16.779   1.826  49.878  1.00  0.00    -0.206 F 
HETATM   22  C16 UNL     1      18.342   2.760  51.485  1.00  0.00     0.044 A 
HETATM   23  C15 UNL     1      19.593   2.726  52.047  1.00  0.00     0.032 A 
ENDBRANCH  15  17
ENDBRANCH   1  15
BRANCH   7  24
HETATM   24  O1  UNL     1      27.487  -0.442  54.388  1.00  0.00    -0.238 OA
HETATM   25 CL1  UNL     1      28.580  -1.155  53.289  1.00  0.00     0.067 Cl
ENDBRANCH   7  24
TORSDOF 3
ENDMDL
MODEL 8
REMARK VINA RESULT:      -7.2      4.679      7.638
REMARK  3 active torsions:
REMARK  status: ('A' for Active; 'I' for Inactive)
REMARK    1  A    between atoms: C4_5  and  N1_6 
REMARK    2  A    between atoms: N1_6  and  C5_7 
REMARK    3  A    between atoms: C9_13  and  O1_14 
ROOT
HETATM    1  C5  UNL     1      24.355   2.886  50.538  1.00  0.00     0.144 A 
HETATM    2  N2  UNL     1      25.073   3.786  49.857  1.00  0.00    -0.223 NA
HETATM    3  C6  UNL     1      26.398   3.823  49.947  1.00  0.00     0.236 A 
HETATM    4  N3  UNL     1      27.076   2.963  50.723  1.00  0.00    -0.241 NA
HETATM    5  C7  UNL     1      26.440   2.025  51.443  1.00  0.00     0.077 A 
HETATM    6  C8  UNL     1      27.124   1.135  52.244  1.00  0.00     0.074 A 
HETATM    7  C9  UNL     1      26.427   0.197  52.959  1.00  0.00     0.130 A 
HETATM    8  C10 UNL     1      25.049   0.194  52.836  1.00  0.00     0.138 A 
HETATM    9  C11 UNL     1      24.363   1.081  52.038  1.00  0.00     0.121 A 
HETATM   10  C12 UNL     1      25.066   2.014  51.327  1.00  0.00     0.075 A 
HETATM   11  O2  UNL     1      23.001   0.938  52.033  1.00  0.00    -0.345 OA
HETATM   12  C13 UNL     1      22.289   0.582  53.201  1.00  0.00     0.202 C 
HETATM   13  C14 UNL     1      22.987  -0.479  53.997  1.00  0.00     0.202 C 
HETATM   14  O3  UNL     1      24.299  -0.734  53.539  1.00  0.00    -0.344 OA
ENDROOT
BRANCH   1  15
HETATM   15  N1  UNL     1      22.947   2.904  50.384  1.00  0.00    -0.340 N 
HETATM   16  H3  UNL     1      22.135   2.275  50.282  1.00  0.00     0.167 HD
BRANCH  15  17
HETATM   17  C4  UNL     1      22.270   4.153  50.341  1.00  0.00     0.033 A 
HETATM   18  C3  UNL     1      22.207   5.163  51.280  1.00  0.00     0.032 A 
HETATM   19  C2  UNL     1      21.537   6.351  51.141  1.00  0.00     0.044 A 
HETATM   20  C1  UNL     1      20.854   6.590  49.968  1.00  0.00     0.116 A 
HETATM   21  F1  UNL     1      20.201   7.770  49.853  1.00  0.00    -0.206 F 
HETATM   22  C16 UNL     1      20.876   5.609  48.974  1.00  0.00     0.044 A 
HETATM   23  C15 UNL     1      21.563   4.437  49.167  1.00  0.00     0.032 A 
ENDBRANCH  15  17
ENDBRANCH   1  15
BRANCH   7  24
HETATM   24  O1  UNL     1      27.101  -0.704  53.767  1.00  0.00    -0.238 OA
HETATM   25 CL1  UNL     1      28.712  -1.206  53.518  1.00  0.00     0.067 Cl
ENDBRANCH   7  24
TORSDOF 3
ENDMDL
MODEL 9
REMARK VINA RESULT:      -7.1      4.495      7.068
REMARK  3 active torsions:
REMARK  status: ('A' for Active; 'I' for Inactive)
REMARK    1  A    between atoms: C4_5  and  N1_6 
REMARK    2  A    between atoms: N1_6  and  C5_7 
REMARK    3  A    between atoms: C9_13  and  O1_14 
ROOT
HETATM    1  C5  UNL     1      21.974   0.943  53.028  1.00  0.00     0.144 A 
HETATM    2  N2  UNL     1      22.080  -0.249  53.626  1.00  0.00    -0.223 NA
HETATM    3  C6  UNL     1      23.249  -0.872  53.722  1.00  0.00     0.236 A 
HETATM    4  N3  UNL     1      24.376  -0.337  53.226  1.00  0.00    -0.241 NA
HETATM    5  C7  UNL     1      24.367   0.856  52.609  1.00  0.00     0.077 A 
HETATM    6  C8  UNL     1      25.516   1.418  52.094  1.00  0.00     0.074 A 
HETATM    7  C9  UNL     1      25.452   2.637  51.474  1.00  0.00     0.130 A 
HETATM    8  C10 UNL     1      24.216   3.250  51.397  1.00  0.00     0.138 A 
HETATM    9  C11 UNL     1      23.066   2.693  51.908  1.00  0.00     0.121 A 
HETATM   10  C12 UNL     1      23.138   1.476  52.526  1.00  0.00     0.075 A 
HETATM   11  O2  UNL     1      21.926   3.435  51.744  1.00  0.00    -0.345 OA
HETATM   12  C13 UNL     1      21.699   4.193  50.573  1.00  0.00     0.202 C 
HETATM   13  C14 UNL     1      22.933   4.898  50.096  1.00  0.00     0.202 C 
HETATM   14  O3  UNL     1      24.099   4.484  50.778  1.00  0.00    -0.344 OA
ENDROOT
BRANCH   1  15
HETATM   15  N1  UNL     1      20.695   1.548  52.972  1.00  0.00    -0.340 N 
HETATM   16  H3  UNL     1      20.183   2.390  53.278  1.00  0.00     0.167 HD
BRANCH  15  17
HETATM   17  C4  UNL     1      19.643   0.885  52.284  1.00  0.00     0.033 A 
HETATM   18  C3  UNL     1      18.826  -0.149  52.694  1.00  0.00     0.032 A 
HETATM   19  C2  UNL     1      17.816  -0.717  51.961  1.00  0.00     0.044 A 
HETATM   20  C1  UNL     1      17.569  -0.235  50.694  1.00  0.00     0.116 A 
HETATM   21  F1  UNL     1      16.567  -0.810  49.989  1.00  0.00    -0.206 F 
HETATM   22  C16 UNL     1      18.360   0.812  50.215  1.00  0.00     0.044 A 
HETATM   23  C15 UNL     1      19.357   1.344  50.993  1.00  0.00     0.032 A 
ENDBRANCH  15  17
ENDBRANCH   1  15
BRANCH   7  24
HETATM   24  O1  UNL     1      26.600   3.213  50.954  1.00  0.00    -0.238 OA
HETATM   25 CL1  UNL     1      26.840   3.561  49.301  1.00  0.00     0.067 Cl
ENDBRANCH   7  24
TORSDOF 3
ENDMDL
