MODEL 1
REMARK VINA RESULT:      -7.1      0.000      0.000
REMARK  7 active torsions:
REMARK  status: ('A' for Active; 'I' for Inactive)
REMARK    1  A    between atoms: C3_3  and  N1_5 
REMARK    2  A    between atoms: N1_5  and  C4_6 
REMARK    3  A    between atoms: C8_10  and  O2_11 
REMARK    4  A    between atoms: O2_11  and  C9_12 
REMARK    5  A    between atoms: C11_14  and  N2_15 
REMARK    6  A    between atoms: N2_15  and  C12_16 
REMARK    7  A    between atoms: C12_16  and  C13_17 
ROOT
HETATM    1  O2  UNL     1      26.300   2.766  49.778  1.00  0.00    -0.292 OA
ENDROOT
BRANCH   1   2
HETATM    2  C8  UNL     1      26.023   2.392  51.078  1.00  0.00     0.080 A 
HETATM    3  C7  UNL     1      24.832   2.023  51.645  1.00  0.00     0.037 A 
HETATM    4  C6  UNL     1      24.659   1.665  52.961  1.00  0.00     0.005 A 
HETATM    5  C5  UNL     1      25.822   1.697  53.738  1.00  0.00     0.029 A 
HETATM    6  C4  UNL     1      27.042   2.060  53.208  1.00  0.00     0.035 A 
HETATM    7  C16 UNL     1      27.165   2.412  51.879  1.00  0.00     0.066 A 
BRANCH   6   8
HETATM    8  N1  UNL     1      28.048   2.014  54.197  1.00  0.00    -0.358 N 
HETATM    9  H4  UNL     1      28.574   2.525  54.929  1.00  0.00     0.166 HD
BRANCH   8  10
HETATM   10  C3  UNL     1      28.618   0.694  54.233  1.00  0.00     0.037 A 
HETATM   11  C2  UNL     1      29.715   0.075  53.482  1.00  0.00     0.047 A 
HETATM   12  C1  UNL     1      29.827  -1.180  53.912  1.00  0.00     0.012 A 
HETATM   13  O1  UNL     1      28.706  -0.470  54.650  1.00  0.00     0.000 OA
ENDBRANCH   8  10
ENDBRANCH   6   8
ENDBRANCH   1   2
BRANCH   1  14
HETATM   14  C9  UNL     1      26.677   4.005  49.358  1.00  0.00     0.174 A 
HETATM   15  C10 UNL     1      25.659   4.919  49.591  1.00  0.00     0.108 A 
HETATM   16  C11 UNL     1      25.771   6.270  49.258  1.00  0.00     0.129 A 
HETATM   17  N3  UNL     1      26.933   6.640  48.695  1.00  0.00    -0.225 NA
HETATM   18  C15 UNL     1      27.916   5.742  48.475  1.00  0.00     0.238 A 
HETATM   19  N4  UNL     1      27.812   4.444  48.793  1.00  0.00    -0.217 NA
BRANCH  16  20
HETATM   20  N2  UNL     1      24.773   7.248  49.475  1.00  0.00    -0.374 N 
HETATM   21  H9  UNL     1      24.654   7.766  48.554  1.00  0.00     0.161 HD
BRANCH  20  22
HETATM   22  C12 UNL     1      24.171   7.336  50.797  1.00  0.00     0.128 C 
BRANCH  22  23
HETATM   23  C13 UNL     1      22.731   7.032  50.695  1.00  0.00     0.030 C 
HETATM   24  C14 UNL     1      22.078   6.057  51.277  1.00  0.00     0.239 C 
HETATM   25 CL1  UNL     1      23.072   5.035  52.270  1.00  0.00    -0.255 Cl
ENDBRANCH  22  23
ENDBRANCH  20  22
ENDBRANCH  16  20
ENDBRANCH   1  14
TORSDOF 7
ENDMDL
MODEL 2
REMARK VINA RESULT:      -7.1      2.645      3.976
REMARK  7 active torsions:
REMARK  status: ('A' for Active; 'I' for Inactive)
REMARK    1  A    between atoms: C3_3  and  N1_5 
REMARK    2  A    between atoms: N1_5  and  C4_6 
REMARK    3  A    between atoms: C8_10  and  O2_11 
REMARK    4  A    between atoms: O2_11  and  C9_12 
REMARK    5  A    between atoms: C11_14  and  N2_15 
REMARK    6  A    between atoms: N2_15  and  C12_16 
REMARK    7  A    between atoms: C12_16  and  C13_17 
ROOT
HETATM    1  O2  UNL     1      23.877   1.754  51.148  1.00  0.00    -0.292 OA
ENDROOT
BRANCH   1   2
HETATM    2  C8  UNL     1      23.679   0.914  52.226  1.00  0.00     0.080 A 
HETATM    3  C7  UNL     1      22.508   0.474  52.785  1.00  0.00     0.037 A 
HETATM    4  C6  UNL     1      22.414  -0.368  53.867  1.00  0.00     0.005 A 
HETATM    5  C5  UNL     1      23.642  -0.777  54.402  1.00  0.00     0.029 A 
HETATM    6  C4  UNL     1      24.843  -0.360  53.870  1.00  0.00     0.035 A 
HETATM    7  C16 UNL     1      24.884   0.487  52.781  1.00  0.00     0.066 A 
BRANCH   6   8
HETATM    8  N1  UNL     1      25.925  -0.910  54.591  1.00  0.00    -0.358 N 
HETATM    9  H4  UNL     1      26.283  -1.704  55.152  1.00  0.00     0.166 HD
BRANCH   8  10
HETATM   10  C3  UNL     1      27.034   0.003  54.554  1.00  0.00     0.037 A 
HETATM   11  C2  UNL     1      28.305  -0.023  53.823  1.00  0.00     0.047 A 
HETATM   12  C1  UNL     1      28.973   1.080  54.158  1.00  0.00     0.012 A 
HETATM   13  O1  UNL     1      27.637   1.037  54.877  1.00  0.00     0.000 OA
ENDBRANCH   8  10
ENDBRANCH   6   8
ENDBRANCH   1   2
BRANCH   1  14
HETATM   14  C9  UNL     1      23.659   3.098  51.121  1.00  0.00     0.174 A 
HETATM   15  C10 UNL     1      24.801   3.758  50.691  1.00  0.00     0.108 A 
HETATM   16  C11 UNL     1      24.865   5.147  50.567  1.00  0.00     0.129 A 
HETATM   17  N3  UNL     1      23.746   5.816  50.892  1.00  0.00    -0.225 NA
HETATM   18  C15 UNL     1      22.641   5.162  51.309  1.00  0.00     0.238 A 
HETATM   19  N4  UNL     1      22.576   3.828  51.429  1.00  0.00    -0.217 NA
BRANCH  16  20
HETATM   20  N2  UNL     1      25.995   5.876  50.129  1.00  0.00    -0.374 N 
HETATM   21  H9  UNL     1      26.360   6.403  50.978  1.00  0.00     0.161 HD
BRANCH  20  22
HETATM   22  C12 UNL     1      26.388   5.763  48.733  1.00  0.00     0.128 C 
BRANCH  22  23
HETATM   23  C13 UNL     1      27.643   4.994  48.643  1.00  0.00     0.030 C 
HETATM   24  C14 UNL     1      28.821   5.431  48.271  1.00  0.00     0.239 C 
HETATM   25 CL1  UNL     1      28.848   7.115  47.845  1.00  0.00    -0.255 Cl
ENDBRANCH  22  23
ENDBRANCH  20  22
ENDBRANCH  16  20
ENDBRANCH   1  14
TORSDOF 7
ENDMDL
MODEL 3
REMARK VINA RESULT:      -7.0      2.624      3.799
REMARK  7 active torsions:
REMARK  status: ('A' for Active; 'I' for Inactive)
REMARK    1  A    between atoms: C3_3  and  N1_5 
REMARK    2  A    between atoms: N1_5  and  C4_6 
REMARK    3  A    between atoms: C8_10  and  O2_11 
REMARK    4  A    between atoms: O2_11  and  C9_12 
REMARK    5  A    between atoms: C11_14  and  N2_15 
REMARK    6  A    between atoms: N2_15  and  C12_16 
REMARK    7  A    between atoms: C12_16  and  C13_17 
ROOT
HETATM    1  O2  UNL     1      23.511   1.894  51.457  1.00  0.00    -0.292 OA
ENDROOT
BRANCH   1   2
HETATM    2  C8  UNL     1      23.506   0.965  52.479  1.00  0.00     0.080 A 
HETATM    3  C7  UNL     1      22.452   0.459  53.192  1.00  0.00     0.037 A 
HETATM    4  C6  UNL     1      22.551  -0.470  54.200  1.00  0.00     0.005 A 
HETATM    5  C5  UNL     1      23.854  -0.899  54.479  1.00  0.00     0.029 A 
HETATM    6  C4  UNL     1      24.944  -0.418  53.785  1.00  0.00     0.035 A 
HETATM    7  C16 UNL     1      24.791   0.516  52.779  1.00  0.00     0.066 A 
BRANCH   6   8
HETATM    8  N1  UNL     1      26.136  -1.005  54.259  1.00  0.00    -0.358 N 
HETATM    9  H4  UNL     1      26.616  -1.868  54.573  1.00  0.00     0.166 HD
BRANCH   8  10
HETATM   10  C3  UNL     1      27.153   0.005  54.368  1.00  0.00     0.037 A 
HETATM   11  C2  UNL     1      28.519   0.087  53.841  1.00  0.00     0.047 A 
HETATM   12  C1  UNL     1      29.027   1.250  54.245  1.00  0.00     0.012 A 
HETATM   13  O1  UNL     1      27.605   1.094  54.753  1.00  0.00     0.000 OA
ENDBRANCH   8  10
ENDBRANCH   6   8
ENDBRANCH   1   2
BRANCH   1  14
HETATM   14  C9  UNL     1      22.855   3.087  51.449  1.00  0.00     0.174 A 
HETATM   15  C10 UNL     1      23.746   4.124  51.687  1.00  0.00     0.108 A 
HETATM   16  C11 UNL     1      23.348   5.461  51.735  1.00  0.00     0.129 A 
HETATM   17  N3  UNL     1      22.040   5.691  51.535  1.00  0.00    -0.225 NA
HETATM   18  C15 UNL     1      21.183   4.674  51.303  1.00  0.00     0.238 A 
HETATM   19  N4  UNL     1      21.561   3.388  51.256  1.00  0.00    -0.217 NA
BRANCH  16  20
HETATM   20  N2  UNL     1      24.209   6.559  51.968  1.00  0.00    -0.374 N 
HETATM   21  H9  UNL     1      24.602   6.430  52.947  1.00  0.00     0.161 HD
BRANCH  20  22
HETATM   22  C12 UNL     1      24.361   7.549  50.912  1.00  0.00     0.128 C 
BRANCH  22  23
HETATM   23  C13 UNL     1      25.722   7.454  50.352  1.00  0.00     0.030 C 
HETATM   24  C14 UNL     1      26.103   6.786  49.291  1.00  0.00     0.239 C 
HETATM   25 CL1  UNL     1      24.817   5.933  48.494  1.00  0.00    -0.255 Cl
ENDBRANCH  22  23
ENDBRANCH  20  22
ENDBRANCH  16  20
ENDBRANCH   1  14
TORSDOF 7
ENDMDL
MODEL 4
REMARK VINA RESULT:      -7.0      3.186      4.555
REMARK  7 active torsions:
REMARK  status: ('A' for Active; 'I' for Inactive)
REMARK    1  A    between atoms: C3_3  and  N1_5 
REMARK    2  A    between atoms: N1_5  and  C4_6 
REMARK    3  A    between atoms: C8_10  and  O2_11 
REMARK    4  A    between atoms: O2_11  and  C9_12 
REMARK    5  A    between atoms: C11_14  and  N2_15 
REMARK    6  A    between atoms: N2_15  and  C12_16 
REMARK    7  A    between atoms: C12_16  and  C13_17 
ROOT
HETATM    1  O2  UNL     1      22.666   0.604  51.754  1.00  0.00    -0.292 OA
ENDROOT
BRANCH   1   2
HETATM    2  C8  UNL     1      22.780  -0.047  52.966  1.00  0.00     0.080 A 
HETATM    3  C7  UNL     1      21.806  -0.605  53.751  1.00  0.00     0.037 A 
HETATM    4  C6  UNL     1      22.022  -1.236  54.953  1.00  0.00     0.005 A 
HETATM    5  C5  UNL     1      23.361  -1.283  55.360  1.00  0.00     0.029 A 
HETATM    6  C4  UNL     1      24.373  -0.736  54.601  1.00  0.00     0.035 A 
HETATM    7  C16 UNL     1      24.104  -0.112  53.399  1.00  0.00     0.066 A 
BRANCH   6   8
HETATM    8  N1  UNL     1      25.622  -0.914  55.234  1.00  0.00    -0.358 N 
HETATM    9  H4  UNL     1      26.190  -1.471  55.898  1.00  0.00     0.166 HD
BRANCH   8  10
HETATM   10  C3  UNL     1      26.531   0.105  54.785  1.00  0.00     0.037 A 
HETATM   11  C2  UNL     1      27.736   0.049  53.950  1.00  0.00     0.047 A 
HETATM   12  C1  UNL     1      28.200   1.294  53.847  1.00  0.00     0.012 A 
HETATM   13  O1  UNL     1      26.944   1.271  54.700  1.00  0.00     0.000 OA
ENDBRANCH   8  10
ENDBRANCH   6   8
ENDBRANCH   1   2
BRANCH   1  14
HETATM   14  C9  UNL     1      22.568   1.949  51.566  1.00  0.00     0.174 A 
HETATM   15  C10 UNL     1      23.500   2.370  50.629  1.00  0.00     0.108 A 
HETATM   16  C11 UNL     1      23.625   3.705  50.240  1.00  0.00     0.129 A 
HETATM   17  N3  UNL     1      22.784   4.569  50.831  1.00  0.00    -0.225 NA
HETATM   18  C15 UNL     1      21.880   4.147  51.741  1.00  0.00     0.238 A 
HETATM   19  N4  UNL     1      21.757   2.866  52.117  1.00  0.00    -0.217 NA
BRANCH  16  20
HETATM   20  N2  UNL     1      24.550   4.193  49.287  1.00  0.00    -0.374 N 
HETATM   21  H9  UNL     1      24.192   3.883  48.335  1.00  0.00     0.161 HD
BRANCH  20  22
HETATM   22  C12 UNL     1      25.696   4.950  49.766  1.00  0.00     0.128 C 
BRANCH  22  23
HETATM   23  C13 UNL     1      26.933   4.339  49.244  1.00  0.00     0.030 C 
HETATM   24  C14 UNL     1      27.861   4.912  48.519  1.00  0.00     0.239 C 
HETATM   25 CL1  UNL     1      27.547   6.583  48.160  1.00  0.00    -0.255 Cl
ENDBRANCH  22  23
ENDBRANCH  20  22
ENDBRANCH  16  20
ENDBRANCH   1  14
TORSDOF 7
ENDMDL
MODEL 5
REMARK VINA RESULT:      -6.7      2.764      6.348
REMARK  7 active torsions:
REMARK  status: ('A' for Active; 'I' for Inactive)
REMARK    1  A    between atoms: C3_3  and  N1_5 
REMARK    2  A    between atoms: N1_5  and  C4_6 
REMARK    3  A    between atoms: C8_10  and  O2_11 
REMARK    4  A    between atoms: O2_11  and  C9_12 
REMARK    5  A    between atoms: C11_14  and  N2_15 
REMARK    6  A    between atoms: N2_15  and  C12_16 
REMARK    7  A    between atoms: C12_16  and  C13_17 
ROOT
HETATM    1  O2  UNL     1      26.553   2.919  49.753  1.00  0.00    -0.292 OA
ENDROOT
BRANCH   1   2
HETATM    2  C8  UNL     1      26.470   4.219  49.292  1.00  0.00     0.080 A 
HETATM    3  C7  UNL     1      25.388   5.057  49.239  1.00  0.00     0.037 A 
HETATM    4  C6  UNL     1      25.407   6.344  48.758  1.00  0.00     0.005 A 
HETATM    5  C5  UNL     1      26.655   6.782  48.297  1.00  0.00     0.029 A 
HETATM    6  C4  UNL     1      27.770   5.972  48.333  1.00  0.00     0.035 A 
HETATM    7  C16 UNL     1      27.699   4.685  48.827  1.00  0.00     0.066 A 
BRANCH   6   8
HETATM    8  N1  UNL     1      28.893   6.647  47.810  1.00  0.00    -0.358 N 
HETATM    9  H4  UNL     1      29.247   7.438  47.242  1.00  0.00     0.166 HD
BRANCH   8  10
HETATM   10  C3  UNL     1      30.091   5.969  48.224  1.00  0.00     0.037 A 
HETATM   11  C2  UNL     1      31.157   5.304  47.468  1.00  0.00     0.047 A 
HETATM   12  C1  UNL     1      32.034   4.836  48.354  1.00  0.00     0.012 A 
HETATM   13  O1  UNL     1      30.896   5.544  49.066  1.00  0.00     0.000 OA
ENDBRANCH   8  10
ENDBRANCH   6   8
ENDBRANCH   1   2
BRANCH   1  14
HETATM   14  C9  UNL     1      26.588   2.527  51.057  1.00  0.00     0.174 A 
HETATM   15  C10 UNL     1      25.312   2.191  51.488  1.00  0.00     0.108 A 
HETATM   16  C11 UNL     1      25.049   1.753  52.787  1.00  0.00     0.129 A 
HETATM   17  N3  UNL     1      26.111   1.674  53.605  1.00  0.00    -0.225 NA
HETATM   18  C15 UNL     1      27.347   2.003  53.174  1.00  0.00     0.238 A 
HETATM   19  N4  UNL     1      27.604   2.424  51.927  1.00  0.00    -0.217 NA
BRANCH  16  20
HETATM   20  N2  UNL     1      23.775   1.391  53.283  1.00  0.00    -0.374 N 
HETATM   21  H9  UNL     1      23.436   2.211  53.868  1.00  0.00     0.161 HD
BRANCH  20  22
HETATM   22  C12 UNL     1      23.241   0.086  52.921  1.00  0.00     0.128 C 
BRANCH  22  23
HETATM   23  C13 UNL     1      22.865  -0.641  54.148  1.00  0.00     0.030 C 
HETATM   24  C14 UNL     1      21.719  -0.597  54.781  1.00  0.00     0.239 C 
HETATM   25 CL1  UNL     1      20.546   0.454  54.048  1.00  0.00    -0.255 Cl
ENDBRANCH  22  23
ENDBRANCH  20  22
ENDBRANCH  16  20
ENDBRANCH   1  14
TORSDOF 7
ENDMDL
MODEL 6
REMARK VINA RESULT:      -6.7      2.348      6.804
REMARK  7 active torsions:
REMARK  status: ('A' for Active; 'I' for Inactive)
REMARK    1  A    between atoms: C3_3  and  N1_5 
REMARK    2  A    between atoms: N1_5  and  C4_6 
REMARK    3  A    between atoms: C8_10  and  O2_11 
REMARK    4  A    between atoms: O2_11  and  C9_12 
REMARK    5  A    between atoms: C11_14  and  N2_15 
REMARK    6  A    between atoms: N2_15  and  C12_16 
REMARK    7  A    between atoms: C12_16  and  C13_17 
ROOT
HETATM    1  O2  UNL     1      26.529   2.370  50.426  1.00  0.00    -0.292 OA
ENDROOT
BRANCH   1   2
HETATM    2  C8  UNL     1      26.398   3.641  49.902  1.00  0.00     0.080 A 
HETATM    3  C7  UNL     1      27.241   4.333  49.073  1.00  0.00     0.037 A 
HETATM    4  C6  UNL     1      27.020   5.606  48.603  1.00  0.00     0.005 A 
HETATM    5  C5  UNL     1      25.825   6.194  49.035  1.00  0.00     0.029 A 
HETATM    6  C4  UNL     1      24.947   5.533  49.868  1.00  0.00     0.035 A 
HETATM    7  C16 UNL     1      25.215   4.254  50.313  1.00  0.00     0.066 A 
BRANCH   6   8
HETATM    8  N1  UNL     1      23.828   6.343  50.155  1.00  0.00    -0.358 N 
HETATM    9  H4  UNL     1      23.447   7.302  50.242  1.00  0.00     0.166 HD
BRANCH   8  10
HETATM   10  C3  UNL     1      22.704   5.505  50.472  1.00  0.00     0.037 A 
HETATM   11  C2  UNL     1      21.970   5.273  51.721  1.00  0.00     0.047 A 
HETATM   12  C1  UNL     1      21.009   4.391  51.454  1.00  0.00     0.012 A 
HETATM   13  O1  UNL     1      21.815   4.684  50.201  1.00  0.00     0.000 OA
ENDBRANCH   8  10
ENDBRANCH   6   8
ENDBRANCH   1   2
BRANCH   1  14
HETATM   14  C9  UNL     1      26.893   2.056  51.699  1.00  0.00     0.174 A 
HETATM   15  C10 UNL     1      25.960   1.199  52.266  1.00  0.00     0.108 A 
HETATM   16  C11 UNL     1      26.080   0.712  53.569  1.00  0.00     0.129 A 
HETATM   17  N3  UNL     1      27.161   1.125  54.251  1.00  0.00    -0.225 NA
HETATM   18  C15 UNL     1      28.062   1.959  53.689  1.00  0.00     0.238 A 
HETATM   19  N4  UNL     1      27.950   2.428  52.438  1.00  0.00    -0.217 NA
BRANCH  16  20
HETATM   20  N2  UNL     1      25.168  -0.166  54.198  1.00  0.00    -0.374 N 
HETATM   21  H9  UNL     1      25.589  -0.411  55.143  1.00  0.00     0.161 HD
BRANCH  20  22
HETATM   22  C12 UNL     1      23.951  -0.522  53.483  1.00  0.00     0.128 C 
BRANCH  22  23
HETATM   23  C13 UNL     1      22.921  -0.932  54.455  1.00  0.00     0.030 C 
HETATM   24  C14 UNL     1      21.712  -0.445  54.590  1.00  0.00     0.239 C 
HETATM   25 CL1  UNL     1      21.334   0.828  53.470  1.00  0.00    -0.255 Cl
ENDBRANCH  22  23
ENDBRANCH  20  22
ENDBRANCH  16  20
ENDBRANCH   1  14
TORSDOF 7
ENDMDL
MODEL 7
REMARK VINA RESULT:      -6.6      3.116      7.292
REMARK  7 active torsions:
REMARK  status: ('A' for Active; 'I' for Inactive)
REMARK    1  A    between atoms: C3_3  and  N1_5 
REMARK    2  A    between atoms: N1_5  and  C4_6 
REMARK    3  A    between atoms: C8_10  and  O2_11 
REMARK    4  A    between atoms: O2_11  and  C9_12 
REMARK    5  A    between atoms: C11_14  and  N2_15 
REMARK    6  A    between atoms: N2_15  and  C12_16 
REMARK    7  A    between atoms: C12_16  and  C13_17 
ROOT
HETATM    1  O2  UNL     1      26.421   3.253  49.736  1.00  0.00    -0.292 OA
ENDROOT
BRANCH   1   2
HETATM    2  C8  UNL     1      26.598   4.538  49.261  1.00  0.00     0.080 A 
HETATM    3  C7  UNL     1      25.737   5.604  49.287  1.00  0.00     0.037 A 
HETATM    4  C6  UNL     1      26.009   6.853  48.784  1.00  0.00     0.005 A 
HETATM    5  C5  UNL     1      27.278   6.994  48.210  1.00  0.00     0.029 A 
HETATM    6  C4  UNL     1      28.176   5.949  48.164  1.00  0.00     0.035 A 
HETATM    7  C16 UNL     1      27.855   4.711  48.685  1.00  0.00     0.066 A 
BRANCH   6   8
HETATM    8  N1  UNL     1      29.375   6.349  47.535  1.00  0.00    -0.358 N 
HETATM    9  H4  UNL     1      29.977   6.294  46.694  1.00  0.00     0.166 HD
BRANCH   8  10
HETATM   10  C3  UNL     1      30.110   7.213  48.419  1.00  0.00     0.037 A 
HETATM   11  C2  UNL     1      31.479   7.151  48.941  1.00  0.00     0.047 A 
HETATM   12  C1  UNL     1      31.647   8.213  49.727  1.00  0.00     0.012 A 
HETATM   13  O1  UNL     1      30.245   8.209  49.144  1.00  0.00     0.000 OA
ENDBRANCH   8  10
ENDBRANCH   6   8
ENDBRANCH   1   2
BRANCH   1  14
HETATM   14  C9  UNL     1      25.843   2.903  50.918  1.00  0.00     0.174 A 
HETATM   15  C10 UNL     1      26.816   2.505  51.824  1.00  0.00     0.108 A 
HETATM   16  C11 UNL     1      26.509   2.090  53.122  1.00  0.00     0.129 A 
HETATM   17  N3  UNL     1      25.206   2.098  53.447  1.00  0.00    -0.225 NA
HETATM   18  C15 UNL     1      24.270   2.489  52.556  1.00  0.00     0.238 A 
HETATM   19  N4  UNL     1      24.560   2.888  51.310  1.00  0.00    -0.217 NA
BRANCH  16  20
HETATM   20  N2  UNL     1      27.454   1.679  54.090  1.00  0.00    -0.374 N 
HETATM   21  H9  UNL     1      27.690   2.542  54.666  1.00  0.00     0.161 HD
BRANCH  20  22
HETATM   22  C12 UNL     1      27.871   0.285  54.097  1.00  0.00     0.128 C 
BRANCH  22  23
HETATM   23  C13 UNL     1      29.335   0.216  53.938  1.00  0.00     0.030 C 
HETATM   24  C14 UNL     1      30.049  -0.816  53.560  1.00  0.00     0.239 C 
HETATM   25 CL1  UNL     1      29.111  -2.239  53.224  1.00  0.00    -0.255 Cl
ENDBRANCH  22  23
ENDBRANCH  20  22
ENDBRANCH  16  20
ENDBRANCH   1  14
TORSDOF 7
ENDMDL
MODEL 8
REMARK VINA RESULT:      -6.4      2.784      7.727
REMARK  7 active torsions:
REMARK  status: ('A' for Active; 'I' for Inactive)
REMARK    1  A    between atoms: C3_3  and  N1_5 
REMARK    2  A    between atoms: N1_5  and  C4_6 
REMARK    3  A    between atoms: C8_10  and  O2_11 
REMARK    4  A    between atoms: O2_11  and  C9_12 
REMARK    5  A    between atoms: C11_14  and  N2_15 
REMARK    6  A    between atoms: N2_15  and  C12_16 
REMARK    7  A    between atoms: C12_16  and  C13_17 
ROOT
HETATM    1  O2  UNL     1      26.832   3.021  49.670  1.00  0.00    -0.292 OA
ENDROOT
BRANCH   1   2
HETATM    2  C8  UNL     1      26.966   4.301  49.170  1.00  0.00     0.080 A 
HETATM    3  C7  UNL     1      28.061   4.911  48.618  1.00  0.00     0.037 A 
HETATM    4  C6  UNL     1      28.094   6.201  48.145  1.00  0.00     0.005 A 
HETATM    5  C5  UNL     1      26.887   6.903  48.263  1.00  0.00     0.029 A 
HETATM    6  C4  UNL     1      25.761   6.327  48.811  1.00  0.00     0.035 A 
HETATM    7  C16 UNL     1      25.779   5.025  49.272  1.00  0.00     0.066 A 
BRANCH   6   8
HETATM    8  N1  UNL     1      24.686   7.242  48.816  1.00  0.00    -0.358 N 
HETATM    9  H4  UNL     1      24.183   7.990  49.325  1.00  0.00     0.166 HD
BRANCH   8  10
HETATM   10  C3  UNL     1      23.939   7.103  47.595  1.00  0.00     0.037 A 
HETATM   11  C2  UNL     1      22.803   6.251  47.229  1.00  0.00     0.047 A 
HETATM   12  C1  UNL     1      22.499   6.525  45.962  1.00  0.00     0.012 A 
HETATM   13  O1  UNL     1      23.672   7.375  46.416  1.00  0.00     0.000 OA
ENDBRANCH   8  10
ENDBRANCH   6   8
ENDBRANCH   1   2
BRANCH   1  14
HETATM   14  C9  UNL     1      26.092   2.650  50.751  1.00  0.00     0.174 A 
HETATM   15  C10 UNL     1      26.920   2.428  51.843  1.00  0.00     0.108 A 
HETATM   16  C11 UNL     1      26.430   2.035  53.090  1.00  0.00     0.129 A 
HETATM   17  N3  UNL     1      25.098   1.883  53.175  1.00  0.00    -0.225 NA
HETATM   18  C15 UNL     1      24.304   2.104  52.106  1.00  0.00     0.238 A 
HETATM   19  N4  UNL     1      24.770   2.481  50.907  1.00  0.00    -0.217 NA
BRANCH  16  20
HETATM   20  N2  UNL     1      27.221   1.800  54.238  1.00  0.00    -0.374 N 
HETATM   21  H9  UNL     1      27.621   2.742  54.526  1.00  0.00     0.161 HD
BRANCH  20  22
HETATM   22  C12 UNL     1      27.313   0.438  54.742  1.00  0.00     0.128 C 
BRANCH  22  23
HETATM   23  C13 UNL     1      28.498  -0.216  54.156  1.00  0.00     0.030 C 
HETATM   24  C14 UNL     1      28.524  -1.115  53.204  1.00  0.00     0.239 C 
HETATM   25 CL1  UNL     1      26.954  -1.551  52.601  1.00  0.00    -0.255 Cl
ENDBRANCH  22  23
ENDBRANCH  20  22
ENDBRANCH  16  20
ENDBRANCH   1  14
TORSDOF 7
ENDMDL
MODEL 9
REMARK VINA RESULT:      -6.3      3.390      7.969
REMARK  7 active torsions:
REMARK  status: ('A' for Active; 'I' for Inactive)
REMARK    1  A    between atoms: C3_3  and  N1_5 
REMARK    2  A    between atoms: N1_5  and  C4_6 
REMARK    3  A    between atoms: C8_10  and  O2_11 
REMARK    4  A    between atoms: O2_11  and  C9_12 
REMARK    5  A    between atoms: C11_14  and  N2_15 
REMARK    6  A    between atoms: N2_15  and  C12_16 
REMARK    7  A    between atoms: C12_16  and  C13_17 
ROOT
HETATM    1  O2  UNL     1      23.441   2.087  50.488  1.00  0.00    -0.292 OA
ENDROOT
BRANCH   1   2
HETATM    2  C8  UNL     1      24.162   3.251  50.308  1.00  0.00     0.080 A 
HETATM    3  C7  UNL     1      25.275   3.478  49.542  1.00  0.00     0.037 A 
HETATM    4  C6  UNL     1      25.924   4.684  49.428  1.00  0.00     0.005 A 
HETATM    5  C5  UNL     1      25.364   5.728  50.173  1.00  0.00     0.029 A 
HETATM    6  C4  UNL     1      24.244   5.544  50.956  1.00  0.00     0.035 A 
HETATM    7  C16 UNL     1      23.627   4.312  51.037  1.00  0.00     0.066 A 
BRANCH   6   8
HETATM    8  N1  UNL     1      23.886   6.746  51.603  1.00  0.00    -0.358 N 
HETATM    9  H4  UNL     1      23.886   7.295  52.482  1.00  0.00     0.166 HD
BRANCH   8  10
HETATM   10  C3  UNL     1      23.231   7.615  50.664  1.00  0.00     0.037 A 
HETATM   11  C2  UNL     1      21.825   7.755  50.269  1.00  0.00     0.047 A 
HETATM   12  C1  UNL     1      21.770   8.718  49.350  1.00  0.00     0.012 A 
HETATM   13  O1  UNL     1      23.202   8.516  49.812  1.00  0.00     0.000 OA
ENDBRANCH   8  10
ENDBRANCH   6   8
ENDBRANCH   1   2
BRANCH   1  14
HETATM   14  C9  UNL     1      23.370   1.352  51.632  1.00  0.00     0.174 A 
HETATM   15  C10 UNL     1      24.638   0.937  52.014  1.00  0.00     0.108 A 
HETATM   16  C11 UNL     1      24.865   0.165  53.154  1.00  0.00     0.129 A 
HETATM   17  N3  UNL     1      23.776  -0.158  53.870  1.00  0.00    -0.225 NA
HETATM   18  C15 UNL     1      22.547   0.252  53.489  1.00  0.00     0.238 A 
HETATM   19  N4  UNL     1      22.325   0.994  52.394  1.00  0.00    -0.217 NA
BRANCH  16  20
HETATM   20  N2  UNL     1      26.132  -0.281  53.597  1.00  0.00    -0.374 N 
HETATM   21  H9  UNL     1      26.017  -0.545  54.621  1.00  0.00     0.161 HD
BRANCH  20  22
HETATM   22  C12 UNL     1      27.232  -0.286  52.644  1.00  0.00     0.128 C 
BRANCH  22  23
HETATM   23  C13 UNL     1      28.495  -0.032  53.362  1.00  0.00     0.030 C 
HETATM   24  C14 UNL     1      29.420  -0.904  53.681  1.00  0.00     0.239 C 
HETATM   25 CL1  UNL     1      29.064  -2.528  53.178  1.00  0.00    -0.255 Cl
ENDBRANCH  22  23
ENDBRANCH  20  22
ENDBRANCH  16  20
ENDBRANCH   1  14
TORSDOF 7
ENDMDL
