MODEL 1
REMARK VINA RESULT:      -8.0      0.000      0.000
REMARK  3 active torsions:
REMARK  status: ('A' for Active; 'I' for Inactive)
REMARK    1  A    between atoms: O1_2  and  C2_3 
REMARK    2  A    between atoms: N3_11  and  C8_12 
REMARK    3  A    between atoms: C10_14  and  C11_15 
ROOT
HETATM    1  C2  UNL     1      20.755  -0.153  52.971  1.00  0.00     0.051 A 
HETATM    2  C3  UNL     1      21.680   0.275  52.126  1.00  0.00     0.035 A 
HETATM    3  C4  UNL     1      23.073   0.110  52.529  1.00  0.00     0.036 A 
HETATM    4  C5  UNL     1      23.412  -0.439  53.684  1.00  0.00     0.078 A 
HETATM    5  C6  UNL     1      22.365  -0.898  54.590  1.00  0.00     0.070 A 
HETATM    6  N1  UNL     1      22.807  -1.416  55.686  1.00  0.00    -0.242 NA
HETATM    7  C7  UNL     1      24.191  -1.539  56.006  1.00  0.00     0.255 A 
HETATM    8  N2  UNL     1      25.147  -1.142  55.222  1.00  0.00    -0.165 NA
HETATM    9  N3  UNL     1      24.787  -0.561  53.999  1.00  0.00    -0.262 N 
HETATM   10  C16 UNL     1      20.922  -0.790  54.302  1.00  0.00     0.126 A 
ENDROOT
BRANCH   9  11
HETATM   11  C8  UNL     1      25.868  -0.132  53.155  1.00  0.00     0.116 A 
HETATM   12  C9  UNL     1      26.476  -1.201  52.283  1.00  0.00     0.035 A 
HETATM   13  C10 UNL     1      27.266  -0.607  53.379  1.00  0.00     0.024 A 
BRANCH  13  14
HETATM   14  C11 UNL     1      28.363   0.379  52.989  1.00  0.00     0.037 A 
HETATM   15  C12 UNL     1      27.837   1.740  52.816  1.00  0.00    -0.018 A 
HETATM   16  C13 UNL     1      28.490   2.530  53.656  1.00  0.00    -0.004 A 
HETATM   17  C14 UNL     1      29.476   1.764  54.431  1.00  0.00    -0.004 A 
HETATM   18  C15 UNL     1      29.401   0.483  54.034  1.00  0.00    -0.018 A 
ENDBRANCH  13  14
ENDBRANCH   9  11
BRANCH   1  19
HETATM   19  O1  UNL     1      19.426   0.013  52.567  1.00  0.00    -0.360 OA
HETATM   20  C1  UNL     1      19.013   0.517  51.336  1.00  0.00     0.209 C 
ENDBRANCH   1  19
TORSDOF 3
ENDMDL
MODEL 2
REMARK VINA RESULT:      -7.4      2.842      3.445
REMARK  3 active torsions:
REMARK  status: ('A' for Active; 'I' for Inactive)
REMARK    1  A    between atoms: O1_2  and  C2_3 
REMARK    2  A    between atoms: N3_11  and  C8_12 
REMARK    3  A    between atoms: C10_14  and  C11_15 
ROOT
HETATM    1  C2  UNL     1      22.191   4.227  52.078  1.00  0.00     0.051 A 
HETATM    2  C3  UNL     1      23.500   4.300  52.261  1.00  0.00     0.035 A 
HETATM    3  C4  UNL     1      24.193   3.059  52.590  1.00  0.00     0.036 A 
HETATM    4  C5  UNL     1      23.557   1.905  52.706  1.00  0.00     0.078 A 
HETATM    5  C6  UNL     1      22.113   1.864  52.498  1.00  0.00     0.070 A 
HETATM    6  N1  UNL     1      21.596   0.690  52.635  1.00  0.00    -0.242 NA
HETATM    7  C7  UNL     1      22.346  -0.478  52.961  1.00  0.00     0.255 A 
HETATM    8  N2  UNL     1      23.631  -0.475  53.152  1.00  0.00    -0.165 NA
HETATM    9  N3  UNL     1      24.305   0.747  53.030  1.00  0.00    -0.262 N 
HETATM   10  C16 UNL     1      21.296   3.045  52.160  1.00  0.00     0.126 A 
ENDROOT
BRANCH   9  11
HETATM   11  C8  UNL     1      25.724   0.716  53.246  1.00  0.00     0.116 A 
HETATM   12  C9  UNL     1      26.563   0.427  52.027  1.00  0.00     0.035 A 
HETATM   13  C10 UNL     1      26.503  -0.552  53.129  1.00  0.00     0.024 A 
BRANCH  13  14
HETATM   14  C11 UNL     1      27.727  -0.657  54.033  1.00  0.00     0.037 A 
HETATM   15  C12 UNL     1      28.872  -1.255  53.333  1.00  0.00    -0.018 A 
HETATM   16  C13 UNL     1      29.867  -0.382  53.377  1.00  0.00    -0.004 A 
HETATM   17  C14 UNL     1      29.462   0.834  54.096  1.00  0.00    -0.004 A 
HETATM   18  C15 UNL     1      28.187   0.670  54.487  1.00  0.00    -0.018 A 
ENDBRANCH  13  14
ENDBRANCH   9  11
BRANCH   1  19
HETATM   19  O1  UNL     1      21.544   5.426  51.762  1.00  0.00    -0.360 OA
HETATM   20  C1  UNL     1      22.060   6.434  50.951  1.00  0.00     0.209 C 
ENDBRANCH   1  19
TORSDOF 3
ENDMDL
MODEL 3
REMARK VINA RESULT:      -7.3      3.157      6.848
REMARK  3 active torsions:
REMARK  status: ('A' for Active; 'I' for Inactive)
REMARK    1  A    between atoms: O1_2  and  C2_3 
REMARK    2  A    between atoms: N3_11  and  C8_12 
REMARK    3  A    between atoms: C10_14  and  C11_15 
ROOT
HETATM    1  C2  UNL     1      27.699   0.086  53.668  1.00  0.00     0.051 A 
HETATM    2  C3  UNL     1      26.481  -0.420  53.781  1.00  0.00     0.035 A 
HETATM    3  C4  UNL     1      25.423   0.216  53.001  1.00  0.00     0.036 A 
HETATM    4  C5  UNL     1      25.656   1.253  52.213  1.00  0.00     0.078 A 
HETATM    5  C6  UNL     1      27.011   1.783  52.115  1.00  0.00     0.070 A 
HETATM    6  N1  UNL     1      27.124   2.793  51.319  1.00  0.00    -0.242 NA
HETATM    7  C7  UNL     1      26.036   3.358  50.591  1.00  0.00     0.255 A 
HETATM    8  N2  UNL     1      24.818   2.909  50.656  1.00  0.00    -0.165 NA
HETATM    9  N3  UNL     1      24.573   1.811  51.491  1.00  0.00    -0.262 N 
HETATM   10  C16 UNL     1      28.166   1.233  52.849  1.00  0.00     0.126 A 
ENDROOT
BRANCH   9  11
HETATM   11  C8  UNL     1      23.218   1.339  51.540  1.00  0.00     0.116 A 
HETATM   12  C9  UNL     1      22.154   2.406  51.501  1.00  0.00     0.035 A 
HETATM   13  C10 UNL     1      22.344   1.601  52.722  1.00  0.00     0.024 A 
BRANCH  13  14
HETATM   14  C11 UNL     1      21.299   0.528  53.016  1.00  0.00     0.037 A 
HETATM   15  C12 UNL     1      21.791  -0.817  52.686  1.00  0.00    -0.018 A 
HETATM   16  C13 UNL     1      21.733  -1.545  53.791  1.00  0.00    -0.004 A 
HETATM   17  C14 UNL     1      21.209  -0.752  54.911  1.00  0.00    -0.004 A 
HETATM   18  C15 UNL     1      20.951   0.483  54.450  1.00  0.00    -0.018 A 
ENDBRANCH  13  14
ENDBRANCH   9  11
BRANCH   1  19
HETATM   19  O1  UNL     1      28.698  -0.536  54.423  1.00  0.00    -0.360 OA
HETATM   20  C1  UNL     1      29.855  -1.117  53.909  1.00  0.00     0.209 C 
ENDBRANCH   1  19
TORSDOF 3
ENDMDL
MODEL 4
REMARK VINA RESULT:      -7.2      2.070      3.043
REMARK  3 active torsions:
REMARK  status: ('A' for Active; 'I' for Inactive)
REMARK    1  A    between atoms: O1_2  and  C2_3 
REMARK    2  A    between atoms: N3_11  and  C8_12 
REMARK    3  A    between atoms: C10_14  and  C11_15 
ROOT
HETATM    1  C2  UNL     1      20.778  -0.326  53.473  1.00  0.00     0.051 A 
HETATM    2  C3  UNL     1      21.933  -0.843  53.861  1.00  0.00     0.035 A 
HETATM    3  C4  UNL     1      23.135  -0.061  53.589  1.00  0.00     0.036 A 
HETATM    4  C5  UNL     1      23.090   1.113  52.982  1.00  0.00     0.078 A 
HETATM    5  C6  UNL     1      21.798   1.651  52.568  1.00  0.00     0.070 A 
HETATM    6  N1  UNL     1      21.870   2.801  51.986  1.00  0.00    -0.242 NA
HETATM    7  C7  UNL     1      23.090   3.502  51.756  1.00  0.00     0.255 A 
HETATM    8  N2  UNL     1      24.255   3.051  52.112  1.00  0.00    -0.165 NA
HETATM    9  N3  UNL     1      24.303   1.807  52.756  1.00  0.00    -0.262 N 
HETATM   10  C16 UNL     1      20.512   0.962  52.784  1.00  0.00     0.126 A 
ENDROOT
BRANCH   9  11
HETATM   11  C8  UNL     1      25.605   1.337  53.137  1.00  0.00     0.116 A 
HETATM   12  C9  UNL     1      26.602   1.199  52.015  1.00  0.00     0.035 A 
HETATM   13  C10 UNL     1      26.106  -0.003  52.711  1.00  0.00     0.024 A 
BRANCH  13  14
HETATM   14  C11 UNL     1      27.061  -0.688  53.684  1.00  0.00     0.037 A 
HETATM   15  C12 UNL     1      28.275  -1.166  53.010  1.00  0.00    -0.018 A 
HETATM   16  C13 UNL     1      29.312  -0.589  53.598  1.00  0.00    -0.004 A 
HETATM   17  C14 UNL     1      28.869   0.298  54.683  1.00  0.00    -0.004 A 
HETATM   18  C15 UNL     1      27.528   0.239  54.735  1.00  0.00    -0.018 A 
ENDBRANCH  13  14
ENDBRANCH   9  11
BRANCH   1  19
HETATM   19  O1  UNL     1      19.638  -1.089  53.742  1.00  0.00    -0.360 OA
HETATM   20  C1  UNL     1      18.412  -0.968  53.092  1.00  0.00     0.209 C 
ENDBRANCH   1  19
TORSDOF 3
ENDMDL
MODEL 5
REMARK VINA RESULT:      -7.2      2.383      7.046
REMARK  3 active torsions:
REMARK  status: ('A' for Active; 'I' for Inactive)
REMARK    1  A    between atoms: O1_2  and  C2_3 
REMARK    2  A    between atoms: N3_11  and  C8_12 
REMARK    3  A    between atoms: C10_14  and  C11_15 
ROOT
HETATM    1  C2  UNL     1      26.642   0.733  53.189  1.00  0.00     0.051 A 
HETATM    2  C3  UNL     1      25.670   1.024  52.338  1.00  0.00     0.035 A 
HETATM    3  C4  UNL     1      24.338   0.515  52.652  1.00  0.00     0.036 A 
HETATM    4  C5  UNL     1      24.097  -0.208  53.734  1.00  0.00     0.078 A 
HETATM    5  C6  UNL     1      25.194  -0.510  54.647  1.00  0.00     0.070 A 
HETATM    6  N1  UNL     1      24.847  -1.220  55.668  1.00  0.00    -0.242 NA
HETATM    7  C7  UNL     1      23.518  -1.681  55.902  1.00  0.00     0.255 A 
HETATM    8  N2  UNL     1      22.521  -1.430  55.109  1.00  0.00    -0.165 NA
HETATM    9  N3  UNL     1      22.777  -0.664  53.963  1.00  0.00    -0.262 N 
HETATM   10  C16 UNL     1      26.583  -0.055  54.446  1.00  0.00     0.126 A 
ENDROOT
BRANCH   9  11
HETATM   11  C8  UNL     1      21.654  -0.403  53.108  1.00  0.00     0.116 A 
HETATM   12  C9  UNL     1      20.835   0.813  53.459  1.00  0.00     0.035 A 
HETATM   13  C10 UNL     1      20.251  -0.534  53.602  1.00  0.00     0.024 A 
BRANCH  13  14
HETATM   14  C11 UNL     1      19.224  -0.960  52.558  1.00  0.00     0.037 A 
HETATM   15  C12 UNL     1      17.989  -1.457  53.179  1.00  0.00    -0.018 A 
HETATM   16  C13 UNL     1      16.990  -0.708  52.738  1.00  0.00    -0.004 A 
HETATM   17  C14 UNL     1      17.481   0.321  51.810  1.00  0.00    -0.004 A 
HETATM   18  C15 UNL     1      18.811   0.170  51.702  1.00  0.00    -0.018 A 
ENDBRANCH  13  14
ENDBRANCH   9  11
BRANCH   1  19
HETATM   19  O1  UNL     1      27.909   1.230  52.871  1.00  0.00    -0.360 OA
HETATM   20  C1  UNL     1      28.481   2.384  53.402  1.00  0.00     0.209 C 
ENDBRANCH   1  19
TORSDOF 3
ENDMDL
MODEL 6
REMARK VINA RESULT:      -7.2      2.032      3.107
REMARK  3 active torsions:
REMARK  status: ('A' for Active; 'I' for Inactive)
REMARK    1  A    between atoms: O1_2  and  C2_3 
REMARK    2  A    between atoms: N3_11  and  C8_12 
REMARK    3  A    between atoms: C10_14  and  C11_15 
ROOT
HETATM    1  C2  UNL     1      20.442  -0.605  53.367  1.00  0.00     0.051 A 
HETATM    2  C3  UNL     1      21.550  -0.838  54.054  1.00  0.00     0.035 A 
HETATM    3  C4  UNL     1      22.769  -0.184  53.590  1.00  0.00     0.036 A 
HETATM    4  C5  UNL     1      22.784   0.608  52.530  1.00  0.00     0.078 A 
HETATM    5  C6  UNL     1      21.545   0.841  51.797  1.00  0.00     0.070 A 
HETATM    6  N1  UNL     1      21.673   1.627  50.782  1.00  0.00    -0.242 NA
HETATM    7  C7  UNL     1      22.907   2.227  50.392  1.00  0.00     0.255 A 
HETATM    8  N2  UNL     1      24.027   2.041  51.023  1.00  0.00    -0.165 NA
HETATM    9  N3  UNL     1      24.010   1.202  52.145  1.00  0.00    -0.262 N 
HETATM   10  C16 UNL     1      20.247   0.242  52.163  1.00  0.00     0.126 A 
ENDROOT
BRANCH   9  11
HETATM   11  C8  UNL     1      25.264   1.018  52.820  1.00  0.00     0.116 A 
HETATM   12  C9  UNL     1      25.637   2.094  53.808  1.00  0.00     0.035 A 
HETATM   13  C10 UNL     1      26.423   1.925  52.572  1.00  0.00     0.024 A 
BRANCH  13  14
HETATM   14  C11 UNL     1      27.800   1.282  52.707  1.00  0.00     0.037 A 
HETATM   15  C12 UNL     1      28.671   2.045  53.613  1.00  0.00    -0.018 A 
HETATM   16  C13 UNL     1      29.043   1.230  54.589  1.00  0.00    -0.004 A 
HETATM   17  C14 UNL     1      28.457  -0.105  54.405  1.00  0.00    -0.004 A 
HETATM   18  C15 UNL     1      27.717  -0.074  53.285  1.00  0.00    -0.018 A 
ENDBRANCH  13  14
ENDBRANCH   9  11
BRANCH   1  19
HETATM   19  O1  UNL     1      19.285  -1.239  53.828  1.00  0.00    -0.360 OA
HETATM   20  C1  UNL     1      18.060  -1.268  53.164  1.00  0.00     0.209 C 
ENDBRANCH   1  19
TORSDOF 3
ENDMDL
MODEL 7
REMARK VINA RESULT:      -7.2      2.796      6.431
REMARK  3 active torsions:
REMARK  status: ('A' for Active; 'I' for Inactive)
REMARK    1  A    between atoms: O1_2  and  C2_3 
REMARK    2  A    between atoms: N3_11  and  C8_12 
REMARK    3  A    between atoms: C10_14  and  C11_15 
ROOT
HETATM    1  C2  UNL     1      25.885  -0.315  54.624  1.00  0.00     0.051 A 
HETATM    2  C3  UNL     1      25.740   0.365  53.497  1.00  0.00     0.035 A 
HETATM    3  C4  UNL     1      24.403   0.404  52.913  1.00  0.00     0.036 A 
HETATM    4  C5  UNL     1      23.372  -0.208  53.471  1.00  0.00     0.078 A 
HETATM    5  C6  UNL     1      23.570  -0.949  54.712  1.00  0.00     0.070 A 
HETATM    6  N1  UNL     1      22.499  -1.506  55.168  1.00  0.00    -0.242 NA
HETATM    7  C7  UNL     1      21.225  -1.421  54.534  1.00  0.00     0.255 A 
HETATM    8  N2  UNL     1      21.016  -0.770  53.429  1.00  0.00    -0.165 NA
HETATM    9  N3  UNL     1      22.109  -0.121  52.839  1.00  0.00    -0.262 N 
HETATM   10  C16 UNL     1      24.868  -1.065  55.404  1.00  0.00     0.126 A 
ENDROOT
BRANCH   9  11
HETATM   11  C8  UNL     1      21.844   0.590  51.619  1.00  0.00     0.116 A 
HETATM   12  C9  UNL     1      21.306   1.989  51.785  1.00  0.00     0.035 A 
HETATM   13  C10 UNL     1      20.451   0.936  51.206  1.00  0.00     0.024 A 
BRANCH  13  14
HETATM   14  C11 UNL     1      20.207   0.988  49.701  1.00  0.00     0.037 A 
HETATM   15  C12 UNL     1      19.533   2.230  49.300  1.00  0.00    -0.018 A 
HETATM   16  C13 UNL     1      20.311   2.841  48.420  1.00  0.00    -0.004 A 
HETATM   17  C14 UNL     1      21.535   2.063  48.178  1.00  0.00    -0.004 A 
HETATM   18  C15 UNL     1      21.472   0.959  48.940  1.00  0.00    -0.018 A 
ENDBRANCH  13  14
ENDBRANCH   9  11
BRANCH   1  19
HETATM   19  O1  UNL     1      27.172  -0.341  55.169  1.00  0.00    -0.360 OA
HETATM   20  C1  UNL     1      28.343  -0.005  54.492  1.00  0.00     0.209 C 
ENDBRANCH   1  19
TORSDOF 3
ENDMDL
MODEL 8
REMARK VINA RESULT:      -7.1      4.774      6.705
REMARK  3 active torsions:
REMARK  status: ('A' for Active; 'I' for Inactive)
REMARK    1  A    between atoms: O1_2  and  C2_3 
REMARK    2  A    between atoms: N3_11  and  C8_12 
REMARK    3  A    between atoms: C10_14  and  C11_15 
ROOT
HETATM    1  C2  UNL     1      26.778   5.567  48.897  1.00  0.00     0.051 A 
HETATM    2  C3  UNL     1      27.053   4.277  49.011  1.00  0.00     0.035 A 
HETATM    3  C4  UNL     1      26.225   3.501  49.929  1.00  0.00     0.036 A 
HETATM    4  C5  UNL     1      25.241   4.048  50.625  1.00  0.00     0.078 A 
HETATM    5  C6  UNL     1      24.969   5.473  50.474  1.00  0.00     0.070 A 
HETATM    6  N1  UNL     1      23.990   5.900  51.198  1.00  0.00    -0.242 NA
HETATM    7  C7  UNL     1      23.228   5.073  52.075  1.00  0.00     0.255 A 
HETATM    8  N2  UNL     1      23.445   3.802  52.232  1.00  0.00    -0.165 NA
HETATM    9  N3  UNL     1      24.487   3.224  51.495  1.00  0.00    -0.262 N 
HETATM   10  C16 UNL     1      25.729   6.367  49.580  1.00  0.00     0.126 A 
ENDROOT
BRANCH   9  11
HETATM   11  C8  UNL     1      24.701   1.817  51.690  1.00  0.00     0.116 A 
HETATM   12  C9  UNL     1      23.466   1.007  51.991  1.00  0.00     0.035 A 
HETATM   13  C10 UNL     1      24.504   1.178  53.025  1.00  0.00     0.024 A 
BRANCH  13  14
HETATM   14  C11 UNL     1      25.400  -0.023  53.316  1.00  0.00     0.037 A 
HETATM   15  C12 UNL     1      26.447  -0.181  52.297  1.00  0.00    -0.018 A 
HETATM   16  C13 UNL     1      27.617  -0.130  52.915  1.00  0.00    -0.004 A 
HETATM   17  C14 UNL     1      27.435   0.062  54.360  1.00  0.00    -0.004 A 
HETATM   18  C15 UNL     1      26.114   0.125  54.599  1.00  0.00    -0.018 A 
ENDBRANCH  13  14
ENDBRANCH   9  11
BRANCH   1  19
HETATM   19  O1  UNL     1      27.581   6.294  48.013  1.00  0.00    -0.360 OA
HETATM   20  C1  UNL     1      28.971   6.375  48.064  1.00  0.00     0.209 C 
ENDBRANCH   1  19
TORSDOF 3
ENDMDL
MODEL 9
REMARK VINA RESULT:      -7.1      3.028      7.118
REMARK  3 active torsions:
REMARK  status: ('A' for Active; 'I' for Inactive)
REMARK    1  A    between atoms: O1_2  and  C2_3 
REMARK    2  A    between atoms: N3_11  and  C8_12 
REMARK    3  A    between atoms: C10_14  and  C11_15 
ROOT
HETATM    1  C2  UNL     1      27.380  -0.223  53.541  1.00  0.00     0.051 A 
HETATM    2  C3  UNL     1      26.185  -0.755  53.748  1.00  0.00     0.035 A 
HETATM    3  C4  UNL     1      25.048  -0.100  53.109  1.00  0.00     0.036 A 
HETATM    4  C5  UNL     1      25.188   0.978  52.355  1.00  0.00     0.078 A 
HETATM    5  C6  UNL     1      26.520   1.537  52.151  1.00  0.00     0.070 A 
HETATM    6  N1  UNL     1      26.541   2.587  51.401  1.00  0.00    -0.242 NA
HETATM    7  C7  UNL     1      25.379   3.167  50.813  1.00  0.00     0.255 A 
HETATM    8  N2  UNL     1      24.180   2.695  50.975  1.00  0.00    -0.165 NA
HETATM    9  N3  UNL     1      24.033   1.553  51.773  1.00  0.00    -0.262 N 
HETATM   10  C16 UNL     1      27.749   0.970  52.739  1.00  0.00     0.126 A 
ENDROOT
BRANCH   9  11
HETATM   11  C8  UNL     1      22.695   1.055  51.931  1.00  0.00     0.116 A 
HETATM   12  C9  UNL     1      21.856   1.031  50.679  1.00  0.00     0.035 A 
HETATM   13  C10 UNL     1      21.508   1.948  51.781  1.00  0.00     0.024 A 
BRANCH  13  14
HETATM   14  C11 UNL     1      20.298   1.582  52.634  1.00  0.00     0.037 A 
HETATM   15  C12 UNL     1      19.222   0.987  51.829  1.00  0.00    -0.018 A 
HETATM   16  C13 UNL     1      18.971  -0.215  52.323  1.00  0.00    -0.004 A 
HETATM   17  C14 UNL     1      19.845  -0.500  53.470  1.00  0.00    -0.004 A 
HETATM   18  C15 UNL     1      20.635   0.570  53.656  1.00  0.00    -0.018 A 
ENDBRANCH  13  14
ENDBRANCH   9  11
BRANCH   1  19
HETATM   19  O1  UNL     1      28.457  -0.865  54.161  1.00  0.00    -0.360 OA
HETATM   20  C1  UNL     1      29.760  -0.914  53.669  1.00  0.00     0.209 C 
ENDBRANCH   1  19
TORSDOF 3
ENDMDL
