MODEL 1
REMARK VINA RESULT:      -7.7      0.000      0.000
REMARK  4 active torsions:
REMARK  status: ('A' for Active; 'I' for Inactive)
REMARK    1  A    between atoms: C1_2  and  C2_3 
REMARK    2  A    between atoms: C5_6  and  N1_7 
REMARK    3  A    between atoms: N1_7  and  P1_8 
REMARK    4  A    between atoms: P1_8  and  C6_9 
ROOT
HETATM    1  C2  UNL     1      27.446   1.445  53.675  1.00  0.00     0.095 A 
HETATM    2  C3  UNL     1      26.327   2.201  53.399  1.00  0.00     0.052 A 
HETATM    3  C4  UNL     1      25.131   1.490  53.291  1.00  0.00     0.044 A 
HETATM    4  C5  UNL     1      24.008   2.238  53.015  1.00  0.00     0.163 A 
HETATM    5  N2  UNL     1      22.803   1.616  52.894  1.00  0.00    -0.222 NA
HETATM    6  C12 UNL     1      22.768   0.262  53.056  1.00  0.00     0.236 A 
HETATM    7  N3  UNL     1      23.860  -0.474  53.325  1.00  0.00    -0.240 NA
HETATM    8  C13 UNL     1      25.068   0.119  53.450  1.00  0.00     0.089 A 
HETATM    9  C14 UNL     1      26.223  -0.563  53.723  1.00  0.00     0.150 A 
HETATM   10  N4  UNL     1      27.367   0.111  53.827  1.00  0.00    -0.256 NA
ENDROOT
BRANCH   4  11
HETATM   11  N1  UNL     1      23.942   3.633  52.832  1.00  0.00    -0.229 NA
BRANCH  11  12
HETATM   12  P1  UNL     1      23.610   4.363  51.422  1.00  0.00     0.101 P 
BRANCH  12  13
HETATM   13  C6  UNL     1      25.012   4.811  50.331  1.00  0.00    -0.001 A 
HETATM   14  C7  UNL     1      25.878   3.740  50.091  1.00  0.00     0.017 A 
HETATM   15  C8  UNL     1      27.005   3.869  49.287  1.00  0.00     0.045 A 
HETATM   16  C9  UNL     1      27.250   5.107  48.722  1.00  0.00     0.138 A 
HETATM   17  F1  UNL     1      28.331   5.293  47.932  1.00  0.00    -0.204 F 
HETATM   18  C10 UNL     1      26.397   6.167  48.957  1.00  0.00     0.073 A 
HETATM   19 CL1  UNL     1      26.672   7.764  48.256  1.00  0.00    -0.081 Cl
HETATM   20  C11 UNL     1      25.278   6.031  49.757  1.00  0.00     0.041 A 
ENDBRANCH  12  13
ENDBRANCH  11  12
ENDBRANCH   4  11
BRANCH   1  21
HETATM   21  C1  UNL     1      28.724   2.110  53.803  1.00  0.00     0.290 C 
HETATM   22  O1  UNL     1      29.385   2.279  54.860  1.00  0.00    -0.300 OA
ENDBRANCH   1  21
TORSDOF 4
ENDMDL
MODEL 2
REMARK VINA RESULT:      -7.7      1.929      2.413
REMARK  4 active torsions:
REMARK  status: ('A' for Active; 'I' for Inactive)
REMARK    1  A    between atoms: C1_2  and  C2_3 
REMARK    2  A    between atoms: C5_6  and  N1_7 
REMARK    3  A    between atoms: N1_7  and  P1_8 
REMARK    4  A    between atoms: P1_8  and  C6_9 
ROOT
HETATM    1  C2  UNL     1      25.586  -0.405  54.390  1.00  0.00     0.095 A 
HETATM    2  C3  UNL     1      24.678   0.046  53.456  1.00  0.00     0.052 A 
HETATM    3  C4  UNL     1      23.347  -0.298  53.693  1.00  0.00     0.044 A 
HETATM    4  C5  UNL     1      22.434   0.148  52.764  1.00  0.00     0.163 A 
HETATM    5  N2  UNL     1      21.115  -0.147  52.927  1.00  0.00    -0.222 NA
HETATM    6  C12 UNL     1      20.759  -0.881  54.019  1.00  0.00     0.236 A 
HETATM    7  N3  UNL     1      21.645  -1.321  54.930  1.00  0.00    -0.240 NA
HETATM    8  C13 UNL     1      22.960  -1.041  54.792  1.00  0.00     0.089 A 
HETATM    9  C14 UNL     1      23.920  -1.453  55.676  1.00  0.00     0.150 A 
HETATM   10  N4  UNL     1      25.192  -1.127  55.454  1.00  0.00    -0.256 NA
ENDROOT
BRANCH   4  11
HETATM   11  N1  UNL     1      22.702   0.910  51.609  1.00  0.00    -0.229 NA
BRANCH  11  12
HETATM   12  P1  UNL     1      22.746   2.530  51.563  1.00  0.00     0.101 P 
BRANCH  12  13
HETATM   13  C6  UNL     1      24.119   3.331  50.652  1.00  0.00    -0.001 A 
HETATM   14  C7  UNL     1      25.328   2.638  50.772  1.00  0.00     0.017 A 
HETATM   15  C8  UNL     1      26.494   3.078  50.155  1.00  0.00     0.045 A 
HETATM   16  C9  UNL     1      26.423   4.240  49.408  1.00  0.00     0.138 A 
HETATM   17  F1  UNL     1      27.524   4.717  48.786  1.00  0.00    -0.204 F 
HETATM   18  C10 UNL     1      25.231   4.927  49.288  1.00  0.00     0.073 A 
HETATM   19 CL1  UNL     1      25.097   6.413  48.345  1.00  0.00    -0.081 Cl
HETATM   20  C11 UNL     1      24.076   4.483  49.903  1.00  0.00     0.041 A 
ENDBRANCH  12  13
ENDBRANCH  11  12
ENDBRANCH   4  11
BRANCH   1  21
HETATM   21  C1  UNL     1      26.986  -0.088  54.213  1.00  0.00     0.290 C 
HETATM   22  O1  UNL     1      27.922  -0.323  55.021  1.00  0.00    -0.300 OA
ENDBRANCH   1  21
TORSDOF 4
ENDMDL
MODEL 3
REMARK VINA RESULT:      -7.7      5.162      6.776
REMARK  4 active torsions:
REMARK  status: ('A' for Active; 'I' for Inactive)
REMARK    1  A    between atoms: C1_2  and  C2_3 
REMARK    2  A    between atoms: C5_6  and  N1_7 
REMARK    3  A    between atoms: N1_7  and  P1_8 
REMARK    4  A    between atoms: P1_8  and  C6_9 
ROOT
HETATM    1  C2  UNL     1      19.765   0.407  51.580  1.00  0.00     0.095 A 
HETATM    2  C3  UNL     1      21.120   0.535  51.801  1.00  0.00     0.052 A 
HETATM    3  C4  UNL     1      21.608  -0.107  52.939  1.00  0.00     0.044 A 
HETATM    4  C5  UNL     1      22.961   0.016  53.167  1.00  0.00     0.163 A 
HETATM    5  N2  UNL     1      23.514  -0.583  54.257  1.00  0.00    -0.222 NA
HETATM    6  C12 UNL     1      22.687  -1.286  55.082  1.00  0.00     0.236 A 
HETATM    7  N3  UNL     1      21.365  -1.411  54.867  1.00  0.00    -0.240 NA
HETATM    8  C13 UNL     1      20.792  -0.826  53.790  1.00  0.00     0.089 A 
HETATM    9  C14 UNL     1      19.457  -0.908  53.505  1.00  0.00     0.150 A 
HETATM   10  N4  UNL     1      18.985  -0.297  52.420  1.00  0.00    -0.256 NA
ENDROOT
BRANCH   4  11
HETATM   11  N1  UNL     1      23.894   0.717  52.377  1.00  0.00    -0.229 NA
BRANCH  11  12
HETATM   12  P1  UNL     1      25.152   1.555  52.963  1.00  0.00     0.101 P 
BRANCH  12  13
HETATM   13  C6  UNL     1      26.749   0.680  53.171  1.00  0.00    -0.001 A 
HETATM   14  C7  UNL     1      27.790   1.533  53.552  1.00  0.00     0.017 A 
HETATM   15  C8  UNL     1      29.084   1.068  53.763  1.00  0.00     0.045 A 
HETATM   16  C9  UNL     1      29.316  -0.284  53.581  1.00  0.00     0.138 A 
HETATM   17  F1  UNL     1      30.553  -0.793  53.771  1.00  0.00    -0.204 F 
HETATM   18  C10 UNL     1      28.290  -1.128  53.204  1.00  0.00     0.073 A 
HETATM   19 CL1  UNL     1      28.542  -2.858  52.961  1.00  0.00    -0.081 Cl
HETATM   20  C11 UNL     1      27.007  -0.659  52.997  1.00  0.00     0.041 A 
ENDBRANCH  12  13
ENDBRANCH  11  12
ENDBRANCH   4  11
BRANCH   1  21
HETATM   21  C1  UNL     1      19.183   1.044  50.420  1.00  0.00     0.290 C 
HETATM   22  O1  UNL     1      19.796   1.665  49.512  1.00  0.00    -0.300 OA
ENDBRANCH   1  21
TORSDOF 4
ENDMDL
MODEL 4
REMARK VINA RESULT:      -7.3      1.689      2.079
REMARK  4 active torsions:
REMARK  status: ('A' for Active; 'I' for Inactive)
REMARK    1  A    between atoms: C1_2  and  C2_3 
REMARK    2  A    between atoms: C5_6  and  N1_7 
REMARK    3  A    between atoms: N1_7  and  P1_8 
REMARK    4  A    between atoms: P1_8  and  C6_9 
ROOT
HETATM    1  C2  UNL     1      27.194   0.447  54.365  1.00  0.00     0.095 A 
HETATM    2  C3  UNL     1      26.760   1.271  53.348  1.00  0.00     0.052 A 
HETATM    3  C4  UNL     1      25.434   1.093  52.952  1.00  0.00     0.044 A 
HETATM    4  C5  UNL     1      24.993   1.912  51.936  1.00  0.00     0.163 A 
HETATM    5  N2  UNL     1      23.711   1.800  51.495  1.00  0.00    -0.222 NA
HETATM    6  C12 UNL     1      22.914   0.867  52.090  1.00  0.00     0.236 A 
HETATM    7  N3  UNL     1      23.337   0.064  53.082  1.00  0.00    -0.240 NA
HETATM    8  C13 UNL     1      24.607   0.156  53.539  1.00  0.00     0.089 A 
HETATM    9  C14 UNL     1      25.109  -0.626  54.544  1.00  0.00     0.150 A 
HETATM   10  N4  UNL     1      26.374  -0.460  54.924  1.00  0.00    -0.256 NA
ENDROOT
BRANCH   4  11
HETATM   11  N1  UNL     1      25.736   2.901  51.261  1.00  0.00    -0.229 NA
BRANCH  11  12
HETATM   12  P1  UNL     1      25.392   3.460  49.779  1.00  0.00     0.101 P 
BRANCH  12  13
HETATM   13  C6  UNL     1      26.422   4.819  49.108  1.00  0.00    -0.001 A 
HETATM   14  C7  UNL     1      25.729   6.029  49.012  1.00  0.00     0.017 A 
HETATM   15  C8  UNL     1      26.330   7.187  48.527  1.00  0.00     0.045 A 
HETATM   16  C9  UNL     1      27.654   7.104  48.136  1.00  0.00     0.138 A 
HETATM   17  F1  UNL     1      28.291   8.196  47.657  1.00  0.00    -0.204 F 
HETATM   18  C10 UNL     1      28.341   5.910  48.230  1.00  0.00     0.073 A 
HETATM   19 CL1  UNL     1      30.031   5.761  47.742  1.00  0.00    -0.081 Cl
HETATM   20  C11 UNL     1      27.737   4.765  48.713  1.00  0.00     0.041 A 
ENDBRANCH  12  13
ENDBRANCH  11  12
ENDBRANCH   4  11
BRANCH   1  21
HETATM   21  C1  UNL     1      28.557   0.571  54.831  1.00  0.00     0.290 C 
HETATM   22  O1  UNL     1      29.216   1.635  54.964  1.00  0.00    -0.300 OA
ENDBRANCH   1  21
TORSDOF 4
ENDMDL
MODEL 5
REMARK VINA RESULT:      -7.3      2.616      3.880
REMARK  4 active torsions:
REMARK  status: ('A' for Active; 'I' for Inactive)
REMARK    1  A    between atoms: C1_2  and  C2_3 
REMARK    2  A    between atoms: C5_6  and  N1_7 
REMARK    3  A    between atoms: N1_7  and  P1_8 
REMARK    4  A    between atoms: P1_8  and  C6_9 
ROOT
HETATM    1  C2  UNL     1      21.807  -0.784  54.095  1.00  0.00     0.095 A 
HETATM    2  C3  UNL     1      22.592  -0.024  53.254  1.00  0.00     0.052 A 
HETATM    3  C4  UNL     1      23.959  -0.031  53.534  1.00  0.00     0.044 A 
HETATM    4  C5  UNL     1      24.749   0.727  52.699  1.00  0.00     0.163 A 
HETATM    5  N2  UNL     1      26.094   0.771  52.908  1.00  0.00    -0.222 NA
HETATM    6  C12 UNL     1      26.598   0.051  53.951  1.00  0.00     0.236 A 
HETATM    7  N3  UNL     1      25.832  -0.691  54.770  1.00  0.00    -0.240 NA
HETATM    8  C13 UNL     1      24.495  -0.751  54.583  1.00  0.00     0.089 A 
HETATM    9  C14 UNL     1      23.652  -1.483  55.375  1.00  0.00     0.150 A 
HETATM   10  N4  UNL     1      22.346  -1.480  55.112  1.00  0.00    -0.256 NA
ENDROOT
BRANCH   4  11
HETATM   11  N1  UNL     1      24.325   1.501  51.601  1.00  0.00    -0.229 NA
BRANCH  11  12
HETATM   12  P1  UNL     1      24.142   3.112  51.625  1.00  0.00     0.101 P 
BRANCH  12  13
HETATM   13  C6  UNL     1      25.162   4.114  50.479  1.00  0.00    -0.001 A 
HETATM   14  C7  UNL     1      26.281   3.425  50.004  1.00  0.00     0.017 A 
HETATM   15  C8  UNL     1      27.185   4.006  49.121  1.00  0.00     0.045 A 
HETATM   16  C9  UNL     1      26.942   5.307  48.720  1.00  0.00     0.138 A 
HETATM   17  F1  UNL     1      27.785   5.925  47.864  1.00  0.00    -0.204 F 
HETATM   18  C10 UNL     1      25.837   5.991  49.188  1.00  0.00     0.073 A 
HETATM   19 CL1  UNL     1      25.488   7.652  48.702  1.00  0.00    -0.081 Cl
HETATM   20  C11 UNL     1      24.942   5.406  50.064  1.00  0.00     0.041 A 
ENDBRANCH  12  13
ENDBRANCH  11  12
ENDBRANCH   4  11
BRANCH   1  21
HETATM   21  C1  UNL     1      20.380  -0.828  53.868  1.00  0.00     0.290 C 
HETATM   22  O1  UNL     1      19.739  -0.225  52.968  1.00  0.00    -0.300 OA
ENDBRANCH   1  21
TORSDOF 4
ENDMDL
MODEL 6
REMARK VINA RESULT:      -7.2      4.562      5.840
REMARK  4 active torsions:
REMARK  status: ('A' for Active; 'I' for Inactive)
REMARK    1  A    between atoms: C1_2  and  C2_3 
REMARK    2  A    between atoms: C5_6  and  N1_7 
REMARK    3  A    between atoms: N1_7  and  P1_8 
REMARK    4  A    between atoms: P1_8  and  C6_9 
ROOT
HETATM    1  C2  UNL     1      22.290  -0.261  53.972  1.00  0.00     0.095 A 
HETATM    2  C3  UNL     1      22.924   0.437  52.967  1.00  0.00     0.052 A 
HETATM    3  C4  UNL     1      22.173   1.449  52.369  1.00  0.00     0.044 A 
HETATM    4  C5  UNL     1      22.799   2.151  51.363  1.00  0.00     0.163 A 
HETATM    5  N2  UNL     1      22.131   3.154  50.730  1.00  0.00    -0.222 NA
HETATM    6  C12 UNL     1      20.854   3.417  51.130  1.00  0.00     0.236 A 
HETATM    7  N3  UNL     1      20.236   2.736  52.111  1.00  0.00    -0.240 NA
HETATM    8  C13 UNL     1      20.878   1.736  52.755  1.00  0.00     0.089 A 
HETATM    9  C14 UNL     1      20.315   0.999  53.762  1.00  0.00     0.150 A 
HETATM   10  N4  UNL     1      21.029   0.032  54.336  1.00  0.00    -0.256 NA
ENDROOT
BRANCH   4  11
HETATM   11  N1  UNL     1      24.108   1.955  50.880  1.00  0.00    -0.229 NA
BRANCH  11  12
HETATM   12  P1  UNL     1      25.445   2.560  51.570  1.00  0.00     0.101 P 
BRANCH  12  13
HETATM   13  C6  UNL     1      26.652   1.386  52.291  1.00  0.00    -0.001 A 
HETATM   14  C7  UNL     1      27.697   2.025  52.964  1.00  0.00     0.017 A 
HETATM   15  C8  UNL     1      28.720   1.314  53.584  1.00  0.00     0.045 A 
HETATM   16  C9  UNL     1      28.673  -0.067  53.513  1.00  0.00     0.138 A 
HETATM   17  F1  UNL     1      29.639  -0.811  54.095  1.00  0.00    -0.204 F 
HETATM   18  C10 UNL     1      27.643  -0.701  52.848  1.00  0.00     0.073 A 
HETATM   19 CL1  UNL     1      27.544  -2.460  52.733  1.00  0.00    -0.081 Cl
HETATM   20  C11 UNL     1      26.629   0.012  52.236  1.00  0.00     0.041 A 
ENDBRANCH  12  13
ENDBRANCH  11  12
ENDBRANCH   4  11
BRANCH   1  21
HETATM   21  C1  UNL     1      23.004  -1.325  54.642  1.00  0.00     0.290 C 
HETATM   22  O1  UNL     1      22.704  -1.863  55.739  1.00  0.00    -0.300 OA
ENDBRANCH   1  21
TORSDOF 4
ENDMDL
MODEL 7
REMARK VINA RESULT:      -6.9      3.277      4.782
REMARK  4 active torsions:
REMARK  status: ('A' for Active; 'I' for Inactive)
REMARK    1  A    between atoms: C1_2  and  C2_3 
REMARK    2  A    between atoms: C5_6  and  N1_7 
REMARK    3  A    between atoms: N1_7  and  P1_8 
REMARK    4  A    between atoms: P1_8  and  C6_9 
ROOT
HETATM    1  C2  UNL     1      20.745   0.513  52.005  1.00  0.00     0.095 A 
HETATM    2  C3  UNL     1      22.112   0.449  52.176  1.00  0.00     0.052 A 
HETATM    3  C4  UNL     1      22.546  -0.212  53.325  1.00  0.00     0.044 A 
HETATM    4  C5  UNL     1      23.910  -0.280  53.503  1.00  0.00     0.163 A 
HETATM    5  N2  UNL     1      24.412  -0.910  54.601  1.00  0.00    -0.222 NA
HETATM    6  C12 UNL     1      23.523  -1.451  55.483  1.00  0.00     0.236 A 
HETATM    7  N3  UNL     1      22.191  -1.388  55.316  1.00  0.00    -0.240 NA
HETATM    8  C13 UNL     1      21.668  -0.769  54.234  1.00  0.00     0.089 A 
HETATM    9  C14 UNL     1      20.324  -0.665  53.996  1.00  0.00     0.150 A 
HETATM   10  N4  UNL     1      19.905  -0.035  52.901  1.00  0.00    -0.256 NA
ENDROOT
BRANCH   4  11
HETATM   11  N1  UNL     1      24.903   0.245  52.653  1.00  0.00    -0.229 NA
BRANCH  11  12
HETATM   12  P1  UNL     1      25.607   1.693  52.842  1.00  0.00     0.101 P 
BRANCH  12  13
HETATM   13  C6  UNL     1      25.537   2.876  51.444  1.00  0.00    -0.001 A 
HETATM   14  C7  UNL     1      24.261   3.411  51.248  1.00  0.00     0.017 A 
HETATM   15  C8  UNL     1      23.993   4.330  50.239  1.00  0.00     0.045 A 
HETATM   16  C9  UNL     1      25.043   4.704  49.420  1.00  0.00     0.138 A 
HETATM   17  F1  UNL     1      24.843   5.593  48.422  1.00  0.00    -0.204 F 
HETATM   18  C10 UNL     1      26.305   4.178  49.611  1.00  0.00     0.073 A 
HETATM   19 CL1  UNL     1      27.672   4.628  48.589  1.00  0.00    -0.081 Cl
HETATM   20  C11 UNL     1      26.564   3.266  50.617  1.00  0.00     0.041 A 
ENDBRANCH  12  13
ENDBRANCH  11  12
ENDBRANCH   4  11
BRANCH   1  21
HETATM   21  C1  UNL     1      20.218   1.182  50.837  1.00  0.00     0.290 C 
HETATM   22  O1  UNL     1      20.282   0.784  49.645  1.00  0.00    -0.300 OA
ENDBRANCH   1  21
TORSDOF 4
ENDMDL
MODEL 8
REMARK VINA RESULT:      -6.8      2.146      2.738
REMARK  4 active torsions:
REMARK  status: ('A' for Active; 'I' for Inactive)
REMARK    1  A    between atoms: C1_2  and  C2_3 
REMARK    2  A    between atoms: C5_6  and  N1_7 
REMARK    3  A    between atoms: N1_7  and  P1_8 
REMARK    4  A    between atoms: P1_8  and  C6_9 
ROOT
HETATM    1  C2  UNL     1      24.088  -0.226  53.776  1.00  0.00     0.095 A 
HETATM    2  C3  UNL     1      24.082   0.895  52.974  1.00  0.00     0.052 A 
HETATM    3  C4  UNL     1      22.831   1.473  52.754  1.00  0.00     0.044 A 
HETATM    4  C5  UNL     1      22.817   2.593  51.953  1.00  0.00     0.163 A 
HETATM    5  N2  UNL     1      21.634   3.214  51.693  1.00  0.00    -0.222 NA
HETATM    6  C12 UNL     1      20.505   2.688  52.247  1.00  0.00     0.236 A 
HETATM    7  N3  UNL     1      20.511   1.594  53.030  1.00  0.00    -0.240 NA
HETATM    8  C13 UNL     1      21.673   0.959  53.304  1.00  0.00     0.089 A 
HETATM    9  C14 UNL     1      21.759  -0.157  54.091  1.00  0.00     0.150 A 
HETATM   10  N4  UNL     1      22.951  -0.712  54.303  1.00  0.00    -0.256 NA
ENDROOT
BRANCH   4  11
HETATM   11  N1  UNL     1      23.924   3.210  51.338  1.00  0.00    -0.229 NA
BRANCH  11  12
HETATM   12  P1  UNL     1      23.971   4.761  50.867  1.00  0.00     0.101 P 
BRANCH  12  13
HETATM   13  C6  UNL     1      25.399   5.315  49.862  1.00  0.00    -0.001 A 
HETATM   14  C7  UNL     1      26.295   4.281  49.575  1.00  0.00     0.017 A 
HETATM   15  C8  UNL     1      27.446   4.491  48.823  1.00  0.00     0.045 A 
HETATM   16  C9  UNL     1      27.684   5.773  48.361  1.00  0.00     0.138 A 
HETATM   17  F1  UNL     1      28.787   6.038  47.626  1.00  0.00    -0.204 F 
HETATM   18  C10 UNL     1      26.801   6.797  48.644  1.00  0.00     0.073 A 
HETATM   19 CL1  UNL     1      27.066   8.446  48.074  1.00  0.00    -0.081 Cl
HETATM   20  C11 UNL     1      25.658   6.580  49.391  1.00  0.00     0.041 A 
ENDBRANCH  12  13
ENDBRANCH  11  12
ENDBRANCH   4  11
BRANCH   1  21
HETATM   21  C1  UNL     1      25.348  -0.882  54.051  1.00  0.00     0.290 C 
HETATM   22  O1  UNL     1      26.009  -0.829  55.120  1.00  0.00    -0.300 OA
ENDBRANCH   1  21
TORSDOF 4
ENDMDL
MODEL 9
REMARK VINA RESULT:      -6.8      2.785      3.565
REMARK  4 active torsions:
REMARK  status: ('A' for Active; 'I' for Inactive)
REMARK    1  A    between atoms: C1_2  and  C2_3 
REMARK    2  A    between atoms: C5_6  and  N1_7 
REMARK    3  A    between atoms: N1_7  and  P1_8 
REMARK    4  A    between atoms: P1_8  and  C6_9 
ROOT
HETATM    1  C2  UNL     1      23.693  -0.698  54.322  1.00  0.00     0.095 A 
HETATM    2  C3  UNL     1      23.438   0.002  53.161  1.00  0.00     0.052 A 
HETATM    3  C4  UNL     1      22.097   0.071  52.783  1.00  0.00     0.044 A 
HETATM    4  C5  UNL     1      21.833   0.768  51.624  1.00  0.00     0.163 A 
HETATM    5  N2  UNL     1      20.548   0.881  51.188  1.00  0.00    -0.222 NA
HETATM    6  C12 UNL     1      19.571   0.289  51.934  1.00  0.00     0.236 A 
HETATM    7  N3  UNL     1      19.821  -0.392  53.066  1.00  0.00    -0.240 NA
HETATM    8  C13 UNL     1      21.088  -0.518  53.519  1.00  0.00     0.089 A 
HETATM    9  C14 UNL     1      21.420  -1.196  54.661  1.00  0.00     0.150 A 
HETATM   10  N4  UNL     1      22.699  -1.265  55.027  1.00  0.00    -0.256 NA
ENDROOT
BRANCH   4  11
HETATM   11  N1  UNL     1      22.768   1.410  50.789  1.00  0.00    -0.229 NA
BRANCH  11  12
HETATM   12  P1  UNL     1      22.472   2.761  49.942  1.00  0.00     0.101 P 
BRANCH  12  13
HETATM   13  C6  UNL     1      23.738   4.086  49.959  1.00  0.00    -0.001 A 
HETATM   14  C7  UNL     1      23.348   5.201  50.707  1.00  0.00     0.017 A 
HETATM   15  C8  UNL     1      24.165   6.317  50.848  1.00  0.00     0.045 A 
HETATM   16  C9  UNL     1      25.396   6.293  50.216  1.00  0.00     0.138 A 
HETATM   17  F1  UNL     1      26.233   7.349  50.317  1.00  0.00    -0.204 F 
HETATM   18  C10 UNL     1      25.784   5.194  49.476  1.00  0.00     0.073 A 
HETATM   19 CL1  UNL     1      27.344   5.121  48.654  1.00  0.00    -0.081 Cl
HETATM   20  C11 UNL     1      24.966   4.087  49.342  1.00  0.00     0.041 A 
ENDBRANCH  12  13
ENDBRANCH  11  12
ENDBRANCH   4  11
BRANCH   1  21
HETATM   21  C1  UNL     1      25.060  -0.814  54.781  1.00  0.00     0.290 C 
HETATM   22  O1  UNL     1      26.067  -1.108  54.086  1.00  0.00    -0.300 OA
ENDBRANCH   1  21
TORSDOF 4
ENDMDL
