MODEL 1
REMARK VINA RESULT:      -7.7      0.000      0.000
REMARK  2 active torsions:
REMARK  status: ('A' for Active; 'I' for Inactive)
REMARK    1  A    between atoms: O1_2  and  C2_3 
REMARK    2  A    between atoms: C2_3  and  C3_4 
ROOT
HETATM    1  C3  UNL     1      23.333   3.111  52.120  1.00  0.00     0.169 C 
HETATM    2  C4  UNL     1      22.096   2.273  52.147  1.00  0.00     0.021 C 
HETATM    3  C5  UNL     1      21.778   1.213  52.855  1.00  0.00    -0.009 A 
HETATM    4  I1  UNL     1      19.966   0.090  52.821  1.00  0.00    -0.108 I 
HETATM    5  C6  UNL     1      22.050   0.152  53.765  1.00  0.00     0.109 A 
HETATM    6  C7  UNL     1      22.479  -0.751  54.603  1.00  0.00    -0.006 C 
HETATM    7  C8  UNL     1      23.461  -1.407  55.420  1.00  0.00     0.009 C 
HETATM    8  C9  UNL     1      24.731  -1.370  55.758  1.00  0.00     0.059 C 
HETATM    9  N1  UNL     1      25.684  -0.439  55.272  1.00  0.00    -0.276 NA
HETATM   10  C10 UNL     1      26.694   0.363  54.619  1.00  0.00     0.212 C 
HETATM   11  N2  UNL     1      27.951  -0.319  54.724  1.00  0.00    -0.281 NA
HETATM   12  C11 UNL     1      28.216  -1.163  53.815  1.00  0.00     0.086 C 
HETATM   13  C12 UNL     1      27.482  -1.623  52.613  1.00  0.00     0.051 C 
HETATM   14  C13 UNL     1      26.666  -0.488  52.067  1.00  0.00     0.042 C 
HETATM   15  C14 UNL     1      26.382   0.482  53.147  1.00  0.00    -0.043 C 
HETATM   16  C15 UNL     1      25.783   1.593  52.765  1.00  0.00     0.005 C 
HETATM   17  C16 UNL     1      25.300   2.843  53.387  1.00  0.00     0.196 C 
HETATM   18  O2  UNL     1      23.976   3.103  53.299  1.00  0.00    -0.376 OA
HETATM   19  H12 UNL     1      25.777  -1.246  54.567  1.00  0.00     0.129 HD
ENDROOT
BRANCH   1  20
HETATM   20  C2  UNL     1      22.922   4.589  51.883  1.00  0.00     0.203 C 
BRANCH  20  21
HETATM   21  O1  UNL     1      23.941   5.236  51.199  1.00  0.00    -0.393 OA
HETATM   22  C1  UNL     1      24.290   4.498  50.045  1.00  0.00     0.201 C 
ENDBRANCH  20  21
ENDBRANCH   1  20
TORSDOF 2
ENDMDL
MODEL 2
REMARK VINA RESULT:      -7.4      3.080      5.742
REMARK  2 active torsions:
REMARK  status: ('A' for Active; 'I' for Inactive)
REMARK    1  A    between atoms: O1_2  and  C2_3 
REMARK    2  A    between atoms: C2_3  and  C3_4 
ROOT
HETATM    1  C3  UNL     1      25.677   0.589  53.627  1.00  0.00     0.169 C 
HETATM    2  C4  UNL     1      24.454  -0.132  54.096  1.00  0.00     0.021 C 
HETATM    3  C5  UNL     1      23.286  -0.324  53.528  1.00  0.00    -0.009 A 
HETATM    4  I1  UNL     1      21.600  -1.384  54.288  1.00  0.00    -0.108 I 
HETATM    5  C6  UNL     1      22.307  -0.125  52.512  1.00  0.00     0.109 A 
HETATM    6  C7  UNL     1      21.538   0.178  51.503  1.00  0.00    -0.006 C 
HETATM    7  C8  UNL     1      21.198   0.853  50.284  1.00  0.00     0.009 C 
HETATM    8  C9  UNL     1      21.651   1.728  49.412  1.00  0.00     0.059 C 
HETATM    9  N1  UNL     1      22.904   2.387  49.487  1.00  0.00    -0.276 NA
HETATM   10  C10 UNL     1      24.074   3.216  49.674  1.00  0.00     0.212 C 
HETATM   11  N2  UNL     1      23.879   4.444  48.960  1.00  0.00    -0.281 NA
HETATM   12  C11 UNL     1      23.279   5.373  49.582  1.00  0.00     0.086 C 
HETATM   13  C12 UNL     1      22.710   5.476  50.946  1.00  0.00     0.051 C 
HETATM   14  C13 UNL     1      23.527   4.642  51.888  1.00  0.00     0.042 C 
HETATM   15  C14 UNL     1      24.220   3.575  51.132  1.00  0.00    -0.043 C 
HETATM   16  C15 UNL     1      25.076   2.855  51.830  1.00  0.00     0.005 C 
HETATM   17  C16 UNL     1      26.003   1.729  51.593  1.00  0.00     0.196 C 
HETATM   18  O2  UNL     1      25.781   0.592  52.288  1.00  0.00    -0.376 OA
HETATM   19  H12 UNL     1      22.257   3.071  50.009  1.00  0.00     0.129 HD
ENDROOT
BRANCH   1  20
HETATM   20  C2  UNL     1      26.927  -0.175  54.139  1.00  0.00     0.203 C 
BRANCH  20  21
HETATM   21  O1  UNL     1      27.669   0.668  54.952  1.00  0.00    -0.393 OA
HETATM   22  C1  UNL     1      28.962   0.845  54.410  1.00  0.00     0.201 C 
ENDBRANCH  20  21
ENDBRANCH   1  20
TORSDOF 2
ENDMDL
MODEL 3
REMARK VINA RESULT:      -7.2      3.671      6.437
REMARK  2 active torsions:
REMARK  status: ('A' for Active; 'I' for Inactive)
REMARK    1  A    between atoms: O1_2  and  C2_3 
REMARK    2  A    between atoms: C2_3  and  C3_4 
ROOT
HETATM    1  C3  UNL     1      22.569  -0.113  53.486  1.00  0.00     0.169 C 
HETATM    2  C4  UNL     1      23.977  -0.610  53.424  1.00  0.00     0.021 C 
HETATM    3  C5  UNL     1      25.060  -0.091  52.893  1.00  0.00    -0.009 A 
HETATM    4  I1  UNL     1      27.038  -0.886  52.869  1.00  0.00    -0.108 I 
HETATM    5  C6  UNL     1      25.774   0.868  52.118  1.00  0.00     0.109 A 
HETATM    6  C7  UNL     1      26.256   1.826  51.375  1.00  0.00    -0.006 C 
HETATM    7  C8  UNL     1      26.177   2.999  50.552  1.00  0.00     0.009 C 
HETATM    8  C9  UNL     1      25.324   3.855  50.032  1.00  0.00     0.059 C 
HETATM    9  N1  UNL     1      23.917   3.813  50.194  1.00  0.00    -0.276 NA
HETATM   10  C10 UNL     1      22.480   3.647  50.178  1.00  0.00     0.212 C 
HETATM   11  N2  UNL     1      21.962   4.300  49.011  1.00  0.00    -0.281 NA
HETATM   12  C11 UNL     1      21.925   3.612  47.946  1.00  0.00     0.086 C 
HETATM   13  C12 UNL     1      22.315   2.220  47.624  1.00  0.00     0.051 C 
HETATM   14  C13 UNL     1      22.094   1.353  48.829  1.00  0.00     0.042 C 
HETATM   15  C14 UNL     1      22.133   2.184  50.051  1.00  0.00    -0.043 C 
HETATM   16  C15 UNL     1      21.820   1.559  51.169  1.00  0.00     0.005 C 
HETATM   17  C16 UNL     1      21.691   1.886  52.604  1.00  0.00     0.196 C 
HETATM   18  O2  UNL     1      22.503   1.228  53.461  1.00  0.00    -0.376 OA
HETATM   19  H12 UNL     1      24.058   3.233  49.299  1.00  0.00     0.129 HD
ENDROOT
BRANCH   1  20
HETATM   20  C2  UNL     1      21.958  -0.533  54.849  1.00  0.00     0.203 C 
BRANCH  20  21
HETATM   21  O1  UNL     1      21.150  -1.644  54.658  1.00  0.00    -0.393 OA
HETATM   22  C1  UNL     1      20.062  -1.310  53.819  1.00  0.00     0.201 C 
ENDBRANCH  20  21
ENDBRANCH   1  20
TORSDOF 2
ENDMDL
MODEL 4
REMARK VINA RESULT:      -6.9      3.861      6.494
REMARK  2 active torsions:
REMARK  status: ('A' for Active; 'I' for Inactive)
REMARK    1  A    between atoms: O1_2  and  C2_3 
REMARK    2  A    between atoms: C2_3  and  C3_4 
ROOT
HETATM    1  C3  UNL     1      25.995   1.758  51.695  1.00  0.00     0.169 C 
HETATM    2  C4  UNL     1      26.356   2.866  50.759  1.00  0.00     0.021 C 
HETATM    3  C5  UNL     1      25.687   3.928  50.369  1.00  0.00    -0.009 A 
HETATM    4  I1  UNL     1      26.304   5.464  49.027  1.00  0.00    -0.108 I 
HETATM    5  C6  UNL     1      24.527   4.749  50.279  1.00  0.00     0.109 A 
HETATM    6  C7  UNL     1      23.377   5.365  50.300  1.00  0.00    -0.006 C 
HETATM    7  C8  UNL     1      21.992   5.524  50.642  1.00  0.00     0.009 C 
HETATM    8  C9  UNL     1      20.992   4.927  51.253  1.00  0.00     0.059 C 
HETATM    9  N1  UNL     1      21.052   3.655  51.877  1.00  0.00    -0.276 NA
HETATM   10  C10 UNL     1      21.052   2.278  52.318  1.00  0.00     0.212 C 
HETATM   11  N2  UNL     1      19.706   1.786  52.265  1.00  0.00    -0.281 NA
HETATM   12  C11 UNL     1      19.325   1.297  51.158  1.00  0.00     0.086 C 
HETATM   13  C12 UNL     1      19.991   1.113  49.848  1.00  0.00     0.051 C 
HETATM   14  C13 UNL     1      21.454   0.862  50.068  1.00  0.00     0.042 C 
HETATM   15  C14 UNL     1      21.865   1.434  51.368  1.00  0.00    -0.043 C 
HETATM   16  C15 UNL     1      23.102   1.164  51.738  1.00  0.00     0.005 C 
HETATM   17  C16 UNL     1      23.986   1.454  52.885  1.00  0.00     0.196 C 
HETATM   18  O2  UNL     1      25.116   2.150  52.631  1.00  0.00    -0.376 OA
HETATM   19  H12 UNL     1      20.744   3.402  50.877  1.00  0.00     0.129 HD
ENDROOT
BRANCH   1  20
HETATM   20  C2  UNL     1      27.269   1.335  52.473  1.00  0.00     0.203 C 
BRANCH  20  21
HETATM   21  O1  UNL     1      28.139   2.415  52.531  1.00  0.00    -0.393 OA
HETATM   22  C1  UNL     1      28.830   2.410  53.765  1.00  0.00     0.201 C 
ENDBRANCH  20  21
ENDBRANCH   1  20
TORSDOF 2
ENDMDL
MODEL 5
REMARK VINA RESULT:      -6.7      1.625      2.094
REMARK  2 active torsions:
REMARK  status: ('A' for Active; 'I' for Inactive)
REMARK    1  A    between atoms: O1_2  and  C2_3 
REMARK    2  A    between atoms: C2_3  and  C3_4 
ROOT
HETATM    1  C3  UNL     1      23.420   4.245  51.407  1.00  0.00     0.169 C 
HETATM    2  C4  UNL     1      22.308   3.598  50.646  1.00  0.00     0.021 C 
HETATM    3  C5  UNL     1      21.711   2.437  50.797  1.00  0.00    -0.009 A 
HETATM    4  I1  UNL     1      20.116   1.608  49.652  1.00  0.00    -0.108 I 
HETATM    5  C6  UNL     1      21.550   1.145  51.374  1.00  0.00     0.109 A 
HETATM    6  C7  UNL     1      21.560   0.002  52.004  1.00  0.00    -0.006 C 
HETATM    7  C8  UNL     1      22.072  -0.969  52.928  1.00  0.00     0.009 C 
HETATM    8  C9  UNL     1      23.054  -1.189  53.777  1.00  0.00     0.059 C 
HETATM    9  N1  UNL     1      24.118  -0.293  54.050  1.00  0.00    -0.276 NA
HETATM   10  C10 UNL     1      25.310   0.517  54.169  1.00  0.00     0.212 C 
HETATM   11  N2  UNL     1      26.388  -0.324  54.598  1.00  0.00    -0.281 NA
HETATM   12  C11 UNL     1      27.039  -0.921  53.688  1.00  0.00     0.086 C 
HETATM   13  C12 UNL     1      26.928  -0.943  52.211  1.00  0.00     0.051 C 
HETATM   14  C13 UNL     1      26.439   0.392  51.731  1.00  0.00     0.042 C 
HETATM   15  C14 UNL     1      25.693   1.066  52.817  1.00  0.00    -0.043 C 
HETATM   16  C15 UNL     1      25.325   2.306  52.562  1.00  0.00     0.005 C 
HETATM   17  C16 UNL     1      24.606   3.395  53.255  1.00  0.00     0.196 C 
HETATM   18  O2  UNL     1      23.463   3.838  52.686  1.00  0.00    -0.376 OA
HETATM   19  H12 UNL     1      24.523  -0.887  53.250  1.00  0.00     0.129 HD
ENDROOT
BRANCH   1  20
HETATM   20  C2  UNL     1      23.151   5.772  51.467  1.00  0.00     0.203 C 
BRANCH  20  21
HETATM   21  O1  UNL     1      21.808   6.004  51.207  1.00  0.00    -0.393 OA
HETATM   22  C1  UNL     1      21.629   7.326  50.741  1.00  0.00     0.201 C 
ENDBRANCH  20  21
ENDBRANCH   1  20
TORSDOF 2
ENDMDL
MODEL 6
REMARK VINA RESULT:      -6.7      2.018      2.708
REMARK  2 active torsions:
REMARK  status: ('A' for Active; 'I' for Inactive)
REMARK    1  A    between atoms: O1_2  and  C2_3 
REMARK    2  A    between atoms: C2_3  and  C3_4 
ROOT
HETATM    1  C3  UNL     1      25.177   3.512  49.748  1.00  0.00     0.169 C 
HETATM    2  C4  UNL     1      23.861   3.056  49.204  1.00  0.00     0.021 C 
HETATM    3  C5  UNL     1      22.925   2.292  49.719  1.00  0.00    -0.009 A 
HETATM    4  I1  UNL     1      21.067   1.707  48.853  1.00  0.00    -0.108 I 
HETATM    5  C6  UNL     1      22.384   1.415  50.702  1.00  0.00     0.109 A 
HETATM    6  C7  UNL     1      22.058   0.630  51.691  1.00  0.00    -0.006 C 
HETATM    7  C8  UNL     1      22.282  -0.073  52.922  1.00  0.00     0.009 C 
HETATM    8  C9  UNL     1      23.192  -0.302  53.844  1.00  0.00     0.059 C 
HETATM    9  N1  UNL     1      24.510   0.219  53.844  1.00  0.00    -0.276 NA
HETATM   10  C10 UNL     1      25.910   0.568  53.734  1.00  0.00     0.212 C 
HETATM   11  N2  UNL     1      26.674  -0.383  54.487  1.00  0.00    -0.281 NA
HETATM   12  C11 UNL     1      27.022  -1.439  53.878  1.00  0.00     0.086 C 
HETATM   13  C12 UNL     1      26.805  -1.933  52.499  1.00  0.00     0.051 C 
HETATM   14  C13 UNL     1      26.756  -0.765  51.557  1.00  0.00     0.042 C 
HETATM   15  C14 UNL     1      26.356   0.452  52.298  1.00  0.00    -0.043 C 
HETATM   16  C15 UNL     1      26.404   1.573  51.607  1.00  0.00     0.005 C 
HETATM   17  C16 UNL     1      26.141   3.009  51.836  1.00  0.00     0.196 C 
HETATM   18  O2  UNL     1      25.173   3.584  51.089  1.00  0.00    -0.376 OA
HETATM   19  H12 UNL     1      24.637  -0.715  53.324  1.00  0.00     0.129 HD
ENDROOT
BRANCH   1  20
HETATM   20  C2  UNL     1      25.437   4.961  49.256  1.00  0.00     0.203 C 
BRANCH  20  21
HETATM   21  O1  UNL     1      26.731   5.043  48.761  1.00  0.00    -0.393 OA
HETATM   22  C1  UNL     1      27.056   6.390  48.482  1.00  0.00     0.201 C 
ENDBRANCH  20  21
ENDBRANCH   1  20
TORSDOF 2
ENDMDL
MODEL 7
REMARK VINA RESULT:      -6.1      9.618     11.490
REMARK  2 active torsions:
REMARK  status: ('A' for Active; 'I' for Inactive)
REMARK    1  A    between atoms: O1_2  and  C2_3 
REMARK    2  A    between atoms: C2_3  and  C3_4 
ROOT
HETATM    1  C3  UNL     1      29.612   7.775  47.912  1.00  0.00     0.169 C 
HETATM    2  C4  UNL     1      30.057   8.763  46.882  1.00  0.00     0.021 C 
HETATM    3  C5  UNL     1      30.755   8.614  45.779  1.00  0.00    -0.009 A 
HETATM    4  I1  UNL     1      31.331  10.101  44.365  1.00  0.00    -0.108 I 
HETATM    5  C6  UNL     1      31.549   7.876  44.856  1.00  0.00     0.109 A 
HETATM    6  C7  UNL     1      32.259   7.054  44.133  1.00  0.00    -0.006 C 
HETATM    7  C8  UNL     1      32.889   5.801  43.829  1.00  0.00     0.009 C 
HETATM    8  C9  UNL     1      33.090   4.590  44.303  1.00  0.00     0.059 C 
HETATM    9  N1  UNL     1      32.614   4.107  45.548  1.00  0.00    -0.276 NA
HETATM   10  C10 UNL     1      32.320   3.685  46.900  1.00  0.00     0.212 C 
HETATM   11  N2  UNL     1      33.246   2.653  47.264  1.00  0.00    -0.281 NA
HETATM   12  C11 UNL     1      34.351   3.032  47.759  1.00  0.00     0.086 C 
HETATM   13  C12 UNL     1      34.923   4.364  48.059  1.00  0.00     0.051 C 
HETATM   14  C13 UNL     1      33.817   5.304  48.439  1.00  0.00     0.042 C 
HETATM   15  C14 UNL     1      32.543   4.831  47.855  1.00  0.00    -0.043 C 
HETATM   16  C15 UNL     1      31.469   5.500  48.226  1.00  0.00     0.005 C 
HETATM   17  C16 UNL     1      30.014   5.456  47.975  1.00  0.00     0.196 C 
HETATM   18  O2  UNL     1      29.455   6.544  47.400  1.00  0.00    -0.376 OA
HETATM   19  H12 UNL     1      33.583   4.495  45.812  1.00  0.00     0.129 HD
ENDROOT
BRANCH   1  20
HETATM   20  C2  UNL     1      28.207   8.194  48.421  1.00  0.00     0.203 C 
BRANCH  20  21
HETATM   21  O1  UNL     1      28.356   9.021  49.526  1.00  0.00    -0.393 OA
HETATM   22  C1  UNL     1      27.129   9.123  50.220  1.00  0.00     0.201 C 
ENDBRANCH  20  21
ENDBRANCH   1  20
TORSDOF 2
ENDMDL
MODEL 8
REMARK VINA RESULT:      -6.1      4.054      7.197
REMARK  2 active torsions:
REMARK  status: ('A' for Active; 'I' for Inactive)
REMARK    1  A    between atoms: O1_2  and  C2_3 
REMARK    2  A    between atoms: C2_3  and  C3_4 
ROOT
HETATM    1  C3  UNL     1      22.012  -0.537  53.003  1.00  0.00     0.169 C 
HETATM    2  C4  UNL     1      23.399   0.010  53.109  1.00  0.00     0.021 C 
HETATM    3  C5  UNL     1      23.866   1.230  52.974  1.00  0.00    -0.009 A 
HETATM    4  I1  UNL     1      25.878   1.908  53.157  1.00  0.00    -0.108 I 
HETATM    5  C6  UNL     1      23.761   2.612  52.646  1.00  0.00     0.109 A 
HETATM    6  C7  UNL     1      23.484   3.839  52.299  1.00  0.00    -0.006 C 
HETATM    7  C8  UNL     1      22.640   4.895  51.817  1.00  0.00     0.009 C 
HETATM    8  C9  UNL     1      21.427   5.144  51.373  1.00  0.00     0.059 C 
HETATM    9  N1  UNL     1      20.397   4.182  51.219  1.00  0.00    -0.276 NA
HETATM   10  C10 UNL     1      19.422   3.176  50.858  1.00  0.00     0.212 C 
HETATM   11  N2  UNL     1      18.585   3.707  49.822  1.00  0.00    -0.281 NA
HETATM   12  C11 UNL     1      18.993   3.556  48.631  1.00  0.00     0.086 C 
HETATM   13  C12 UNL     1      20.197   2.924  48.043  1.00  0.00     0.051 C 
HETATM   14  C13 UNL     1      20.618   1.768  48.903  1.00  0.00     0.042 C 
HETATM   15  C14 UNL     1      20.121   1.969  50.282  1.00  0.00    -0.043 C 
HETATM   16  C15 UNL     1      20.313   0.956  51.104  1.00  0.00     0.005 C 
HETATM   17  C16 UNL     1      20.024   0.625  52.514  1.00  0.00     0.196 C 
HETATM   18  O2  UNL     1      21.081   0.377  53.318  1.00  0.00    -0.376 OA
HETATM   19  H12 UNL     1      20.870   4.162  50.253  1.00  0.00     0.129 HD
ENDROOT
BRANCH   1  20
HETATM   20  C2  UNL     1      21.849  -1.673  54.048  1.00  0.00     0.203 C 
BRANCH  20  21
HETATM   21  O1  UNL     1      22.074  -1.154  55.315  1.00  0.00    -0.393 OA
HETATM   22  C1  UNL     1      23.349  -1.551  55.779  1.00  0.00     0.201 C 
ENDBRANCH  20  21
ENDBRANCH   1  20
TORSDOF 2
ENDMDL
MODEL 9
REMARK VINA RESULT:      -6.1      3.067      5.099
REMARK  2 active torsions:
REMARK  status: ('A' for Active; 'I' for Inactive)
REMARK    1  A    between atoms: O1_2  and  C2_3 
REMARK    2  A    between atoms: C2_3  and  C3_4 
ROOT
HETATM    1  C3  UNL     1      21.226   3.102  52.037  1.00  0.00     0.169 C 
HETATM    2  C4  UNL     1      21.359   4.532  51.623  1.00  0.00     0.021 C 
HETATM    3  C5  UNL     1      22.312   5.166  50.979  1.00  0.00    -0.009 A 
HETATM    4  I1  UNL     1      22.397   7.223  50.426  1.00  0.00    -0.108 I 
HETATM    5  C6  UNL     1      23.602   5.277  50.385  1.00  0.00     0.109 A 
HETATM    6  C7  UNL     1      24.811   5.198  49.900  1.00  0.00    -0.006 C 
HETATM    7  C8  UNL     1      26.062   4.552  49.625  1.00  0.00     0.009 C 
HETATM    8  C9  UNL     1      26.724   3.431  49.816  1.00  0.00     0.059 C 
HETATM    9  N1  UNL     1      26.240   2.303  50.525  1.00  0.00    -0.276 NA
HETATM   10  C10 UNL     1      25.838   1.245  51.425  1.00  0.00     0.212 C 
HETATM   11  N2  UNL     1      27.017   0.590  51.909  1.00  0.00    -0.281 NA
HETATM   12  C11 UNL     1      27.559   1.087  52.943  1.00  0.00     0.086 C 
HETATM   13  C12 UNL     1      27.229   2.249  53.800  1.00  0.00     0.051 C 
HETATM   14  C13 UNL     1      25.739   2.429  53.838  1.00  0.00     0.042 C 
HETATM   15  C14 UNL     1      25.137   1.831  52.626  1.00  0.00    -0.043 C 
HETATM   16  C15 UNL     1      23.820   1.808  52.604  1.00  0.00     0.005 C 
HETATM   17  C16 UNL     1      22.751   1.341  51.697  1.00  0.00     0.196 C 
HETATM   18  O2  UNL     1      21.896   2.273  51.221  1.00  0.00    -0.376 OA
HETATM   19  H12 UNL     1      26.735   2.862  51.301  1.00  0.00     0.129 HD
ENDROOT
BRANCH   1  20
HETATM   20  C2  UNL     1      19.735   2.690  51.914  1.00  0.00     0.203 C 
BRANCH  20  21
HETATM   21  O1  UNL     1      19.567   1.432  52.476  1.00  0.00    -0.393 OA
HETATM   22  C1  UNL     1      18.768   0.630  51.630  1.00  0.00     0.201 C 
ENDBRANCH  20  21
ENDBRANCH   1  20
TORSDOF 2
ENDMDL
