MODEL 1
REMARK VINA RESULT:      -9.6      0.000      0.000
REMARK  5 active torsions:
REMARK  status: ('A' for Active; 'I' for Inactive)
REMARK    1  A    between atoms: C5_5  and  C6_6 
REMARK    2  A    between atoms: C6_6  and  C7_8 
REMARK    3  A    between atoms: C11_12  and  P1_13 
REMARK    4  A    between atoms: P1_13  and  C12_14 
REMARK    5  A    between atoms: C15_18  and  C16_19 
ROOT
HETATM    1  C7  UNL     1      28.522   0.624  53.494  1.00  0.00     0.027 A 
HETATM    2  C8  UNL     1      29.767   0.384  53.858  1.00  0.00     0.016 A 
HETATM    3  C9  UNL     1      30.171  -0.997  53.745  1.00  0.00     0.002 A 
HETATM    4  C10 UNL     1      29.140  -1.649  53.292  1.00  0.00     0.014 A 
HETATM    5  C11 UNL     1      28.052  -0.702  53.105  1.00  0.00    -0.004 A 
ENDROOT
BRANCH   5   6
HETATM    6  P1  UNL     1      26.535  -1.146  52.529  1.00  0.00     0.034 P 
BRANCH   6   7
HETATM    7  C12 UNL     1      25.055  -1.064  53.599  1.00  0.00     0.161 A 
HETATM    8  N1  UNL     1      25.211  -1.261  54.922  1.00  0.00    -0.240 NA
HETATM    9  C13 UNL     1      24.123  -1.204  55.735  1.00  0.00     0.121 A 
HETATM   10  C14 UNL     1      22.893  -0.945  55.168  1.00  0.00     0.052 A 
HETATM   11  C15 UNL     1      22.720  -0.740  53.814  1.00  0.00     0.072 A 
HETATM   12  N3  UNL     1      23.825  -0.808  53.065  1.00  0.00    -0.228 NA
BRANCH  11  13
HETATM   13  C16 UNL     1      21.445  -0.462  53.167  1.00  0.00     0.010 A 
HETATM   14  C17 UNL     1      21.501   0.142  51.928  1.00  0.00     0.017 A 
HETATM   15  C18 UNL     1      20.319   0.439  51.245  1.00  0.00     0.020 A 
HETATM   16  C19 UNL     1      19.107   0.107  51.855  1.00  0.00     0.116 A 
HETATM   17  N2  UNL     1      19.074  -0.486  53.072  1.00  0.00    -0.272 NA
HETATM   18  C20 UNL     1      20.228  -0.772  53.731  1.00  0.00     0.130 A 
ENDBRANCH  11  13
ENDBRANCH   6   7
ENDBRANCH   5   6
BRANCH   1  19
HETATM   19  C6  UNL     1      27.716   1.821  53.444  1.00  0.00     0.193 C 
HETATM   20  O1  UNL     1      28.085   2.741  54.254  1.00  0.00    -0.287 OA
BRANCH  19  21
HETATM   21  C5  UNL     1      26.570   2.212  52.672  1.00  0.00     0.015 A 
HETATM   22  C4  UNL     1      25.392   2.425  53.398  1.00  0.00     0.016 A 
HETATM   23  C3  UNL     1      24.206   2.811  52.759  1.00  0.00     0.007 A 
HETATM   24  C2  UNL     1      24.172   2.988  51.403  1.00  0.00    -0.062 A 
HETATM   25  C1  UNL     1      22.915   3.397  50.720  1.00  0.00     0.048 C 
HETATM   26  C22 UNL     1      25.295   2.793  50.649  1.00  0.00     0.007 A 
HETATM   27  C21 UNL     1      26.417   2.420  51.323  1.00  0.00     0.016 A 
ENDBRANCH  19  21
ENDBRANCH   1  19
TORSDOF 5
ENDMDL
MODEL 2
REMARK VINA RESULT:      -8.9      3.211      6.721
REMARK  5 active torsions:
REMARK  status: ('A' for Active; 'I' for Inactive)
REMARK    1  A    between atoms: C5_5  and  C6_6 
REMARK    2  A    between atoms: C6_6  and  C7_8 
REMARK    3  A    between atoms: C11_12  and  P1_13 
REMARK    4  A    between atoms: P1_13  and  C12_14 
REMARK    5  A    between atoms: C15_18  and  C16_19 
ROOT
HETATM    1  C7  UNL     1      23.171   3.549  49.092  1.00  0.00     0.027 A 
HETATM    2  C8  UNL     1      22.561   2.956  48.084  1.00  0.00     0.016 A 
HETATM    3  C9  UNL     1      21.911   1.713  48.421  1.00  0.00     0.002 A 
HETATM    4  C10 UNL     1      22.119   1.517  49.690  1.00  0.00     0.014 A 
HETATM    5  C11 UNL     1      22.908   2.631  50.195  1.00  0.00    -0.004 A 
ENDROOT
BRANCH   5   6
HETATM    6  P1  UNL     1      23.394   2.759  51.801  1.00  0.00     0.034 P 
BRANCH   6   7
HETATM    7  C12 UNL     1      24.024   1.309  52.719  1.00  0.00     0.161 A 
HETATM    8  N1  UNL     1      23.131   0.473  53.282  1.00  0.00    -0.240 NA
HETATM    9  C13 UNL     1      23.578  -0.612  53.970  1.00  0.00     0.121 A 
HETATM   10  C14 UNL     1      24.939  -0.813  54.063  1.00  0.00     0.052 A 
HETATM   11  C15 UNL     1      25.864   0.035  53.489  1.00  0.00     0.072 A 
HETATM   12  N3  UNL     1      25.365   1.083  52.827  1.00  0.00    -0.228 NA
BRANCH  11  13
HETATM   13  C16 UNL     1      27.310  -0.134  53.558  1.00  0.00     0.010 A 
HETATM   14  C17 UNL     1      27.809  -1.348  53.134  1.00  0.00     0.017 A 
HETATM   15  C18 UNL     1      29.186  -1.584  53.171  1.00  0.00     0.020 A 
HETATM   16  C19 UNL     1      30.015  -0.564  53.643  1.00  0.00     0.116 A 
HETATM   17  N2  UNL     1      29.503   0.622  54.054  1.00  0.00    -0.272 NA
HETATM   18  C20 UNL     1      28.163   0.844  54.017  1.00  0.00     0.130 A 
ENDBRANCH  11  13
ENDBRANCH   6   7
ENDBRANCH   5   6
BRANCH   1  19
HETATM   19  C6  UNL     1      23.928   4.773  49.213  1.00  0.00     0.193 C 
HETATM   20  O1  UNL     1      23.256   5.768  49.656  1.00  0.00    -0.287 OA
BRANCH  19  21
HETATM   21  C5  UNL     1      25.294   5.124  48.941  1.00  0.00     0.015 A 
HETATM   22  C4  UNL     1      25.501   6.418  48.448  1.00  0.00     0.016 A 
HETATM   23  C3  UNL     1      26.789   6.880  48.144  1.00  0.00     0.007 A 
HETATM   24  C2  UNL     1      27.878   6.071  48.322  1.00  0.00    -0.062 A 
HETATM   25  C1  UNL     1      29.247   6.557  47.999  1.00  0.00     0.048 C 
HETATM   26  C22 UNL     1      27.729   4.800  48.799  1.00  0.00     0.007 A 
HETATM   27  C21 UNL     1      26.456   4.406  49.078  1.00  0.00     0.016 A 
ENDBRANCH  19  21
ENDBRANCH   1  19
TORSDOF 5
ENDMDL
MODEL 3
REMARK VINA RESULT:      -8.9      3.376      7.292
REMARK  5 active torsions:
REMARK  status: ('A' for Active; 'I' for Inactive)
REMARK    1  A    between atoms: C5_5  and  C6_6 
REMARK    2  A    between atoms: C6_6  and  C7_8 
REMARK    3  A    between atoms: C11_12  and  P1_13 
REMARK    4  A    between atoms: P1_13  and  C12_14 
REMARK    5  A    between atoms: C15_18  and  C16_19 
ROOT
HETATM    1  C7  UNL     1      23.038   0.714  53.078  1.00  0.00     0.027 A 
HETATM    2  C8  UNL     1      22.226   0.024  53.855  1.00  0.00     0.016 A 
HETATM    3  C9  UNL     1      20.931  -0.251  53.280  1.00  0.00     0.002 A 
HETATM    4  C10 UNL     1      20.929   0.288  52.096  1.00  0.00     0.014 A 
HETATM    5  C11 UNL     1      22.223   0.920  51.885  1.00  0.00    -0.004 A 
ENDROOT
BRANCH   5   6
HETATM    6  P1  UNL     1      22.629   1.732  50.468  1.00  0.00     0.034 P 
BRANCH   6   7
HETATM    7  C12 UNL     1      23.202   3.467  50.503  1.00  0.00     0.161 A 
HETATM    8  N1  UNL     1      22.422   4.386  51.103  1.00  0.00    -0.240 NA
HETATM    9  C13 UNL     1      22.830   5.682  51.139  1.00  0.00     0.121 A 
HETATM   10  C14 UNL     1      24.036   6.007  50.555  1.00  0.00     0.052 A 
HETATM   11  C15 UNL     1      24.845   5.075  49.938  1.00  0.00     0.072 A 
HETATM   12  N3  UNL     1      24.392   3.818  49.933  1.00  0.00    -0.228 NA
BRANCH  11  13
HETATM   13  C16 UNL     1      26.126   5.366  49.308  1.00  0.00     0.010 A 
HETATM   14  C17 UNL     1      26.331   6.669  48.902  1.00  0.00     0.017 A 
HETATM   15  C18 UNL     1      27.536   7.024  48.290  1.00  0.00     0.020 A 
HETATM   16  C19 UNL     1      28.500   6.030  48.111  1.00  0.00     0.116 A 
HETATM   17  N2  UNL     1      28.278   4.757  48.517  1.00  0.00    -0.272 NA
HETATM   18  C20 UNL     1      27.104   4.418  49.111  1.00  0.00     0.130 A 
ENDBRANCH  11  13
ENDBRANCH   6   7
ENDBRANCH   5   6
BRANCH   1  19
HETATM   19  C6  UNL     1      24.388   1.202  53.236  1.00  0.00     0.193 C 
HETATM   20  O1  UNL     1      24.477   2.470  53.389  1.00  0.00    -0.287 OA
BRANCH  19  21
HETATM   21  C5  UNL     1      25.675   0.565  53.260  1.00  0.00     0.015 A 
HETATM   22  C4  UNL     1      26.598   1.096  54.169  1.00  0.00     0.016 A 
HETATM   23  C3  UNL     1      27.888   0.561  54.287  1.00  0.00     0.007 A 
HETATM   24  C2  UNL     1      28.277  -0.497  53.511  1.00  0.00    -0.062 A 
HETATM   25  C1  UNL     1      29.646  -1.067  53.633  1.00  0.00     0.048 C 
HETATM   26  C22 UNL     1      27.413  -1.050  52.609  1.00  0.00     0.007 A 
HETATM   27  C21 UNL     1      26.174  -0.491  52.538  1.00  0.00     0.016 A 
ENDBRANCH  19  21
ENDBRANCH   1  19
TORSDOF 5
ENDMDL
MODEL 4
REMARK VINA RESULT:      -8.9      3.543      6.981
REMARK  5 active torsions:
REMARK  status: ('A' for Active; 'I' for Inactive)
REMARK    1  A    between atoms: C5_5  and  C6_6 
REMARK    2  A    between atoms: C6_6  and  C7_8 
REMARK    3  A    between atoms: C11_12  and  P1_13 
REMARK    4  A    between atoms: P1_13  and  C12_14 
REMARK    5  A    between atoms: C15_18  and  C16_19 
ROOT
HETATM    1  C7  UNL     1      24.898  -0.359  53.192  1.00  0.00     0.027 A 
HETATM    2  C8  UNL     1      25.922  -1.161  52.974  1.00  0.00     0.016 A 
HETATM    3  C9  UNL     1      27.093  -0.510  52.438  1.00  0.00     0.002 A 
HETATM    4  C10 UNL     1      26.793   0.750  52.314  1.00  0.00     0.014 A 
HETATM    5  C11 UNL     1      25.423   0.935  52.767  1.00  0.00    -0.004 A 
ENDROOT
BRANCH   5   6
HETATM    6  P1  UNL     1      24.649   2.429  52.769  1.00  0.00     0.034 P 
BRANCH   6   7
HETATM    7  C12 UNL     1      24.367   3.352  51.217  1.00  0.00     0.161 A 
HETATM    8  N1  UNL     1      23.137   3.322  50.671  1.00  0.00    -0.240 NA
HETATM    9  C13 UNL     1      22.905   4.001  49.516  1.00  0.00     0.121 A 
HETATM   10  C14 UNL     1      23.949   4.698  48.945  1.00  0.00     0.052 A 
HETATM   11  C15 UNL     1      25.214   4.737  49.495  1.00  0.00     0.072 A 
HETATM   12  N3  UNL     1      25.381   4.051  50.629  1.00  0.00    -0.228 NA
BRANCH  11  13
HETATM   13  C16 UNL     1      26.349   5.458  48.932  1.00  0.00     0.010 A 
HETATM   14  C17 UNL     1      27.518   4.742  48.777  1.00  0.00     0.017 A 
HETATM   15  C18 UNL     1      28.649   5.366  48.243  1.00  0.00     0.020 A 
HETATM   16  C19 UNL     1      28.548   6.711  47.883  1.00  0.00     0.116 A 
HETATM   17  N2  UNL     1      27.390   7.396  48.044  1.00  0.00    -0.272 NA
HETATM   18  C20 UNL     1      26.294   6.783  48.564  1.00  0.00     0.130 A 
ENDBRANCH  11  13
ENDBRANCH   6   7
ENDBRANCH   5   6
BRANCH   1  19
HETATM   19  C6  UNL     1      23.564  -0.568  53.704  1.00  0.00     0.193 C 
HETATM   20  O1  UNL     1      23.523  -1.018  54.902  1.00  0.00    -0.287 OA
BRANCH  19  21
HETATM   21  C5  UNL     1      22.251  -0.380  53.155  1.00  0.00     0.015 A 
HETATM   22  C4  UNL     1      21.186  -0.753  53.984  1.00  0.00     0.016 A 
HETATM   23  C3  UNL     1      19.857  -0.617  53.562  1.00  0.00     0.007 A 
HETATM   24  C2  UNL     1      19.568  -0.116  52.322  1.00  0.00    -0.062 A 
HETATM   25  C1  UNL     1      18.158   0.030  51.870  1.00  0.00     0.048 C 
HETATM   26  C22 UNL     1      20.571   0.263  51.475  1.00  0.00     0.007 A 
HETATM   27  C21 UNL     1      21.842   0.109  51.939  1.00  0.00     0.016 A 
ENDBRANCH  19  21
ENDBRANCH   1  19
TORSDOF 5
ENDMDL
MODEL 5
REMARK VINA RESULT:      -8.8      3.130      7.369
REMARK  5 active torsions:
REMARK  status: ('A' for Active; 'I' for Inactive)
REMARK    1  A    between atoms: C5_5  and  C6_6 
REMARK    2  A    between atoms: C6_6  and  C7_8 
REMARK    3  A    between atoms: C11_12  and  P1_13 
REMARK    4  A    between atoms: P1_13  and  C12_14 
REMARK    5  A    between atoms: C15_18  and  C16_19 
ROOT
HETATM    1  C7  UNL     1      20.391   2.536  50.572  1.00  0.00     0.027 A 
HETATM    2  C8  UNL     1      19.582   1.982  49.690  1.00  0.00     0.016 A 
HETATM    3  C9  UNL     1      19.723   2.486  48.345  1.00  0.00     0.002 A 
HETATM    4  C10 UNL     1      20.656   3.392  48.384  1.00  0.00     0.014 A 
HETATM    5  C11 UNL     1      21.134   3.489  49.755  1.00  0.00    -0.004 A 
ENDROOT
BRANCH   5   6
HETATM    6  P1  UNL     1      22.349   4.551  50.231  1.00  0.00     0.034 P 
BRANCH   6   7
HETATM    7  C12 UNL     1      24.099   4.027  50.281  1.00  0.00     0.161 A 
HETATM    8  N1  UNL     1      24.943   4.530  49.360  1.00  0.00    -0.240 NA
HETATM    9  C13 UNL     1      26.249   4.154  49.378  1.00  0.00     0.121 A 
HETATM   10  C14 UNL     1      26.661   3.264  50.348  1.00  0.00     0.052 A 
HETATM   11  C15 UNL     1      25.807   2.742  51.297  1.00  0.00     0.072 A 
HETATM   12  N3  UNL     1      24.536   3.148  51.229  1.00  0.00    -0.228 NA
BRANCH  11  13
HETATM   13  C16 UNL     1      26.192   1.800  52.341  1.00  0.00     0.010 A 
HETATM   14  C17 UNL     1      26.538   0.530  51.928  1.00  0.00     0.017 A 
HETATM   15  C18 UNL     1      26.918  -0.427  52.872  1.00  0.00     0.020 A 
HETATM   16  C19 UNL     1      26.934  -0.054  54.218  1.00  0.00     0.116 A 
HETATM   17  N2  UNL     1      26.590   1.200  54.601  1.00  0.00    -0.272 NA
HETATM   18  C20 UNL     1      26.220   2.126  53.678  1.00  0.00     0.130 A 
ENDBRANCH  11  13
ENDBRANCH   6   7
ENDBRANCH   5   6
BRANCH   1  19
HETATM   19  C6  UNL     1      20.592   2.348  51.990  1.00  0.00     0.193 C 
HETATM   20  O1  UNL     1      20.034   3.235  52.724  1.00  0.00    -0.287 OA
BRANCH  19  21
HETATM   21  C5  UNL     1      21.293   1.366  52.770  1.00  0.00     0.015 A 
HETATM   22  C4  UNL     1      20.584   0.830  53.851  1.00  0.00     0.016 A 
HETATM   23  C3  UNL     1      21.159  -0.136  54.687  1.00  0.00     0.007 A 
HETATM   24  C2  UNL     1      22.434  -0.579  54.465  1.00  0.00    -0.062 A 
HETATM   25  C1  UNL     1      23.049  -1.604  55.351  1.00  0.00     0.048 C 
HETATM   26  C22 UNL     1      23.168  -0.087  53.423  1.00  0.00     0.007 A 
HETATM   27  C21 UNL     1      22.558   0.849  52.644  1.00  0.00     0.016 A 
ENDBRANCH  19  21
ENDBRANCH   1  19
TORSDOF 5
ENDMDL
MODEL 6
REMARK VINA RESULT:      -8.6      2.499      5.699
REMARK  5 active torsions:
REMARK  status: ('A' for Active; 'I' for Inactive)
REMARK    1  A    between atoms: C5_5  and  C6_6 
REMARK    2  A    between atoms: C6_6  and  C7_8 
REMARK    3  A    between atoms: C11_12  and  P1_13 
REMARK    4  A    between atoms: P1_13  and  C12_14 
REMARK    5  A    between atoms: C15_18  and  C16_19 
ROOT
HETATM    1  C7  UNL     1      23.420   4.410  50.026  1.00  0.00     0.027 A 
HETATM    2  C8  UNL     1      23.639   5.652  49.636  1.00  0.00     0.016 A 
HETATM    3  C9  UNL     1      23.259   5.930  48.272  1.00  0.00     0.002 A 
HETATM    4  C10 UNL     1      22.783   4.821  47.786  1.00  0.00     0.014 A 
HETATM    5  C11 UNL     1      22.847   3.807  48.827  1.00  0.00    -0.004 A 
ENDROOT
BRANCH   5   6
HETATM    6  P1  UNL     1      22.324   2.224  48.601  1.00  0.00     0.034 P 
BRANCH   6   7
HETATM    7  C12 UNL     1      21.209   1.414  49.802  1.00  0.00     0.161 A 
HETATM    8  N1  UNL     1      19.887   1.413  49.546  1.00  0.00    -0.240 NA
HETATM    9  C13 UNL     1      19.040   0.817  50.426  1.00  0.00     0.121 A 
HETATM   10  C14 UNL     1      19.573   0.233  51.556  1.00  0.00     0.052 A 
HETATM   11  C15 UNL     1      20.925   0.227  51.830  1.00  0.00     0.072 A 
HETATM   12  N3  UNL     1      21.708   0.827  50.929  1.00  0.00    -0.228 NA
BRANCH  11  13
HETATM   13  C16 UNL     1      21.537  -0.377  53.007  1.00  0.00     0.010 A 
HETATM   14  C17 UNL     1      22.904  -0.236  53.130  1.00  0.00     0.017 A 
HETATM   15  C18 UNL     1      23.562  -0.788  54.233  1.00  0.00     0.020 A 
HETATM   16  C19 UNL     1      22.797  -1.470  55.181  1.00  0.00     0.116 A 
HETATM   17  N2  UNL     1      21.455  -1.596  55.040  1.00  0.00    -0.272 NA
HETATM   18  C20 UNL     1      20.821  -1.058  53.965  1.00  0.00     0.130 A 
ENDBRANCH  11  13
ENDBRANCH   6   7
ENDBRANCH   5   6
BRANCH   1  19
HETATM   19  C6  UNL     1      23.640   3.706  51.267  1.00  0.00     0.193 C 
HETATM   20  O1  UNL     1      22.705   3.851  52.129  1.00  0.00    -0.287 OA
BRANCH  19  21
HETATM   21  C5  UNL     1      24.697   2.865  51.755  1.00  0.00     0.015 A 
HETATM   22  C4  UNL     1      24.845   2.822  53.147  1.00  0.00     0.016 A 
HETATM   23  C3  UNL     1      25.840   2.038  53.746  1.00  0.00     0.007 A 
HETATM   24  C2  UNL     1      26.694   1.293  52.979  1.00  0.00    -0.062 A 
HETATM   25  C1  UNL     1      27.752   0.458  53.611  1.00  0.00     0.048 C 
HETATM   26  C22 UNL     1      26.590   1.300  51.617  1.00  0.00     0.007 A 
HETATM   27  C21 UNL     1      25.606   2.080  51.091  1.00  0.00     0.016 A 
ENDBRANCH  19  21
ENDBRANCH   1  19
TORSDOF 5
ENDMDL
MODEL 7
REMARK VINA RESULT:      -8.5      2.323      5.138
REMARK  5 active torsions:
REMARK  status: ('A' for Active; 'I' for Inactive)
REMARK    1  A    between atoms: C5_5  and  C6_6 
REMARK    2  A    between atoms: C6_6  and  C7_8 
REMARK    3  A    between atoms: C11_12  and  P1_13 
REMARK    4  A    between atoms: P1_13  and  C12_14 
REMARK    5  A    between atoms: C15_18  and  C16_19 
ROOT
HETATM    1  C7  UNL     1      24.451   4.808  50.662  1.00  0.00     0.027 A 
HETATM    2  C8  UNL     1      24.422   6.037  50.184  1.00  0.00     0.016 A 
HETATM    3  C9  UNL     1      25.482   6.347  49.254  1.00  0.00     0.002 A 
HETATM    4  C10 UNL     1      26.205   5.270  49.144  1.00  0.00     0.014 A 
HETATM    5  C11 UNL     1      25.625   4.247  50.000  1.00  0.00    -0.004 A 
ENDROOT
BRANCH   5   6
HETATM    6  P1  UNL     1      26.266   2.699  50.144  1.00  0.00     0.034 P 
BRANCH   6   7
HETATM    7  C12 UNL     1      26.388   1.871  51.770  1.00  0.00     0.161 A 
HETATM    8  N1  UNL     1      27.538   1.987  52.461  1.00  0.00    -0.240 NA
HETATM    9  C13 UNL     1      27.650   1.379  53.672  1.00  0.00     0.121 A 
HETATM   10  C14 UNL     1      26.572   0.662  54.148  1.00  0.00     0.052 A 
HETATM   11  C15 UNL     1      25.389   0.537  53.450  1.00  0.00     0.072 A 
HETATM   12  N3  UNL     1      25.337   1.156  52.267  1.00  0.00    -0.228 NA
BRANCH  11  13
HETATM   13  C16 UNL     1      24.222  -0.207  53.909  1.00  0.00     0.010 A 
HETATM   14  C17 UNL     1      23.110  -0.172  53.093  1.00  0.00     0.017 A 
HETATM   15  C18 UNL     1      21.953  -0.862  53.467  1.00  0.00     0.020 A 
HETATM   16  C19 UNL     1      21.971  -1.571  54.670  1.00  0.00     0.116 A 
HETATM   17  N2  UNL     1      23.074  -1.591  55.456  1.00  0.00    -0.272 NA
HETATM   18  C20 UNL     1      24.196  -0.918  55.087  1.00  0.00     0.130 A 
ENDBRANCH  11  13
ENDBRANCH   6   7
ENDBRANCH   5   6
BRANCH   1  19
HETATM   19  C6  UNL     1      23.617   4.084  51.591  1.00  0.00     0.193 C 
HETATM   20  O1  UNL     1      23.944   4.231  52.820  1.00  0.00    -0.287 OA
BRANCH  19  21
HETATM   21  C5  UNL     1      22.479   3.220  51.437  1.00  0.00     0.015 A 
HETATM   22  C4  UNL     1      22.528   2.341  50.348  1.00  0.00     0.016 A 
HETATM   23  C3  UNL     1      21.480   1.448  50.090  1.00  0.00     0.007 A 
HETATM   24  C2  UNL     1      20.378   1.416  50.901  1.00  0.00    -0.062 A 
HETATM   25  C1  UNL     1      19.262   0.469  50.631  1.00  0.00     0.048 C 
HETATM   26  C22 UNL     1      20.282   2.253  51.976  1.00  0.00     0.007 A 
HETATM   27  C21 UNL     1      21.330   3.098  52.178  1.00  0.00     0.016 A 
ENDBRANCH  19  21
ENDBRANCH   1  19
TORSDOF 5
ENDMDL
MODEL 8
REMARK VINA RESULT:      -8.5      1.451      2.066
REMARK  5 active torsions:
REMARK  status: ('A' for Active; 'I' for Inactive)
REMARK    1  A    between atoms: C5_5  and  C6_6 
REMARK    2  A    between atoms: C6_6  and  C7_8 
REMARK    3  A    between atoms: C11_12  and  P1_13 
REMARK    4  A    between atoms: P1_13  and  C12_14 
REMARK    5  A    between atoms: C15_18  and  C16_19 
ROOT
HETATM    1  C7  UNL     1      26.938   1.828  53.277  1.00  0.00     0.027 A 
HETATM    2  C8  UNL     1      28.150   2.275  53.541  1.00  0.00     0.016 A 
HETATM    3  C9  UNL     1      29.142   1.245  53.737  1.00  0.00     0.002 A 
HETATM    4  C10 UNL     1      28.529   0.107  53.590  1.00  0.00     0.014 A 
HETATM    5  C11 UNL     1      27.130   0.382  53.297  1.00  0.00    -0.004 A 
ENDROOT
BRANCH   5   6
HETATM    6  P1  UNL     1      25.991  -0.828  53.036  1.00  0.00     0.034 P 
BRANCH   6   7
HETATM    7  C12 UNL     1      24.234  -0.586  53.477  1.00  0.00     0.161 A 
HETATM    8  N1  UNL     1      23.813  -1.012  54.683  1.00  0.00    -0.240 NA
HETATM    9  C13 UNL     1      22.510  -0.842  55.031  1.00  0.00     0.121 A 
HETATM   10  C14 UNL     1      21.665  -0.235  54.128  1.00  0.00     0.052 A 
HETATM   11  C15 UNL     1      22.083   0.207  52.889  1.00  0.00     0.072 A 
HETATM   12  N3  UNL     1      23.374   0.013  52.603  1.00  0.00    -0.228 NA
BRANCH  11  13
HETATM   13  C16 UNL     1      21.231   0.855  51.900  1.00  0.00     0.010 A 
HETATM   14  C17 UNL     1      21.545   0.632  50.576  1.00  0.00     0.017 A 
HETATM   15  C18 UNL     1      20.772   1.219  49.570  1.00  0.00     0.020 A 
HETATM   16  C19 UNL     1      19.696   2.021  49.953  1.00  0.00     0.116 A 
HETATM   17  N2  UNL     1      19.405   2.228  51.261  1.00  0.00    -0.272 NA
HETATM   18  C20 UNL     1      20.160   1.654  52.234  1.00  0.00     0.130 A 
ENDBRANCH  11  13
ENDBRANCH   6   7
ENDBRANCH   5   6
BRANCH   1  19
HETATM   19  C6  UNL     1      25.675   2.478  53.019  1.00  0.00     0.193 C 
HETATM   20  O1  UNL     1      24.987   2.733  54.068  1.00  0.00    -0.287 OA
BRANCH  19  21
HETATM   21  C5  UNL     1      25.008   2.909  51.821  1.00  0.00     0.015 A 
HETATM   22  C4  UNL     1      23.775   3.545  52.008  1.00  0.00     0.016 A 
HETATM   23  C3  UNL     1      23.028   4.011  50.917  1.00  0.00     0.007 A 
HETATM   24  C2  UNL     1      23.490   3.854  49.639  1.00  0.00    -0.062 A 
HETATM   25  C1  UNL     1      22.699   4.347  48.479  1.00  0.00     0.048 C 
HETATM   26  C22 UNL     1      24.688   3.240  49.404  1.00  0.00     0.007 A 
HETATM   27  C21 UNL     1      25.369   2.808  50.500  1.00  0.00     0.016 A 
ENDBRANCH  19  21
ENDBRANCH   1  19
TORSDOF 5
ENDMDL
MODEL 9
REMARK VINA RESULT:      -8.5      2.488      6.271
REMARK  5 active torsions:
REMARK  status: ('A' for Active; 'I' for Inactive)
REMARK    1  A    between atoms: C5_5  and  C6_6 
REMARK    2  A    between atoms: C6_6  and  C7_8 
REMARK    3  A    between atoms: C11_12  and  P1_13 
REMARK    4  A    between atoms: P1_13  and  C12_14 
REMARK    5  A    between atoms: C15_18  and  C16_19 
ROOT
HETATM    1  C7  UNL     1      21.438   3.824  50.812  1.00  0.00     0.027 A 
HETATM    2  C8  UNL     1      20.571   4.792  50.580  1.00  0.00     0.016 A 
HETATM    3  C9  UNL     1      19.290   4.347  50.087  1.00  0.00     0.002 A 
HETATM    4  C10 UNL     1      19.354   3.050  50.006  1.00  0.00     0.014 A 
HETATM    5  C11 UNL     1      20.677   2.634  50.445  1.00  0.00    -0.004 A 
ENDROOT
BRANCH   5   6
HETATM    6  P1  UNL     1      21.166   1.025  50.492  1.00  0.00     0.034 P 
BRANCH   6   7
HETATM    7  C12 UNL     1      21.810   0.276  52.030  1.00  0.00     0.161 A 
HETATM    8  N1  UNL     1      20.932  -0.283  52.884  1.00  0.00    -0.240 NA
HETATM    9  C13 UNL     1      21.390  -0.847  54.034  1.00  0.00     0.121 A 
HETATM   10  C14 UNL     1      22.746  -0.822  54.281  1.00  0.00     0.052 A 
HETATM   11  C15 UNL     1      23.656  -0.253  53.413  1.00  0.00     0.072 A 
HETATM   12  N3  UNL     1      23.148   0.284  52.300  1.00  0.00    -0.228 NA
BRANCH  11  13
HETATM   13  C16 UNL     1      25.097  -0.202  53.628  1.00  0.00     0.010 A 
HETATM   14  C17 UNL     1      25.882  -0.054  52.503  1.00  0.00     0.017 A 
HETATM   15  C18 UNL     1      27.272   0.003  52.629  1.00  0.00     0.020 A 
HETATM   16  C19 UNL     1      27.820  -0.092  53.910  1.00  0.00     0.116 A 
HETATM   17  N2  UNL     1      27.030  -0.237  55.001  1.00  0.00    -0.272 NA
HETATM   18  C20 UNL     1      25.679  -0.293  54.872  1.00  0.00     0.130 A 
ENDBRANCH  11  13
ENDBRANCH   6   7
ENDBRANCH   5   6
BRANCH   1  19
HETATM   19  C6  UNL     1      22.798   3.805  51.295  1.00  0.00     0.193 C 
HETATM   20  O1  UNL     1      22.908   3.611  52.556  1.00  0.00    -0.287 OA
BRANCH  19  21
HETATM   21  C5  UNL     1      24.077   3.959  50.661  1.00  0.00     0.015 A 
HETATM   22  C4  UNL     1      24.208   5.070  49.820  1.00  0.00     0.016 A 
HETATM   23  C3  UNL     1      25.408   5.330  49.143  1.00  0.00     0.007 A 
HETATM   24  C2  UNL     1      26.484   4.498  49.290  1.00  0.00    -0.062 A 
HETATM   25  C1  UNL     1      27.759   4.769  48.574  1.00  0.00     0.048 C 
HETATM   26  C22 UNL     1      26.407   3.400  50.100  1.00  0.00     0.007 A 
HETATM   27  C21 UNL     1      25.218   3.198  50.731  1.00  0.00     0.016 A 
ENDBRANCH  19  21
ENDBRANCH   1  19
TORSDOF 5
ENDMDL
