MODEL 1
REMARK VINA RESULT:      -8.4      0.000      0.000
REMARK  8 active torsions:
REMARK  status: ('A' for Active; 'I' for Inactive)
REMARK    1  A    between atoms: C2_2  and  C3_3 
REMARK    2  A    between atoms: C3_3  and  C4_4 
REMARK    3  A    between atoms: C5_5  and  C6_6 
REMARK    4  A    between atoms: C6_6  and  C7_7 
REMARK       I    between atoms: C7_7  and  N1_9 
REMARK    5  A    between atoms: N1_9  and  C8_10 
REMARK    6  A    between atoms: C12_14  and  N2_15 
REMARK    7  A    between atoms: N2_15  and  C13_16 
REMARK    8  A    between atoms: C16_20  and  C17_21 
ROOT
HETATM    1  C8  UNL     1      25.000   2.173  53.095  1.00  0.00     0.036 A 
HETATM    2  C9  UNL     1      24.347   0.963  53.169  1.00  0.00     0.029 A 
HETATM    3  C10 UNL     1      23.076   0.866  52.648  1.00  0.00     0.004 A 
HETATM    4  C11 UNL     1      22.518   1.988  52.075  1.00  0.00     0.030 A 
HETATM    5  C12 UNL     1      23.135   3.215  51.979  1.00  0.00     0.051 A 
HETATM    6  C22 UNL     1      24.394   3.248  52.516  1.00  0.00     0.059 A 
ENDROOT
BRANCH   5   7
HETATM    7  N2  UNL     1      22.569   4.373  51.392  1.00  0.00    -0.188 N 
HETATM    8  H16 UNL     1      21.505   4.376  51.335  1.00  0.00     0.184 HD
BRANCH   7   9
HETATM    9  C13 UNL     1      23.217   5.518  50.873  1.00  0.00     0.727 A 
HETATM   10  N3  UNL     1      22.598   6.709  50.915  1.00  0.00    -0.075 NA
HETATM   11  C14 UNL     1      23.117   7.852  50.454  1.00  0.00     0.139 A 
HETATM   12  C15 UNL     1      24.375   7.828  49.896  1.00  0.00     0.053 A 
HETATM   13  C16 UNL     1      25.047   6.630  49.834  1.00  0.00     0.089 A 
HETATM   14  N5  UNL     1      24.439   5.541  50.321  1.00  0.00    -0.062 NA
BRANCH  13  15
HETATM   15  C17 UNL     1      26.376   6.574  49.250  1.00  0.00     0.011 A 
HETATM   16  C18 UNL     1      26.985   5.398  48.872  1.00  0.00     0.017 A 
HETATM   17  C19 UNL     1      28.250   5.354  48.315  1.00  0.00     0.020 A 
HETATM   18  C20 UNL     1      28.963   6.517  48.116  1.00  0.00     0.116 A 
HETATM   19  N4  UNL     1      28.376   7.674  48.484  1.00  0.00    -0.272 NA
HETATM   20  C21 UNL     1      27.144   7.693  49.022  1.00  0.00     0.130 A 
ENDBRANCH  13  15
ENDBRANCH   7   9
ENDBRANCH   5   7
BRANCH   1  21
HETATM   21  N1  UNL     1      26.315   2.271  53.634  1.00  0.00    -0.327 N 
HETATM   22  C7  UNL     1      27.494   2.211  52.840  1.00  0.00     0.225 C 
HETATM   23  O1  UNL     1      27.243   2.061  51.611  1.00  0.00    -0.273 OA
HETATM   24  H12 UNL     1      26.239   2.390  54.673  1.00  0.00     0.169 HD
BRANCH  22  25
HETATM   25  C6  UNL     1      28.710   2.342  53.685  1.00  0.00     0.130 C 
BRANCH  25  26
HETATM   26  C5  UNL     1      29.045   1.114  54.436  1.00  0.00    -0.022 C 
HETATM   27  C4  UNL     1      29.363  -0.141  54.264  1.00  0.00    -0.030 C 
BRANCH  27  28
HETATM   28  C3  UNL     1      29.595  -1.147  53.212  1.00  0.00     0.026 C 
BRANCH  28  29
HETATM   29  C2  UNL     1      28.448  -2.123  53.202  1.00  0.00    -0.001 C 
HETATM   30  C1  UNL     1      27.178  -1.475  52.670  1.00  0.00     0.005 C 
ENDBRANCH  28  29
ENDBRANCH  27  28
ENDBRANCH  25  26
ENDBRANCH  22  25
ENDBRANCH   1  21
TORSDOF 8
ENDMDL
MODEL 2
REMARK VINA RESULT:      -8.3      2.732      8.098
REMARK  8 active torsions:
REMARK  status: ('A' for Active; 'I' for Inactive)
REMARK    1  A    between atoms: C2_2  and  C3_3 
REMARK    2  A    between atoms: C3_3  and  C4_4 
REMARK    3  A    between atoms: C5_5  and  C6_6 
REMARK    4  A    between atoms: C6_6  and  C7_7 
REMARK       I    between atoms: C7_7  and  N1_9 
REMARK    5  A    between atoms: N1_9  and  C8_10 
REMARK    6  A    between atoms: C12_14  and  N2_15 
REMARK    7  A    between atoms: N2_15  and  C13_16 
REMARK    8  A    between atoms: C16_20  and  C17_21 
ROOT
HETATM    1  C8  UNL     1      23.860   4.045  50.110  1.00  0.00     0.036 A 
HETATM    2  C9  UNL     1      24.379   5.032  49.301  1.00  0.00     0.029 A 
HETATM    3  C10 UNL     1      25.738   5.056  49.079  1.00  0.00     0.004 A 
HETATM    4  C11 UNL     1      26.515   4.088  49.679  1.00  0.00     0.030 A 
HETATM    5  C12 UNL     1      26.038   3.086  50.493  1.00  0.00     0.051 A 
HETATM    6  C22 UNL     1      24.682   3.116  50.676  1.00  0.00     0.059 A 
ENDROOT
BRANCH   5   7
HETATM    7  N2  UNL     1      26.829   2.088  51.112  1.00  0.00    -0.188 N 
HETATM    8  H16 UNL     1      27.760   1.890  50.634  1.00  0.00     0.184 HD
BRANCH   7   9
HETATM    9  C13 UNL     1      26.555   1.323  52.270  1.00  0.00     0.727 A 
HETATM   10  N3  UNL     1      27.534   1.088  53.159  1.00  0.00    -0.075 NA
HETATM   11  C14 UNL     1      27.385   0.381  54.283  1.00  0.00     0.139 A 
HETATM   12  C15 UNL     1      26.148  -0.153  54.570  1.00  0.00     0.053 A 
HETATM   13  C16 UNL     1      25.117   0.063  53.687  1.00  0.00     0.089 A 
HETATM   14  N5  UNL     1      25.369   0.785  52.587  1.00  0.00    -0.062 NA
BRANCH  13  15
HETATM   15  C17 UNL     1      23.800  -0.487  53.963  1.00  0.00     0.011 A 
HETATM   16  C18 UNL     1      22.718  -0.304  53.132  1.00  0.00     0.017 A 
HETATM   17  C19 UNL     1      21.468  -0.833  53.401  1.00  0.00     0.020 A 
HETATM   18  C20 UNL     1      21.260  -1.580  54.541  1.00  0.00     0.116 A 
HETATM   19  N4  UNL     1      22.314  -1.764  55.361  1.00  0.00    -0.272 NA
HETATM   20  C21 UNL     1      23.520  -1.241  55.079  1.00  0.00     0.130 A 
ENDBRANCH  13  15
ENDBRANCH   7   9
ENDBRANCH   5   7
BRANCH   1  21
HETATM   21  N1  UNL     1      22.454   4.021  50.338  1.00  0.00    -0.327 N 
HETATM   22  C7  UNL     1      21.847   4.475  51.542  1.00  0.00     0.225 C 
HETATM   23  O1  UNL     1      22.692   4.899  52.380  1.00  0.00    -0.273 OA
HETATM   24  H12 UNL     1      21.987   3.625  49.487  1.00  0.00     0.169 HD
BRANCH  22  25
HETATM   25  C6  UNL     1      20.369   4.325  51.481  1.00  0.00     0.130 C 
BRANCH  25  26
HETATM   26  C5  UNL     1      19.889   3.006  51.945  1.00  0.00    -0.022 C 
HETATM   27  C4  UNL     1      19.686   1.783  51.532  1.00  0.00    -0.030 C 
BRANCH  27  28
HETATM   28  C3  UNL     1      19.801   0.925  50.340  1.00  0.00     0.026 C 
BRANCH  28  29
HETATM   29  C2  UNL     1      21.257   0.736  50.007  1.00  0.00    -0.001 C 
HETATM   30  C1  UNL     1      21.545   1.109  48.560  1.00  0.00     0.005 C 
ENDBRANCH  28  29
ENDBRANCH  27  28
ENDBRANCH  25  26
ENDBRANCH  22  25
ENDBRANCH   1  21
TORSDOF 8
ENDMDL
MODEL 3
REMARK VINA RESULT:      -8.2      3.128      7.453
REMARK  8 active torsions:
REMARK  status: ('A' for Active; 'I' for Inactive)
REMARK    1  A    between atoms: C2_2  and  C3_3 
REMARK    2  A    between atoms: C3_3  and  C4_4 
REMARK    3  A    between atoms: C5_5  and  C6_6 
REMARK    4  A    between atoms: C6_6  and  C7_7 
REMARK       I    between atoms: C7_7  and  N1_9 
REMARK    5  A    between atoms: N1_9  and  C8_10 
REMARK    6  A    between atoms: C12_14  and  N2_15 
REMARK    7  A    between atoms: N2_15  and  C13_16 
REMARK    8  A    between atoms: C16_20  and  C17_21 
ROOT
HETATM    1  C8  UNL     1      28.276   6.160  48.238  1.00  0.00     0.036 A 
HETATM    2  C9  UNL     1      27.767   7.389  48.595  1.00  0.00     0.029 A 
HETATM    3  C10 UNL     1      26.579   7.435  49.290  1.00  0.00     0.004 A 
HETATM    4  C11 UNL     1      25.955   6.245  49.596  1.00  0.00     0.030 A 
HETATM    5  C12 UNL     1      26.428   4.996  49.260  1.00  0.00     0.051 A 
HETATM    6  C22 UNL     1      27.610   5.017  48.570  1.00  0.00     0.059 A 
ENDROOT
BRANCH   5   7
HETATM    7  N2  UNL     1      25.794   3.769  49.571  1.00  0.00    -0.188 N 
HETATM    8  H16 UNL     1      25.303   3.295  48.753  1.00  0.00     0.184 HD
BRANCH   7   9
HETATM    9  C13 UNL     1      25.723   3.091  50.810  1.00  0.00     0.727 A 
HETATM   10  N3  UNL     1      24.693   3.327  51.640  1.00  0.00    -0.075 NA
HETATM   11  C14 UNL     1      24.528   2.743  52.830  1.00  0.00     0.139 A 
HETATM   12  C15 UNL     1      25.467   1.829  53.254  1.00  0.00     0.053 A 
HETATM   13  C16 UNL     1      26.537   1.556  52.436  1.00  0.00     0.089 A 
HETATM   14  N5  UNL     1      26.613   2.196  51.262  1.00  0.00    -0.062 NA
BRANCH  13  15
HETATM   15  C17 UNL     1      27.545   0.596  52.857  1.00  0.00     0.011 A 
HETATM   16  C18 UNL     1      28.800   0.961  53.287  1.00  0.00     0.017 A 
HETATM   17  C19 UNL     1      29.753   0.041  53.687  1.00  0.00     0.020 A 
HETATM   18  C20 UNL     1      29.468  -1.307  53.667  1.00  0.00     0.116 A 
HETATM   19  N4  UNL     1      28.240  -1.675  53.247  1.00  0.00    -0.272 NA
HETATM   20  C21 UNL     1      27.331  -0.763  52.863  1.00  0.00     0.130 A 
ENDBRANCH  13  15
ENDBRANCH   7   9
ENDBRANCH   5   7
BRANCH   1  21
HETATM   21  N1  UNL     1      29.505   6.115  47.519  1.00  0.00    -0.327 N 
HETATM   22  C7  UNL     1      30.761   5.853  48.132  1.00  0.00     0.225 C 
HETATM   23  O1  UNL     1      30.663   5.666  49.378  1.00  0.00    -0.273 OA
HETATM   24  H12 UNL     1      29.304   6.303  46.508  1.00  0.00     0.169 HD
BRANCH  22  25
HETATM   25  C6  UNL     1      31.856   5.870  47.126  1.00  0.00     0.130 C 
BRANCH  25  26
HETATM   26  C5  UNL     1      32.023   4.588  46.411  1.00  0.00    -0.022 C 
HETATM   27  C4  UNL     1      32.546   3.398  46.544  1.00  0.00    -0.030 C 
BRANCH  27  28
HETATM   28  C3  UNL     1      33.308   2.562  47.488  1.00  0.00     0.026 C 
BRANCH  28  29
HETATM   29  C2  UNL     1      34.737   3.034  47.522  1.00  0.00    -0.001 C 
HETATM   30  C1  UNL     1      35.240   3.371  46.126  1.00  0.00     0.005 C 
ENDBRANCH  28  29
ENDBRANCH  27  28
ENDBRANCH  25  26
ENDBRANCH  22  25
ENDBRANCH   1  21
TORSDOF 8
ENDMDL
MODEL 4
REMARK VINA RESULT:      -8.2      2.607      7.263
REMARK  8 active torsions:
REMARK  status: ('A' for Active; 'I' for Inactive)
REMARK    1  A    between atoms: C2_2  and  C3_3 
REMARK    2  A    between atoms: C3_3  and  C4_4 
REMARK    3  A    between atoms: C5_5  and  C6_6 
REMARK    4  A    between atoms: C6_6  and  C7_7 
REMARK       I    between atoms: C7_7  and  N1_9 
REMARK    5  A    between atoms: N1_9  and  C8_10 
REMARK    6  A    between atoms: C12_14  and  N2_15 
REMARK    7  A    between atoms: N2_15  and  C13_16 
REMARK    8  A    between atoms: C16_20  and  C17_21 
ROOT
HETATM    1  C8  UNL     1      22.883   3.077  49.474  1.00  0.00     0.036 A 
HETATM    2  C9  UNL     1      22.657   2.637  48.188  1.00  0.00     0.029 A 
HETATM    3  C10 UNL     1      21.934   1.479  48.004  1.00  0.00     0.004 A 
HETATM    4  C11 UNL     1      21.471   0.815  49.119  1.00  0.00     0.030 A 
HETATM    5  C12 UNL     1      21.673   1.219  50.420  1.00  0.00     0.051 A 
HETATM    6  C22 UNL     1      22.398   2.374  50.537  1.00  0.00     0.059 A 
ENDROOT
BRANCH   5   7
HETATM    7  N2  UNL     1      21.200   0.543  51.570  1.00  0.00    -0.188 N 
HETATM    8  H16 UNL     1      20.143   0.427  51.623  1.00  0.00     0.184 HD
BRANCH   7   9
HETATM    9  C13 UNL     1      21.933   0.004  52.653  1.00  0.00     0.727 A 
HETATM   10  N3  UNL     1      21.281  -0.568  53.679  1.00  0.00    -0.075 NA
HETATM   11  C14 UNL     1      21.873  -1.107  54.749  1.00  0.00     0.139 A 
HETATM   12  C15 UNL     1      23.248  -1.088  54.824  1.00  0.00     0.053 A 
HETATM   13  C16 UNL     1      23.956  -0.514  53.795  1.00  0.00     0.089 A 
HETATM   14  N5  UNL     1      23.269   0.001  52.767  1.00  0.00    -0.062 NA
BRANCH  13  15
HETATM   15  C17 UNL     1      25.408  -0.479  53.846  1.00  0.00     0.011 A 
HETATM   16  C18 UNL     1      26.208  -0.819  52.778  1.00  0.00     0.017 A 
HETATM   17  C19 UNL     1      27.590  -0.782  52.835  1.00  0.00     0.020 A 
HETATM   18  C20 UNL     1      28.228  -0.393  53.994  1.00  0.00     0.116 A 
HETATM   19  N4  UNL     1      27.452  -0.059  55.045  1.00  0.00    -0.272 NA
HETATM   20  C21 UNL     1      26.111  -0.102  54.967  1.00  0.00     0.130 A 
ENDBRANCH  13  15
ENDBRANCH   7   9
ENDBRANCH   5   7
BRANCH   1  21
HETATM   21  N1  UNL     1      23.630   4.275  49.662  1.00  0.00    -0.327 N 
HETATM   22  C7  UNL     1      25.039   4.299  49.849  1.00  0.00     0.225 C 
HETATM   23  O1  UNL     1      25.550   3.143  49.831  1.00  0.00    -0.273 OA
HETATM   24  H12 UNL     1      22.966   5.087  49.634  1.00  0.00     0.169 HD
BRANCH  22  25
HETATM   25  C6  UNL     1      25.529   5.693  50.017  1.00  0.00     0.130 C 
BRANCH  25  26
HETATM   26  C5  UNL     1      26.302   6.192  48.861  1.00  0.00    -0.022 C 
HETATM   27  C4  UNL     1      27.449   6.046  48.251  1.00  0.00    -0.030 C 
BRANCH  27  28
HETATM   28  C3  UNL     1      28.713   5.294  48.319  1.00  0.00     0.026 C 
BRANCH  28  29
HETATM   29  C2  UNL     1      29.849   6.202  47.926  1.00  0.00    -0.001 C 
HETATM   30  C1  UNL     1      31.183   5.472  47.984  1.00  0.00     0.005 C 
ENDBRANCH  28  29
ENDBRANCH  27  28
ENDBRANCH  25  26
ENDBRANCH  22  25
ENDBRANCH   1  21
TORSDOF 8
ENDMDL
MODEL 5
REMARK VINA RESULT:      -8.2      2.504      6.916
REMARK  8 active torsions:
REMARK  status: ('A' for Active; 'I' for Inactive)
REMARK    1  A    between atoms: C2_2  and  C3_3 
REMARK    2  A    between atoms: C3_3  and  C4_4 
REMARK    3  A    between atoms: C5_5  and  C6_6 
REMARK    4  A    between atoms: C6_6  and  C7_7 
REMARK       I    between atoms: C7_7  and  N1_9 
REMARK    5  A    between atoms: N1_9  and  C8_10 
REMARK    6  A    between atoms: C12_14  and  N2_15 
REMARK    7  A    between atoms: N2_15  and  C13_16 
REMARK    8  A    between atoms: C16_20  and  C17_21 
ROOT
HETATM    1  C8  UNL     1      22.089   3.981  51.477  1.00  0.00     0.036 A 
HETATM    2  C9  UNL     1      20.778   4.393  51.563  1.00  0.00     0.029 A 
HETATM    3  C10 UNL     1      19.811   3.462  51.869  1.00  0.00     0.004 A 
HETATM    4  C11 UNL     1      20.205   2.157  52.077  1.00  0.00     0.030 A 
HETATM    5  C12 UNL     1      21.503   1.703  52.002  1.00  0.00     0.051 A 
HETATM    6  C22 UNL     1      22.416   2.675  51.693  1.00  0.00     0.059 A 
ENDROOT
BRANCH   5   7
HETATM    7  N2  UNL     1      21.915   0.365  52.214  1.00  0.00    -0.188 N 
HETATM    8  H16 UNL     1      21.534  -0.341  51.514  1.00  0.00     0.184 HD
BRANCH   7   9
HETATM    9  C13 UNL     1      22.759  -0.159  53.222  1.00  0.00     0.727 A 
HETATM   10  N3  UNL     1      22.220  -0.804  54.271  1.00  0.00    -0.075 NA
HETATM   11  C14 UNL     1      22.922  -1.337  55.276  1.00  0.00     0.139 A 
HETATM   12  C15 UNL     1      24.295  -1.231  55.253  1.00  0.00     0.053 A 
HETATM   13  C16 UNL     1      24.888  -0.580  54.197  1.00  0.00     0.089 A 
HETATM   14  N5  UNL     1      24.096  -0.079  53.240  1.00  0.00    -0.062 NA
BRANCH  13  15
HETATM   15  C17 UNL     1      26.335  -0.453  54.145  1.00  0.00     0.011 A 
HETATM   16  C18 UNL     1      27.122  -1.154  53.260  1.00  0.00     0.017 A 
HETATM   17  C19 UNL     1      28.499  -1.026  53.217  1.00  0.00     0.020 A 
HETATM   18  C20 UNL     1      29.145  -0.168  54.083  1.00  0.00     0.116 A 
HETATM   19  N4  UNL     1      28.382   0.523  54.954  1.00  0.00    -0.272 NA
HETATM   20  C21 UNL     1      27.045   0.382  54.977  1.00  0.00     0.130 A 
ENDBRANCH  13  15
ENDBRANCH   7   9
ENDBRANCH   5   7
BRANCH   1  21
HETATM   21  N1  UNL     1      23.087   4.947  51.161  1.00  0.00    -0.327 N 
HETATM   22  C7  UNL     1      23.508   5.234  49.833  1.00  0.00     0.225 C 
HETATM   23  O1  UNL     1      22.899   4.538  48.972  1.00  0.00    -0.273 OA
HETATM   24  H12 UNL     1      23.427   5.377  52.055  1.00  0.00     0.169 HD
BRANCH  22  25
HETATM   25  C6  UNL     1      24.559   6.285  49.825  1.00  0.00     0.130 C 
BRANCH  25  26
HETATM   26  C5  UNL     1      25.837   5.838  49.233  1.00  0.00    -0.022 C 
HETATM   27  C4  UNL     1      26.586   4.777  49.083  1.00  0.00    -0.030 C 
BRANCH  27  28
HETATM   28  C3  UNL     1      26.643   3.341  49.407  1.00  0.00     0.026 C 
BRANCH  28  29
HETATM   29  C2  UNL     1      26.374   3.156  50.877  1.00  0.00    -0.001 C 
HETATM   30  C1  UNL     1      26.601   1.712  51.301  1.00  0.00     0.005 C 
ENDBRANCH  28  29
ENDBRANCH  27  28
ENDBRANCH  25  26
ENDBRANCH  22  25
ENDBRANCH   1  21
TORSDOF 8
ENDMDL
MODEL 6
REMARK VINA RESULT:      -8.1      2.783      7.501
REMARK  8 active torsions:
REMARK  status: ('A' for Active; 'I' for Inactive)
REMARK    1  A    between atoms: C2_2  and  C3_3 
REMARK    2  A    between atoms: C3_3  and  C4_4 
REMARK    3  A    between atoms: C5_5  and  C6_6 
REMARK    4  A    between atoms: C6_6  and  C7_7 
REMARK       I    between atoms: C7_7  and  N1_9 
REMARK    5  A    between atoms: N1_9  and  C8_10 
REMARK    6  A    between atoms: C12_14  and  N2_15 
REMARK    7  A    between atoms: N2_15  and  C13_16 
REMARK    8  A    between atoms: C16_20  and  C17_21 
ROOT
HETATM    1  C8  UNL     1      27.246   2.046  52.563  1.00  0.00     0.036 A 
HETATM    2  C9  UNL     1      28.432   2.179  53.251  1.00  0.00     0.029 A 
HETATM    3  C10 UNL     1      28.709   1.292  54.267  1.00  0.00     0.004 A 
HETATM    4  C11 UNL     1      27.782   0.311  54.548  1.00  0.00     0.030 A 
HETATM    5  C12 UNL     1      26.586   0.142  53.887  1.00  0.00     0.051 A 
HETATM    6  C22 UNL     1      26.369   1.054  52.889  1.00  0.00     0.059 A 
ENDROOT
BRANCH   5   7
HETATM    7  N2  UNL     1      25.630  -0.863  54.168  1.00  0.00    -0.188 N 
HETATM    8  H16 UNL     1      26.036  -1.797  54.479  1.00  0.00     0.184 HD
BRANCH   7   9
HETATM    9  C13 UNL     1      24.219  -0.798  54.093  1.00  0.00     0.727 A 
HETATM   10  N3  UNL     1      23.477  -1.243  55.122  1.00  0.00    -0.075 NA
HETATM   11  C14 UNL     1      22.141  -1.229  55.156  1.00  0.00     0.139 A 
HETATM   12  C15 UNL     1      21.457  -0.725  54.072  1.00  0.00     0.053 A 
HETATM   13  C16 UNL     1      22.177  -0.258  52.998  1.00  0.00     0.089 A 
HETATM   14  N5  UNL     1      23.513  -0.317  53.060  1.00  0.00    -0.062 NA
BRANCH  13  15
HETATM   15  C17 UNL     1      21.482   0.280  51.840  1.00  0.00     0.011 A 
HETATM   16  C18 UNL     1      22.134   0.797  50.743  1.00  0.00     0.017 A 
HETATM   17  C19 UNL     1      21.466   1.305  49.644  1.00  0.00     0.020 A 
HETATM   18  C20 UNL     1      20.088   1.312  49.611  1.00  0.00     0.116 A 
HETATM   19  N4  UNL     1      19.440   0.809  50.681  1.00  0.00    -0.272 NA
HETATM   20  C21 UNL     1      20.111   0.319  51.738  1.00  0.00     0.130 A 
ENDBRANCH  13  15
ENDBRANCH   7   9
ENDBRANCH   5   7
BRANCH   1  21
HETATM   21  N1  UNL     1      26.962   2.964  51.512  1.00  0.00    -0.327 N 
HETATM   22  C7  UNL     1      25.643   3.313  51.112  1.00  0.00     0.225 C 
HETATM   23  O1  UNL     1      24.757   2.720  51.790  1.00  0.00    -0.273 OA
HETATM   24  H12 UNL     1      27.871   3.308  51.118  1.00  0.00     0.169 HD
BRANCH  22  25
HETATM   25  C6  UNL     1      25.669   4.291  49.992  1.00  0.00     0.130 C 
BRANCH  25  26
HETATM   26  C5  UNL     1      26.921   4.258  49.207  1.00  0.00    -0.022 C 
HETATM   27  C4  UNL     1      27.731   5.029  48.531  1.00  0.00    -0.030 C 
BRANCH  27  28
HETATM   28  C3  UNL     1      27.923   6.429  48.112  1.00  0.00     0.026 C 
BRANCH  28  29
HETATM   29  C2  UNL     1      29.348   6.616  47.661  1.00  0.00    -0.001 C 
HETATM   30  C1  UNL     1      30.199   5.403  48.005  1.00  0.00     0.005 C 
ENDBRANCH  28  29
ENDBRANCH  27  28
ENDBRANCH  25  26
ENDBRANCH  22  25
ENDBRANCH   1  21
TORSDOF 8
ENDMDL
MODEL 7
REMARK VINA RESULT:      -8.0      2.395      8.038
REMARK  8 active torsions:
REMARK  status: ('A' for Active; 'I' for Inactive)
REMARK    1  A    between atoms: C2_2  and  C3_3 
REMARK    2  A    between atoms: C3_3  and  C4_4 
REMARK    3  A    between atoms: C5_5  and  C6_6 
REMARK    4  A    between atoms: C6_6  and  C7_7 
REMARK       I    between atoms: C7_7  and  N1_9 
REMARK    5  A    between atoms: N1_9  and  C8_10 
REMARK    6  A    between atoms: C12_14  and  N2_15 
REMARK    7  A    between atoms: N2_15  and  C13_16 
REMARK    8  A    between atoms: C16_20  and  C17_21 
ROOT
HETATM    1  C8  UNL     1      25.148   5.960  48.970  1.00  0.00     0.036 A 
HETATM    2  C9  UNL     1      26.183   6.681  48.414  1.00  0.00     0.029 A 
HETATM    3  C10 UNL     1      27.422   6.089  48.318  1.00  0.00     0.004 A 
HETATM    4  C11 UNL     1      27.568   4.800  48.785  1.00  0.00     0.030 A 
HETATM    5  C12 UNL     1      26.563   4.045  49.346  1.00  0.00     0.051 A 
HETATM    6  C22 UNL     1      25.356   4.688  49.414  1.00  0.00     0.059 A 
ENDROOT
BRANCH   5   7
HETATM    7  N2  UNL     1      26.705   2.721  49.827  1.00  0.00    -0.188 N 
HETATM    8  H16 UNL     1      26.969   1.999  49.090  1.00  0.00     0.184 HD
BRANCH   7   9
HETATM    9  C13 UNL     1      26.544   2.228  51.143  1.00  0.00     0.727 A 
HETATM   10  N3  UNL     1      27.508   2.439  52.055  1.00  0.00    -0.075 NA
HETATM   11  C14 UNL     1      27.459   2.018  53.323  1.00  0.00     0.139 A 
HETATM   12  C15 UNL     1      26.350   1.319  53.745  1.00  0.00     0.053 A 
HETATM   13  C16 UNL     1      25.339   1.081  52.845  1.00  0.00     0.089 A 
HETATM   14  N5  UNL     1      25.484   1.543  51.596  1.00  0.00    -0.062 NA
BRANCH  13  15
HETATM   15  C17 UNL     1      24.156   0.346  53.261  1.00  0.00     0.011 A 
HETATM   16  C18 UNL     1      22.931   0.479  52.648  1.00  0.00     0.017 A 
HETATM   17  C19 UNL     1      21.811  -0.226  53.050  1.00  0.00     0.020 A 
HETATM   18  C20 UNL     1      21.887  -1.108  54.107  1.00  0.00     0.116 A 
HETATM   19  N4  UNL     1      23.083  -1.244  54.715  1.00  0.00    -0.272 NA
HETATM   20  C21 UNL     1      24.158  -0.549  54.306  1.00  0.00     0.130 A 
ENDBRANCH  13  15
ENDBRANCH   7   9
ENDBRANCH   5   7
BRANCH   1  21
HETATM   21  N1  UNL     1      23.866   6.574  49.067  1.00  0.00    -0.327 N 
HETATM   22  C7  UNL     1      23.400   7.234  50.237  1.00  0.00     0.225 C 
HETATM   23  O1  UNL     1      24.247   7.214  51.174  1.00  0.00    -0.273 OA
HETATM   24  H12 UNL     1      23.368   6.446  48.152  1.00  0.00     0.169 HD
BRANCH  22  25
HETATM   25  C6  UNL     1      22.029   7.772  50.032  1.00  0.00     0.130 C 
BRANCH  25  26
HETATM   26  C5  UNL     1      21.009   6.725  49.811  1.00  0.00    -0.022 C 
HETATM   27  C4  UNL     1      20.576   5.593  50.299  1.00  0.00    -0.030 C 
BRANCH  27  28
HETATM   28  C3  UNL     1      20.822   4.626  51.383  1.00  0.00     0.026 C 
BRANCH  28  29
HETATM   29  C2  UNL     1      22.176   3.998  51.186  1.00  0.00    -0.001 C 
HETATM   30  C1  UNL     1      23.060   4.197  52.409  1.00  0.00     0.005 C 
ENDBRANCH  28  29
ENDBRANCH  27  28
ENDBRANCH  25  26
ENDBRANCH  22  25
ENDBRANCH   1  21
TORSDOF 8
ENDMDL
MODEL 8
REMARK VINA RESULT:      -7.9      1.253      2.062
REMARK  8 active torsions:
REMARK  status: ('A' for Active; 'I' for Inactive)
REMARK    1  A    between atoms: C2_2  and  C3_3 
REMARK    2  A    between atoms: C3_3  and  C4_4 
REMARK    3  A    between atoms: C5_5  and  C6_6 
REMARK    4  A    between atoms: C6_6  and  C7_7 
REMARK       I    between atoms: C7_7  and  N1_9 
REMARK    5  A    between atoms: N1_9  and  C8_10 
REMARK    6  A    between atoms: C12_14  and  N2_15 
REMARK    7  A    between atoms: N2_15  and  C13_16 
REMARK    8  A    between atoms: C16_20  and  C17_21 
ROOT
HETATM    1  C8  UNL     1      23.564   2.195  51.819  1.00  0.00     0.036 A 
HETATM    2  C9  UNL     1      22.297   1.718  52.073  1.00  0.00     0.029 A 
HETATM    3  C10 UNL     1      21.293   2.621  52.340  1.00  0.00     0.004 A 
HETATM    4  C11 UNL     1      21.606   3.964  52.340  1.00  0.00     0.030 A 
HETATM    5  C12 UNL     1      22.856   4.483  52.092  1.00  0.00     0.051 A 
HETATM    6  C22 UNL     1      23.811   3.536  51.834  1.00  0.00     0.059 A 
ENDROOT
BRANCH   5   7
HETATM    7  N2  UNL     1      23.185   5.860  52.089  1.00  0.00    -0.188 N 
HETATM    8  H16 UNL     1      22.964   6.378  52.992  1.00  0.00     0.184 HD
BRANCH   7   9
HETATM    9  C13 UNL     1      23.764   6.637  51.058  1.00  0.00     0.727 A 
HETATM   10  N3  UNL     1      23.080   7.671  50.541  1.00  0.00    -0.075 NA
HETATM   11  C14 UNL     1      23.530   8.469  49.567  1.00  0.00     0.139 A 
HETATM   12  C15 UNL     1      24.783   8.233  49.046  1.00  0.00     0.053 A 
HETATM   13  C16 UNL     1      25.519   7.185  49.547  1.00  0.00     0.089 A 
HETATM   14  N5  UNL     1      24.977   6.443  50.521  1.00  0.00    -0.062 NA
BRANCH  13  15
HETATM   15  C17 UNL     1      26.844   6.912  49.016  1.00  0.00     0.011 A 
HETATM   16  C18 UNL     1      27.294   5.642  48.730  1.00  0.00     0.017 A 
HETATM   17  C19 UNL     1      28.556   5.391  48.224  1.00  0.00     0.020 A 
HETATM   18  C20 UNL     1      29.429   6.431  47.984  1.00  0.00     0.116 A 
HETATM   19  N4  UNL     1      28.997   7.678  48.261  1.00  0.00    -0.272 NA
HETATM   20  C21 UNL     1      27.765   7.898  48.752  1.00  0.00     0.130 A 
ENDBRANCH  13  15
ENDBRANCH   7   9
ENDBRANCH   5   7
BRANCH   1  21
HETATM   21  N1  UNL     1      24.601   1.259  51.542  1.00  0.00    -0.327 N 
HETATM   22  C7  UNL     1      25.520   0.793  52.523  1.00  0.00     0.225 C 
HETATM   23  O1  UNL     1      25.313   1.302  53.660  1.00  0.00    -0.273 OA
HETATM   24  H12 UNL     1      24.550   0.999  50.527  1.00  0.00     0.169 HD
BRANCH  22  25
HETATM   25  C6  UNL     1      26.482  -0.175  51.932  1.00  0.00     0.130 C 
BRANCH  25  26
HETATM   26  C5  UNL     1      27.342  -0.840  52.933  1.00  0.00    -0.022 C 
HETATM   27  C4  UNL     1      28.477  -0.703  53.567  1.00  0.00    -0.030 C 
BRANCH  27  28
HETATM   28  C3  UNL     1      29.634   0.199  53.695  1.00  0.00     0.026 C 
BRANCH  28  29
HETATM   29  C2  UNL     1      29.227   1.415  54.485  1.00  0.00    -0.001 C 
HETATM   30  C1  UNL     1      28.714   2.519  53.572  1.00  0.00     0.005 C 
ENDBRANCH  28  29
ENDBRANCH  27  28
ENDBRANCH  25  26
ENDBRANCH  22  25
ENDBRANCH   1  21
TORSDOF 8
ENDMDL
MODEL 9
REMARK VINA RESULT:      -7.9      2.972      7.781
REMARK  8 active torsions:
REMARK  status: ('A' for Active; 'I' for Inactive)
REMARK    1  A    between atoms: C2_2  and  C3_3 
REMARK    2  A    between atoms: C3_3  and  C4_4 
REMARK    3  A    between atoms: C5_5  and  C6_6 
REMARK    4  A    between atoms: C6_6  and  C7_7 
REMARK       I    between atoms: C7_7  and  N1_9 
REMARK    5  A    between atoms: N1_9  and  C8_10 
REMARK    6  A    between atoms: C12_14  and  N2_15 
REMARK    7  A    between atoms: N2_15  and  C13_16 
REMARK    8  A    between atoms: C16_20  and  C17_21 
ROOT
HETATM    1  C8  UNL     1      29.114   5.647  48.109  1.00  0.00     0.036 A 
HETATM    2  C9  UNL     1      28.870   7.003  48.113  1.00  0.00     0.029 A 
HETATM    3  C10 UNL     1      27.628   7.449  48.503  1.00  0.00     0.004 A 
HETATM    4  C11 UNL     1      26.685   6.514  48.873  1.00  0.00     0.030 A 
HETATM    5  C12 UNL     1      26.886   5.152  48.884  1.00  0.00     0.051 A 
HETATM    6  C22 UNL     1      28.139   4.772  48.485  1.00  0.00     0.059 A 
ENDROOT
BRANCH   5   7
HETATM    7  N2  UNL     1      25.923   4.185  49.263  1.00  0.00    -0.188 N 
HETATM    8  H16 UNL     1      25.231   3.915  48.500  1.00  0.00     0.184 HD
BRANCH   7   9
HETATM    9  C13 UNL     1      25.755   3.534  50.507  1.00  0.00     0.727 A 
HETATM   10  N3  UNL     1      24.632   3.735  51.217  1.00  0.00    -0.075 NA
HETATM   11  C14 UNL     1      24.371   3.171  52.400  1.00  0.00     0.139 A 
HETATM   12  C15 UNL     1      25.304   2.319  52.947  1.00  0.00     0.053 A 
HETATM   13  C16 UNL     1      26.468   2.083  52.254  1.00  0.00     0.089 A 
HETATM   14  N5  UNL     1      26.636   2.699  51.076  1.00  0.00    -0.062 NA
BRANCH  13  15
HETATM   15  C17 UNL     1      27.472   1.189  52.806  1.00  0.00     0.011 A 
HETATM   16  C18 UNL     1      27.399  -0.182  52.702  1.00  0.00     0.017 A 
HETATM   17  C19 UNL     1      28.359  -1.026  53.230  1.00  0.00     0.020 A 
HETATM   18  C20 UNL     1      29.450  -0.508  53.895  1.00  0.00     0.116 A 
HETATM   19  N4  UNL     1      29.530   0.834  54.002  1.00  0.00    -0.272 NA
HETATM   20  C21 UNL     1      28.585   1.635  53.481  1.00  0.00     0.130 A 
ENDBRANCH  13  15
ENDBRANCH   7   9
ENDBRANCH   5   7
BRANCH   1  21
HETATM   21  N1  UNL     1      30.401   5.188  47.706  1.00  0.00    -0.327 N 
HETATM   22  C7  UNL     1      31.541   5.205  48.556  1.00  0.00     0.225 C 
HETATM   23  O1  UNL     1      31.284   5.672  49.701  1.00  0.00    -0.273 OA
HETATM   24  H12 UNL     1      30.337   4.854  46.714  1.00  0.00     0.169 HD
BRANCH  22  25
HETATM   25  C6  UNL     1      32.735   4.663  47.854  1.00  0.00     0.130 C 
BRANCH  25  26
HETATM   26  C5  UNL     1      33.994   5.345  48.217  1.00  0.00    -0.022 C 
HETATM   27  C4  UNL     1      34.656   6.455  48.022  1.00  0.00    -0.030 C 
BRANCH  27  28
HETATM   28  C3  UNL     1      34.577   7.745  47.315  1.00  0.00     0.026 C 
BRANCH  28  29
HETATM   29  C2  UNL     1      33.573   8.627  48.010  1.00  0.00    -0.001 C 
HETATM   30  C1  UNL     1      32.214   8.559  47.329  1.00  0.00     0.005 C 
ENDBRANCH  28  29
ENDBRANCH  27  28
ENDBRANCH  25  26
ENDBRANCH  22  25
ENDBRANCH   1  21
TORSDOF 8
ENDMDL
