MODEL 1
REMARK VINA RESULT:      -8.1      0.000      0.000
REMARK  7 active torsions:
REMARK  status: ('A' for Active; 'I' for Inactive)
REMARK    1  A    between atoms: N1_2  and  C3_4 
REMARK    2  A    between atoms: C3_4  and  C4_5 
REMARK    3  A    between atoms: C5_6  and  C6_7 
REMARK       I    between atoms: C6_7  and  N2_9 
REMARK    4  A    between atoms: N2_9  and  C7_10 
REMARK    5  A    between atoms: C12_16  and  N4_17 
REMARK    6  A    between atoms: C13_18  and  N5_19 
REMARK    7  A    between atoms: N5_19  and  C14_20 
ROOT
HETATM    1  C7  UNL     1      24.675   3.707  49.858  1.00  0.00     0.019 A 
HETATM    2  C8  UNL     1      24.758   3.051  51.012  1.00  0.00     0.041 A 
HETATM    3  C9  UNL     1      23.670   2.090  51.174  1.00  0.00     0.020 A 
HETATM    4  C10 UNL     1      22.917   2.221  50.013  1.00  0.00     0.052 A 
HETATM    5  N3  UNL     1      21.825   1.477  49.823  1.00  0.00    -0.262 NA
HETATM    6  C11 UNL     1      21.450   0.581  50.780  1.00  0.00     0.148 A 
HETATM    7  C12 UNL     1      22.172   0.418  51.952  1.00  0.00     0.071 A 
HETATM    8  C13 UNL     1      23.303   1.190  52.149  1.00  0.00     0.073 A 
HETATM    9  C20 UNL     1      23.498   3.252  49.103  1.00  0.00     0.117 A 
ENDROOT
BRANCH   1  10
HETATM   10  N2  UNL     1      25.563   4.710  49.376  1.00  0.00    -0.327 N 
HETATM   11  C6  UNL     1      26.910   4.464  48.992  1.00  0.00     0.245 C 
HETATM   12  O1  UNL     1      27.067   3.237  49.184  1.00  0.00    -0.268 OA
HETATM   13  H11 UNL     1      25.013   5.619  49.373  1.00  0.00     0.169 HD
BRANCH  11  14
HETATM   14  C5  UNL     1      27.682   5.598  48.523  1.00  0.00     0.072 C 
HETATM   15  C4  UNL     1      28.866   6.033  48.156  1.00  0.00     0.008 C 
BRANCH  15  16
HETATM   16  C3  UNL     1      30.259   5.567  47.988  1.00  0.00     0.299 C 
BRANCH  16  17
HETATM   17  N1  UNL     1      31.151   6.078  49.025  1.00  0.00     0.083 N 
HETATM   18  C1  UNL     1      32.477   5.567  48.730  1.00  0.00     0.309 C 
HETATM   19  C2  UNL     1      31.107   7.503  49.093  1.00  0.00     0.309 C 
ENDBRANCH  16  17
ENDBRANCH  15  16
ENDBRANCH  11  14
ENDBRANCH   1  10
BRANCH   8  20
HETATM   20  N5  UNL     1      24.138   1.129  53.297  1.00  0.00    -0.354 N 
HETATM   21  H16 UNL     1      23.727   1.555  54.149  1.00  0.00     0.166 HD
BRANCH  20  22
HETATM   22  C14 UNL     1      25.432   0.543  53.308  1.00  0.00     0.033 A 
HETATM   23  C15 UNL     1      25.625  -0.761  52.902  1.00  0.00     0.029 A 
HETATM   24  C16 UNL     1      26.895  -1.326  52.915  1.00  0.00     0.004 A 
HETATM   25  C17 UNL     1      27.941  -0.516  53.354  1.00  0.00     0.019 A 
HETATM   26  C18 UNL     1      27.764   0.788  53.763  1.00  0.00     0.013 A 
HETATM   27 BR1  UNL     1      29.279   1.779  54.337  1.00  0.00    -0.051 Br
HETATM   28  C19 UNL     1      26.498   1.305  53.734  1.00  0.00     0.048 A 
ENDBRANCH  20  22
ENDBRANCH   8  20
BRANCH   7  29
HETATM   29  N4  UNL     1      21.815  -0.500  52.965  1.00  0.00    -0.396 N 
HETATM   30  H14 UNL     1      21.441  -0.054  53.827  1.00  0.00     0.156 HD
HETATM   31  H15 UNL     1      21.864  -1.540  52.982  1.00  0.00     0.156 HD
ENDBRANCH   7  29
TORSDOF 7
ENDMDL
MODEL 2
REMARK VINA RESULT:      -7.7      3.911      8.693
REMARK  7 active torsions:
REMARK  status: ('A' for Active; 'I' for Inactive)
REMARK    1  A    between atoms: N1_2  and  C3_4 
REMARK    2  A    between atoms: C3_4  and  C4_5 
REMARK    3  A    between atoms: C5_6  and  C6_7 
REMARK       I    between atoms: C6_7  and  N2_9 
REMARK    4  A    between atoms: N2_9  and  C7_10 
REMARK    5  A    between atoms: C12_16  and  N4_17 
REMARK    6  A    between atoms: C13_18  and  N5_19 
REMARK    7  A    between atoms: N5_19  and  C14_20 
ROOT
HETATM    1  C7  UNL     1      22.590  -0.210  53.151  1.00  0.00     0.019 A 
HETATM    2  C8  UNL     1      23.184   0.967  52.978  1.00  0.00     0.041 A 
HETATM    3  C9  UNL     1      24.568   0.953  53.448  1.00  0.00     0.020 A 
HETATM    4  C10 UNL     1      24.760  -0.338  53.922  1.00  0.00     0.052 A 
HETATM    5  N3  UNL     1      25.937  -0.707  54.434  1.00  0.00    -0.262 NA
HETATM    6  C11 UNL     1      26.955   0.197  54.490  1.00  0.00     0.148 A 
HETATM    7  C12 UNL     1      26.807   1.496  54.028  1.00  0.00     0.071 A 
HETATM    8  C13 UNL     1      25.588   1.877  53.498  1.00  0.00     0.073 A 
HETATM    9  C20 UNL     1      23.524  -1.163  53.769  1.00  0.00     0.117 A 
ENDROOT
BRANCH   1  10
HETATM   10  N2  UNL     1      21.251  -0.552  52.808  1.00  0.00    -0.327 N 
HETATM   11  C6  UNL     1      20.130  -0.333  53.656  1.00  0.00     0.245 C 
HETATM   12  O1  UNL     1      20.618   0.194  54.682  1.00  0.00    -0.268 OA
HETATM   13  H11 UNL     1      21.291  -0.980  51.837  1.00  0.00     0.169 HD
BRANCH  11  14
HETATM   14  C5  UNL     1      18.832  -0.741  53.157  1.00  0.00     0.072 C 
HETATM   15  C4  UNL     1      17.969  -0.659  52.168  1.00  0.00     0.008 C 
BRANCH  15  16
HETATM   16  C3  UNL     1      17.802  -0.033  50.840  1.00  0.00     0.299 C 
BRANCH  16  17
HETATM   17  N1  UNL     1      17.020   1.199  50.895  1.00  0.00     0.083 N 
HETATM   18  C1  UNL     1      15.861   0.926  51.724  1.00  0.00     0.309 C 
HETATM   19  C2  UNL     1      17.803   2.291  51.377  1.00  0.00     0.309 C 
ENDBRANCH  16  17
ENDBRANCH  15  16
ENDBRANCH  11  14
ENDBRANCH   1  10
BRANCH   8  20
HETATM   20  N5  UNL     1      25.293   3.170  52.987  1.00  0.00    -0.354 N 
HETATM   21  H16 UNL     1      25.066   3.876  53.713  1.00  0.00     0.166 HD
BRANCH  20  22
HETATM   22  C14 UNL     1      25.298   3.498  51.605  1.00  0.00     0.033 A 
HETATM   23  C15 UNL     1      26.375   3.183  50.804  1.00  0.00     0.029 A 
HETATM   24  C16 UNL     1      26.371   3.507  49.452  1.00  0.00     0.004 A 
HETATM   25  C17 UNL     1      25.238   4.157  48.962  1.00  0.00     0.019 A 
HETATM   26  C18 UNL     1      24.155   4.478  49.751  1.00  0.00     0.013 A 
HETATM   27 BR1  UNL     1      22.676   5.364  48.953  1.00  0.00    -0.051 Br
HETATM   28  C19 UNL     1      24.200   4.141  51.076  1.00  0.00     0.048 A 
ENDBRANCH  20  22
ENDBRANCH   8  20
BRANCH   7  29
HETATM   29  N4  UNL     1      27.840   2.458  54.069  1.00  0.00    -0.396 N 
HETATM   30  H14 UNL     1      28.205   2.647  55.025  1.00  0.00     0.156 HD
HETATM   31  H15 UNL     1      28.289   3.001  53.302  1.00  0.00     0.156 HD
ENDBRANCH   7  29
TORSDOF 7
ENDMDL
MODEL 3
REMARK VINA RESULT:      -7.6      1.656      2.352
REMARK  7 active torsions:
REMARK  status: ('A' for Active; 'I' for Inactive)
REMARK    1  A    between atoms: N1_2  and  C3_4 
REMARK    2  A    between atoms: C3_4  and  C4_5 
REMARK    3  A    between atoms: C5_6  and  C6_7 
REMARK       I    between atoms: C6_7  and  N2_9 
REMARK    4  A    between atoms: N2_9  and  C7_10 
REMARK    5  A    between atoms: C12_16  and  N4_17 
REMARK    6  A    between atoms: C13_18  and  N5_19 
REMARK    7  A    between atoms: N5_19  and  C14_20 
ROOT
HETATM    1  C7  UNL     1      24.763   3.655  49.913  1.00  0.00     0.019 A 
HETATM    2  C8  UNL     1      24.833   2.980  51.056  1.00  0.00     0.041 A 
HETATM    3  C9  UNL     1      23.713   2.055  51.214  1.00  0.00     0.020 A 
HETATM    4  C10 UNL     1      22.956   2.229  50.062  1.00  0.00     0.052 A 
HETATM    5  N3  UNL     1      21.837   1.526  49.870  1.00  0.00    -0.262 NA
HETATM    6  C11 UNL     1      21.440   0.630  50.818  1.00  0.00     0.148 A 
HETATM    7  C12 UNL     1      22.165   0.425  51.981  1.00  0.00     0.071 A 
HETATM    8  C13 UNL     1      23.324   1.154  52.179  1.00  0.00     0.073 A 
HETATM    9  C20 UNL     1      23.565   3.253  49.161  1.00  0.00     0.117 A 
ENDROOT
BRANCH   1  10
HETATM   10  N2  UNL     1      25.681   4.633  49.437  1.00  0.00    -0.327 N 
HETATM   11  C6  UNL     1      27.006   4.341  49.007  1.00  0.00     0.245 C 
HETATM   12  O1  UNL     1      27.112   3.103  49.155  1.00  0.00    -0.268 OA
HETATM   13  H11 UNL     1      25.173   5.565  49.479  1.00  0.00     0.169 HD
BRANCH  11  14
HETATM   14  C5  UNL     1      27.814   5.455  48.552  1.00  0.00     0.072 C 
HETATM   15  C4  UNL     1      27.844   6.741  48.280  1.00  0.00     0.008 C 
BRANCH  15  16
HETATM   16  C3  UNL     1      26.973   7.935  48.281  1.00  0.00     0.299 C 
BRANCH  16  17
HETATM   17  N1  UNL     1      26.166   8.043  47.069  1.00  0.00     0.083 N 
HETATM   18  C1  UNL     1      24.840   7.555  47.401  1.00  0.00     0.309 C 
HETATM   19  C2  UNL     1      26.157   9.379  46.568  1.00  0.00     0.309 C 
ENDBRANCH  16  17
ENDBRANCH  15  16
ENDBRANCH  11  14
ENDBRANCH   1  10
BRANCH   8  20
HETATM   20  N5  UNL     1      24.166   1.047  53.319  1.00  0.00    -0.354 N 
HETATM   21  H16 UNL     1      23.764   1.449  54.187  1.00  0.00     0.166 HD
BRANCH  20  22
HETATM   22  C14 UNL     1      25.453   0.449  53.301  1.00  0.00     0.033 A 
HETATM   23  C15 UNL     1      25.635  -0.834  52.829  1.00  0.00     0.029 A 
HETATM   24  C16 UNL     1      26.899  -1.411  52.815  1.00  0.00     0.004 A 
HETATM   25  C17 UNL     1      27.953  -0.635  53.297  1.00  0.00     0.019 A 
HETATM   26  C18 UNL     1      27.787   0.648  53.773  1.00  0.00     0.013 A 
HETATM   27 BR1  UNL     1      29.310   1.593  54.400  1.00  0.00    -0.051 Br
HETATM   28  C19 UNL     1      26.525   1.178  53.768  1.00  0.00     0.048 A 
ENDBRANCH  20  22
ENDBRANCH   8  20
BRANCH   7  29
HETATM   29  N4  UNL     1      21.784  -0.495  52.983  1.00  0.00    -0.396 N 
HETATM   30  H14 UNL     1      20.785  -0.423  53.266  1.00  0.00     0.156 HD
HETATM   31  H15 UNL     1      22.338  -1.226  53.477  1.00  0.00     0.156 HD
ENDBRANCH   7  29
TORSDOF 7
ENDMDL
MODEL 4
REMARK VINA RESULT:      -7.5      4.317      9.806
REMARK  7 active torsions:
REMARK  status: ('A' for Active; 'I' for Inactive)
REMARK    1  A    between atoms: N1_2  and  C3_4 
REMARK    2  A    between atoms: C3_4  and  C4_5 
REMARK    3  A    between atoms: C5_6  and  C6_7 
REMARK       I    between atoms: C6_7  and  N2_9 
REMARK    4  A    between atoms: N2_9  and  C7_10 
REMARK    5  A    between atoms: C12_16  and  N4_17 
REMARK    6  A    between atoms: C13_18  and  N5_19 
REMARK    7  A    between atoms: N5_19  and  C14_20 
ROOT
HETATM    1  C7  UNL     1      22.319  -0.049  53.151  1.00  0.00     0.019 A 
HETATM    2  C8  UNL     1      22.909   1.136  53.019  1.00  0.00     0.041 A 
HETATM    3  C9  UNL     1      24.322   1.086  53.384  1.00  0.00     0.020 A 
HETATM    4  C10 UNL     1      24.539  -0.237  53.750  1.00  0.00     0.052 A 
HETATM    5  N3  UNL     1      25.747  -0.644  54.147  1.00  0.00    -0.262 NA
HETATM    6  C11 UNL     1      26.774   0.252  54.192  1.00  0.00     0.148 A 
HETATM    7  C12 UNL     1      26.601   1.580  53.835  1.00  0.00     0.071 A 
HETATM    8  C13 UNL     1      25.350   2.001  53.424  1.00  0.00     0.073 A 
HETATM    9  C20 UNL     1      23.289  -1.046  53.630  1.00  0.00     0.117 A 
ENDROOT
BRANCH   1  10
HETATM   10  N2  UNL     1      20.957  -0.363  52.884  1.00  0.00    -0.327 N 
HETATM   11  C6  UNL     1      20.096  -1.024  53.805  1.00  0.00     0.245 C 
HETATM   12  O1  UNL     1      20.815  -1.225  54.809  1.00  0.00    -0.268 OA
HETATM   13  H11 UNL     1      20.755  -0.010  51.903  1.00  0.00     0.169 HD
BRANCH  11  14
HETATM   14  C5  UNL     1      18.734  -1.271  53.376  1.00  0.00     0.072 C 
HETATM   15  C4  UNL     1      17.748  -2.139  53.322  1.00  0.00     0.008 C 
BRANCH  15  16
HETATM   16  C3  UNL     1      17.417  -3.526  53.713  1.00  0.00     0.299 C 
BRANCH  16  17
HETATM   17  N1  UNL     1      16.234  -4.036  53.026  1.00  0.00     0.083 N 
HETATM   18  C1  UNL     1      15.503  -4.840  53.988  1.00  0.00     0.309 C 
HETATM   19  C2  UNL     1      15.452  -2.974  52.481  1.00  0.00     0.309 C 
ENDBRANCH  16  17
ENDBRANCH  15  16
ENDBRANCH  11  14
ENDBRANCH   1  10
BRANCH   8  20
HETATM   20  N5  UNL     1      25.029   3.328  53.029  1.00  0.00    -0.354 N 
HETATM   21  H16 UNL     1      24.970   4.006  53.812  1.00  0.00     0.166 HD
BRANCH  20  22
HETATM   22  C14 UNL     1      24.798   3.722  51.684  1.00  0.00     0.033 A 
HETATM   23  C15 UNL     1      25.679   3.377  50.681  1.00  0.00     0.029 A 
HETATM   24  C16 UNL     1      25.446   3.766  49.368  1.00  0.00     0.004 A 
HETATM   25  C17 UNL     1      24.292   4.512  49.127  1.00  0.00     0.019 A 
HETATM   26  C18 UNL     1      23.403   4.865  50.119  1.00  0.00     0.013 A 
HETATM   27 BR1  UNL     1      21.870   5.883  49.650  1.00  0.00    -0.051 Br
HETATM   28  C19 UNL     1      23.671   4.461  51.398  1.00  0.00     0.048 A 
ENDBRANCH  20  22
ENDBRANCH   8  20
BRANCH   7  29
HETATM   29  N4  UNL     1      27.642   2.535  53.868  1.00  0.00    -0.396 N 
HETATM   30  H14 UNL     1      28.077   2.654  54.806  1.00  0.00     0.156 HD
HETATM   31  H15 UNL     1      28.038   3.130  53.111  1.00  0.00     0.156 HD
ENDBRANCH   7  29
TORSDOF 7
ENDMDL
MODEL 5
REMARK VINA RESULT:      -7.4      2.872      4.748
REMARK  7 active torsions:
REMARK  status: ('A' for Active; 'I' for Inactive)
REMARK    1  A    between atoms: N1_2  and  C3_4 
REMARK    2  A    between atoms: C3_4  and  C4_5 
REMARK    3  A    between atoms: C5_6  and  C6_7 
REMARK       I    between atoms: C6_7  and  N2_9 
REMARK    4  A    between atoms: N2_9  and  C7_10 
REMARK    5  A    between atoms: C12_16  and  N4_17 
REMARK    6  A    between atoms: C13_18  and  N5_19 
REMARK    7  A    between atoms: N5_19  and  C14_20 
ROOT
HETATM    1  C7  UNL     1      26.020   2.786  51.405  1.00  0.00     0.019 A 
HETATM    2  C8  UNL     1      24.761   2.622  51.802  1.00  0.00     0.041 A 
HETATM    3  C9  UNL     1      24.578   1.369  52.529  1.00  0.00     0.020 A 
HETATM    4  C10 UNL     1      25.839   0.785  52.539  1.00  0.00     0.052 A 
HETATM    5  N3  UNL     1      26.039  -0.394  53.133  1.00  0.00    -0.262 NA
HETATM    6  C11 UNL     1      24.991  -1.026  53.734  1.00  0.00     0.148 A 
HETATM    7  C12 UNL     1      23.717  -0.480  53.748  1.00  0.00     0.071 A 
HETATM    8  C13 UNL     1      23.511   0.741  53.133  1.00  0.00     0.073 A 
HETATM    9  C20 UNL     1      26.837   1.639  51.828  1.00  0.00     0.117 A 
ENDROOT
BRANCH   1  10
HETATM   10  N2  UNL     1      26.553   3.887  50.676  1.00  0.00    -0.327 N 
HETATM   11  C6  UNL     1      26.105   4.279  49.384  1.00  0.00     0.245 C 
HETATM   12  O1  UNL     1      25.201   3.457  49.108  1.00  0.00    -0.268 OA
HETATM   13  H11 UNL     1      27.310   4.312  51.288  1.00  0.00     0.169 HD
BRANCH  11  14
HETATM   14  C5  UNL     1      26.755   5.423  48.777  1.00  0.00     0.072 C 
HETATM   15  C4  UNL     1      27.888   5.932  48.346  1.00  0.00     0.008 C 
BRANCH  15  16
HETATM   16  C3  UNL     1      29.320   5.593  48.211  1.00  0.00     0.299 C 
BRANCH  16  17
HETATM   17  N1  UNL     1      30.170   6.776  48.103  1.00  0.00     0.083 N 
HETATM   18  C1  UNL     1      29.362   7.913  48.504  1.00  0.00     0.309 C 
HETATM   19  C2  UNL     1      31.357   6.635  48.882  1.00  0.00     0.309 C 
ENDBRANCH  16  17
ENDBRANCH  15  16
ENDBRANCH  11  14
ENDBRANCH   1  10
BRANCH   8  20
HETATM   20  N5  UNL     1      22.263   1.419  53.070  1.00  0.00    -0.354 N 
HETATM   21  H16 UNL     1      22.134   2.147  53.798  1.00  0.00     0.166 HD
BRANCH  20  22
HETATM   22  C14 UNL     1      21.257   1.142  52.106  1.00  0.00     0.033 A 
HETATM   23  C15 UNL     1      21.437   1.466  50.778  1.00  0.00     0.029 A 
HETATM   24  C16 UNL     1      20.448   1.191  49.841  1.00  0.00     0.004 A 
HETATM   25  C17 UNL     1      19.285   0.582  50.312  1.00  0.00     0.019 A 
HETATM   26  C18 UNL     1      19.091   0.253  51.637  1.00  0.00     0.013 A 
HETATM   27 BR1  UNL     1      17.458  -0.575  52.141  1.00  0.00    -0.051 Br
HETATM   28  C19 UNL     1      20.090   0.541  52.525  1.00  0.00     0.048 A 
ENDBRANCH  20  22
ENDBRANCH   8  20
BRANCH   7  29
HETATM   29  N4  UNL     1      22.609  -1.106  54.362  1.00  0.00    -0.396 N 
HETATM   30  H14 UNL     1      21.819  -1.298  53.713  1.00  0.00     0.156 HD
HETATM   31  H15 UNL     1      22.462  -1.403  55.349  1.00  0.00     0.156 HD
ENDBRANCH   7  29
TORSDOF 7
ENDMDL
MODEL 6
REMARK VINA RESULT:      -7.4      3.352      6.968
REMARK  7 active torsions:
REMARK  status: ('A' for Active; 'I' for Inactive)
REMARK    1  A    between atoms: N1_2  and  C3_4 
REMARK    2  A    between atoms: C3_4  and  C4_5 
REMARK    3  A    between atoms: C5_6  and  C6_7 
REMARK       I    between atoms: C6_7  and  N2_9 
REMARK    4  A    between atoms: N2_9  and  C7_10 
REMARK    5  A    between atoms: C12_16  and  N4_17 
REMARK    6  A    between atoms: C13_18  and  N5_19 
REMARK    7  A    between atoms: N5_19  and  C14_20 
ROOT
HETATM    1  C7  UNL     1      23.480   3.154  52.501  1.00  0.00     0.019 A 
HETATM    2  C8  UNL     1      24.099   4.302  52.238  1.00  0.00     0.041 A 
HETATM    3  C9  UNL     1      23.216   5.259  51.576  1.00  0.00     0.020 A 
HETATM    4  C10 UNL     1      22.003   4.590  51.460  1.00  0.00     0.052 A 
HETATM    5  N3  UNL     1      20.950   5.182  50.892  1.00  0.00    -0.262 NA
HETATM    6  C11 UNL     1      21.073   6.456  50.422  1.00  0.00     0.148 A 
HETATM    7  C12 UNL     1      22.263   7.160  50.516  1.00  0.00     0.071 A 
HETATM    8  C13 UNL     1      23.353   6.546  51.105  1.00  0.00     0.073 A 
HETATM    9  C20 UNL     1      22.086   3.214  52.035  1.00  0.00     0.117 A 
ENDROOT
BRANCH   1  10
HETATM   10  N2  UNL     1      24.034   2.007  53.136  1.00  0.00    -0.327 N 
HETATM   11  C6  UNL     1      24.760   0.992  52.453  1.00  0.00     0.245 C 
HETATM   12  O1  UNL     1      24.767   1.366  51.259  1.00  0.00    -0.268 OA
HETATM   13  H11 UNL     1      23.790   2.089  54.167  1.00  0.00     0.169 HD
BRANCH  11  14
HETATM   14  C5  UNL     1      25.257  -0.114  53.249  1.00  0.00     0.072 C 
HETATM   15  C4  UNL     1      26.284  -0.890  53.514  1.00  0.00     0.008 C 
BRANCH  15  16
HETATM   16  C3  UNL     1      27.689  -1.113  53.113  1.00  0.00     0.299 C 
BRANCH  16  17
HETATM   17  N1  UNL     1      28.641  -0.512  54.043  1.00  0.00     0.083 N 
HETATM   18  C1  UNL     1      29.945  -1.064  53.727  1.00  0.00     0.309 C 
HETATM   19  C2  UNL     1      28.609   0.913  53.971  1.00  0.00     0.309 C 
ENDBRANCH  16  17
ENDBRANCH  15  16
ENDBRANCH  11  14
ENDBRANCH   1  10
BRANCH   8  20
HETATM   20  N5  UNL     1      24.631   7.144  51.271  1.00  0.00    -0.354 N 
HETATM   21  H16 UNL     1      24.772   7.609  52.188  1.00  0.00     0.166 HD
BRANCH  20  22
HETATM   22  C14 UNL     1      25.650   7.126  50.282  1.00  0.00     0.033 A 
HETATM   23  C15 UNL     1      25.874   6.006  49.511  1.00  0.00     0.029 A 
HETATM   24  C16 UNL     1      26.873   5.997  48.545  1.00  0.00     0.004 A 
HETATM   25  C17 UNL     1      27.622   7.165  48.403  1.00  0.00     0.019 A 
HETATM   26  C18 UNL     1      27.411   8.293  49.166  1.00  0.00     0.013 A 
HETATM   27 BR1  UNL     1      28.506   9.815  48.867  1.00  0.00    -0.051 Br
HETATM   28  C19 UNL     1      26.417   8.258  50.105  1.00  0.00     0.048 A 
ENDBRANCH  20  22
ENDBRANCH   8  20
BRANCH   7  29
HETATM   29  N4  UNL     1      22.426   8.480  50.041  1.00  0.00    -0.396 N 
HETATM   30  H14 UNL     1      21.812   9.177  50.511  1.00  0.00     0.156 HD
HETATM   31  H15 UNL     1      23.055   8.861  49.305  1.00  0.00     0.156 HD
ENDBRANCH   7  29
TORSDOF 7
ENDMDL
MODEL 7
REMARK VINA RESULT:      -7.4      1.588      1.920
REMARK  7 active torsions:
REMARK  status: ('A' for Active; 'I' for Inactive)
REMARK    1  A    between atoms: N1_2  and  C3_4 
REMARK    2  A    between atoms: C3_4  and  C4_5 
REMARK    3  A    between atoms: C5_6  and  C6_7 
REMARK       I    between atoms: C6_7  and  N2_9 
REMARK    4  A    between atoms: N2_9  and  C7_10 
REMARK    5  A    between atoms: C12_16  and  N4_17 
REMARK    6  A    between atoms: C13_18  and  N5_19 
REMARK    7  A    between atoms: N5_19  and  C14_20 
ROOT
HETATM    1  C7  UNL     1      25.442   5.031  49.656  1.00  0.00     0.019 A 
HETATM    2  C8  UNL     1      25.294   4.388  50.811  1.00  0.00     0.041 A 
HETATM    3  C9  UNL     1      23.964   3.797  50.941  1.00  0.00     0.020 A 
HETATM    4  C10 UNL     1      23.316   4.139  49.759  1.00  0.00     0.052 A 
HETATM    5  N3  UNL     1      22.057   3.754  49.537  1.00  0.00    -0.262 NA
HETATM    6  C11 UNL     1      21.406   3.017  50.482  1.00  0.00     0.148 A 
HETATM    7  C12 UNL     1      22.015   2.654  51.674  1.00  0.00     0.071 A 
HETATM    8  C13 UNL     1      23.318   3.054  51.903  1.00  0.00     0.073 A 
HETATM    9  C20 UNL     1      24.204   4.943  48.867  1.00  0.00     0.117 A 
ENDROOT
BRANCH   1  10
HETATM   10  N2  UNL     1      26.601   5.719  49.201  1.00  0.00    -0.327 N 
HETATM   11  C6  UNL     1      27.765   5.074  48.696  1.00  0.00     0.245 C 
HETATM   12  O1  UNL     1      27.495   3.854  48.764  1.00  0.00    -0.268 OA
HETATM   13  H11 UNL     1      26.401   6.755  49.322  1.00  0.00     0.169 HD
BRANCH  11  14
HETATM   14  C5  UNL     1      28.861   5.923  48.274  1.00  0.00     0.072 C 
HETATM   15  C4  UNL     1      29.363   7.137  48.277  1.00  0.00     0.008 C 
BRANCH  15  16
HETATM   16  C3  UNL     1      29.069   8.500  48.770  1.00  0.00     0.299 C 
BRANCH  16  17
HETATM   17  N1  UNL     1      30.233   9.143  49.373  1.00  0.00     0.083 N 
HETATM   18  C1  UNL     1      31.401   8.412  48.918  1.00  0.00     0.309 C 
HETATM   19  C2  UNL     1      30.285  10.532  49.048  1.00  0.00     0.309 C 
ENDBRANCH  16  17
ENDBRANCH  15  16
ENDBRANCH  11  14
ENDBRANCH   1  10
BRANCH   8  20
HETATM   20  N5  UNL     1      24.065   2.755  53.075  1.00  0.00    -0.354 N 
HETATM   21  H16 UNL     1      23.885   3.393  53.873  1.00  0.00     0.166 HD
BRANCH  20  22
HETATM   22  C14 UNL     1      24.989   1.681  53.174  1.00  0.00     0.033 A 
HETATM   23  C15 UNL     1      24.600   0.382  52.922  1.00  0.00     0.029 A 
HETATM   24  C16 UNL     1      25.511  -0.663  53.021  1.00  0.00     0.004 A 
HETATM   25  C17 UNL     1      26.816  -0.329  53.383  1.00  0.00     0.019 A 
HETATM   26  C18 UNL     1      27.220   0.964  53.639  1.00  0.00     0.013 A 
HETATM   27 BR1  UNL     1      29.030   1.276  54.122  1.00  0.00    -0.051 Br
HETATM   28  C19 UNL     1      26.291   1.962  53.529  1.00  0.00     0.048 A 
ENDBRANCH  20  22
ENDBRANCH   8  20
BRANCH   7  29
HETATM   29  N4  UNL     1      21.371   1.892  52.674  1.00  0.00    -0.396 N 
HETATM   30  H14 UNL     1      21.951   1.734  53.524  1.00  0.00     0.156 HD
HETATM   31  H15 UNL     1      20.420   1.470  52.695  1.00  0.00     0.156 HD
ENDBRANCH   7  29
TORSDOF 7
ENDMDL
MODEL 8
REMARK VINA RESULT:      -7.3      3.293      5.186
REMARK  7 active torsions:
REMARK  status: ('A' for Active; 'I' for Inactive)
REMARK    1  A    between atoms: N1_2  and  C3_4 
REMARK    2  A    between atoms: C3_4  and  C4_5 
REMARK    3  A    between atoms: C5_6  and  C6_7 
REMARK       I    between atoms: C6_7  and  N2_9 
REMARK    4  A    between atoms: N2_9  and  C7_10 
REMARK    5  A    between atoms: C12_16  and  N4_17 
REMARK    6  A    between atoms: C13_18  and  N5_19 
REMARK    7  A    between atoms: N5_19  and  C14_20 
ROOT
HETATM    1  C7  UNL     1      26.248   2.525  51.514  1.00  0.00     0.019 A 
HETATM    2  C8  UNL     1      24.949   2.493  51.799  1.00  0.00     0.041 A 
HETATM    3  C9  UNL     1      24.595   1.321  52.597  1.00  0.00     0.020 A 
HETATM    4  C10 UNL     1      25.796   0.644  52.772  1.00  0.00     0.052 A 
HETATM    5  N3  UNL     1      25.841  -0.493  53.469  1.00  0.00    -0.262 NA
HETATM    6  C11 UNL     1      24.694  -0.991  54.012  1.00  0.00     0.148 A 
HETATM    7  C12 UNL     1      23.475  -0.348  53.863  1.00  0.00     0.071 A 
HETATM    8  C13 UNL     1      23.429   0.830  53.141  1.00  0.00     0.073 A 
HETATM    9  C20 UNL     1      26.923   1.356  52.098  1.00  0.00     0.117 A 
ENDROOT
BRANCH   1  10
HETATM   10  N2  UNL     1      26.935   3.517  50.759  1.00  0.00    -0.327 N 
HETATM   11  C6  UNL     1      26.620   3.855  49.413  1.00  0.00     0.245 C 
HETATM   12  O1  UNL     1      25.663   3.103  49.122  1.00  0.00    -0.268 OA
HETATM   13  H11 UNL     1      27.685   3.913  51.399  1.00  0.00     0.169 HD
BRANCH  11  14
HETATM   14  C5  UNL     1      27.420   4.889  48.787  1.00  0.00     0.072 C 
HETATM   15  C4  UNL     1      27.497   6.160  48.460  1.00  0.00     0.008 C 
BRANCH  15  16
HETATM   16  C3  UNL     1      26.727   7.418  48.555  1.00  0.00     0.299 C 
BRANCH  16  17
HETATM   17  N1  UNL     1      26.430   7.793  49.935  1.00  0.00     0.083 N 
HETATM   18  C1  UNL     1      26.610   9.229  50.030  1.00  0.00     0.309 C 
HETATM   19  C2  UNL     1      25.122   7.370  50.318  1.00  0.00     0.309 C 
ENDBRANCH  16  17
ENDBRANCH  15  16
ENDBRANCH  11  14
ENDBRANCH   1  10
BRANCH   8  20
HETATM   20  N5  UNL     1      22.254   1.595  52.909  1.00  0.00    -0.354 N 
HETATM   21  H16 UNL     1      22.111   2.376  53.577  1.00  0.00     0.166 HD
BRANCH  20  22
HETATM   22  C14 UNL     1      21.333   1.336  51.859  1.00  0.00     0.033 A 
HETATM   23  C15 UNL     1      21.659   1.597  50.546  1.00  0.00     0.029 A 
HETATM   24  C16 UNL     1      20.752   1.339  49.525  1.00  0.00     0.004 A 
HETATM   25  C17 UNL     1      19.516   0.813  49.898  1.00  0.00     0.019 A 
HETATM   26  C18 UNL     1      19.174   0.548  51.207  1.00  0.00     0.013 A 
HETATM   27 BR1  UNL     1      17.454  -0.169  51.574  1.00  0.00    -0.051 Br
HETATM   28  C19 UNL     1      20.097   0.816  52.180  1.00  0.00     0.048 A 
ENDBRANCH  20  22
ENDBRANCH   8  20
BRANCH   7  29
HETATM   29  N4  UNL     1      22.268  -0.834  54.413  1.00  0.00    -0.396 N 
HETATM   30  H14 UNL     1      22.395  -1.617  55.086  1.00  0.00     0.156 HD
HETATM   31  H15 UNL     1      21.283  -0.534  54.254  1.00  0.00     0.156 HD
ENDBRANCH   7  29
TORSDOF 7
ENDMDL
MODEL 9
REMARK VINA RESULT:      -7.3      3.568      4.751
REMARK  7 active torsions:
REMARK  status: ('A' for Active; 'I' for Inactive)
REMARK    1  A    between atoms: N1_2  and  C3_4 
REMARK    2  A    between atoms: C3_4  and  C4_5 
REMARK    3  A    between atoms: C5_6  and  C6_7 
REMARK       I    between atoms: C6_7  and  N2_9 
REMARK    4  A    between atoms: N2_9  and  C7_10 
REMARK    5  A    between atoms: C12_16  and  N4_17 
REMARK    6  A    between atoms: C13_18  and  N5_19 
REMARK    7  A    between atoms: N5_19  and  C14_20 
ROOT
HETATM    1  C7  UNL     1      22.074   1.836  50.900  1.00  0.00     0.019 A 
HETATM    2  C8  UNL     1      23.051   1.070  51.378  1.00  0.00     0.041 A 
HETATM    3  C9  UNL     1      22.691   0.461  52.655  1.00  0.00     0.020 A 
HETATM    4  C10 UNL     1      21.406   0.925  52.911  1.00  0.00     0.052 A 
HETATM    5  N3  UNL     1      20.758   0.558  54.019  1.00  0.00    -0.262 NA
HETATM    6  C11 UNL     1      21.368  -0.282  54.904  1.00  0.00     0.148 A 
HETATM    7  C12 UNL     1      22.648  -0.768  54.688  1.00  0.00     0.071 A 
HETATM    8  C13 UNL     1      23.318  -0.387  53.540  1.00  0.00     0.073 A 
HETATM    9  C20 UNL     1      20.928   1.827  51.821  1.00  0.00     0.117 A 
ENDROOT
BRANCH   1  10
HETATM   10  N2  UNL     1      22.083   2.578  49.685  1.00  0.00    -0.327 N 
HETATM   11  C6  UNL     1      21.711   2.041  48.421  1.00  0.00     0.245 C 
HETATM   12  O1  UNL     1      21.407   0.852  48.667  1.00  0.00    -0.268 OA
HETATM   13  H11 UNL     1      22.411   3.557  49.935  1.00  0.00     0.169 HD
BRANCH  11  14
HETATM   14  C5  UNL     1      21.777   2.932  47.279  1.00  0.00     0.072 C 
HETATM   15  C4  UNL     1      22.065   4.142  46.856  1.00  0.00     0.008 C 
BRANCH  15  16
HETATM   16  C3  UNL     1      22.545   5.449  47.355  1.00  0.00     0.299 C 
BRANCH  16  17
HETATM   17  N1  UNL     1      22.942   5.402  48.759  1.00  0.00     0.083 N 
HETATM   18  C1  UNL     1      24.372   5.642  48.801  1.00  0.00     0.309 C 
HETATM   19  C2  UNL     1      22.199   6.337  49.540  1.00  0.00     0.309 C 
ENDBRANCH  16  17
ENDBRANCH  15  16
ENDBRANCH  11  14
ENDBRANCH   1  10
BRANCH   8  20
HETATM   20  N5  UNL     1      24.630  -0.808  53.189  1.00  0.00    -0.354 N 
HETATM   21  H16 UNL     1      24.675  -1.744  52.744  1.00  0.00     0.166 HD
BRANCH  20  22
HETATM   22  C14 UNL     1      25.799  -0.034  53.417  1.00  0.00     0.033 A 
HETATM   23  C15 UNL     1      25.720   1.321  53.659  1.00  0.00     0.029 A 
HETATM   24  C16 UNL     1      26.869   2.069  53.882  1.00  0.00     0.004 A 
HETATM   25  C17 UNL     1      28.084   1.386  53.846  1.00  0.00     0.019 A 
HETATM   26  C18 UNL     1      28.179   0.032  53.604  1.00  0.00     0.013 A 
HETATM   27 BR1  UNL     1      29.900  -0.772  53.584  1.00  0.00    -0.051 Br
HETATM   28  C19 UNL     1      27.023  -0.667  53.391  1.00  0.00     0.048 A 
ENDBRANCH  20  22
ENDBRANCH   8  20
BRANCH   7  29
HETATM   29  N4  UNL     1      23.309  -1.639  55.582  1.00  0.00    -0.396 N 
HETATM   30  H14 UNL     1      24.328  -1.453  55.678  1.00  0.00     0.156 HD
HETATM   31  H15 UNL     1      22.942  -2.428  56.154  1.00  0.00     0.156 HD
ENDBRANCH   7  29
TORSDOF 7
ENDMDL
