MODEL 1
REMARK VINA RESULT:      -8.2      0.000      0.000
REMARK  4 active torsions:
REMARK  status: ('A' for Active; 'I' for Inactive)
REMARK    1  A    between atoms: C7_9  and  S1_10 
REMARK    2  A    between atoms: S1_10  and  C8_12 
REMARK    3  A    between atoms: C9_13  and  C10_14 
REMARK    4  A    between atoms: C14_18  and  O2_19 
ROOT
HETATM    1  N1  UNL     1      21.186   2.632  50.378  1.00  0.00    -0.191 NA
HETATM    2  C1  UNL     1      21.207   1.826  51.230  1.00  0.00     0.101 C 
HETATM    3  C2  UNL     1      21.222   0.811  52.272  1.00  0.00     0.067 A 
HETATM    4  C3  UNL     1      20.074   0.084  52.548  1.00  0.00     0.066 A 
HETATM    5  C4  UNL     1      20.101  -0.881  53.544  1.00  0.00     0.117 A 
HETATM    6  F1  UNL     1      18.979  -1.592  53.814  1.00  0.00    -0.206 F 
HETATM    7  C5  UNL     1      21.271  -1.126  54.268  1.00  0.00     0.044 A 
HETATM    8  C6  UNL     1      22.418  -0.408  53.999  1.00  0.00     0.026 A 
HETATM    9  C7  UNL     1      22.382   0.564  52.994  1.00  0.00     0.056 A 
ENDROOT
BRANCH   9  10
HETATM   10  S1  UNL     1      23.825   1.502  52.621  1.00  0.00     0.075 S 
HETATM   11  O1  UNL     1      23.769   2.916  53.127  1.00  0.00    -0.248 OA
BRANCH  10  12
HETATM   12  C8  UNL     1      25.325   0.664  52.919  1.00  0.00     0.085 C 
HETATM   13  C9  UNL     1      26.526   0.776  52.419  1.00  0.00     0.021 C 
BRANCH  13  14
HETATM   14  C10 UNL     1      27.650  -0.055  52.835  1.00  0.00    -0.033 A 
HETATM   15  C11 UNL     1      28.786   0.595  53.271  1.00  0.00     0.011 A 
HETATM   16  C12 UNL     1      29.853  -0.184  53.666  1.00  0.00     0.004 A 
HETATM   17  C13 UNL     1      29.752  -1.574  53.612  1.00  0.00     0.036 A 
HETATM   18  C14 UNL     1      28.598  -2.186  53.170  1.00  0.00     0.066 A 
HETATM   19  C15 UNL     1      27.517  -1.427  52.770  1.00  0.00     0.048 A 
BRANCH  18  20
HETATM   20  O2  UNL     1      28.516  -3.565  53.124  1.00  0.00    -0.361 OA
HETATM   21  H9  UNL     1      28.608  -4.059  54.022  1.00  0.00     0.217 HD
ENDBRANCH  18  20
ENDBRANCH  13  14
ENDBRANCH  10  12
ENDBRANCH   9  10
TORSDOF 4
ENDMDL
MODEL 2
REMARK VINA RESULT:      -8.2      3.584      7.334
REMARK  4 active torsions:
REMARK  status: ('A' for Active; 'I' for Inactive)
REMARK    1  A    between atoms: C7_9  and  S1_10 
REMARK    2  A    between atoms: S1_10  and  C8_12 
REMARK    3  A    between atoms: C9_13  and  C10_14 
REMARK    4  A    between atoms: C14_18  and  O2_19 
ROOT
HETATM    1  N1  UNL     1      28.962   2.589  54.116  1.00  0.00    -0.191 NA
HETATM    2  C1  UNL     1      28.647   1.512  53.774  1.00  0.00     0.101 C 
HETATM    3  C2  UNL     1      28.259   0.168  53.372  1.00  0.00     0.067 A 
HETATM    4  C3  UNL     1      29.067  -0.911  53.694  1.00  0.00     0.066 A 
HETATM    5  C4  UNL     1      28.687  -2.187  53.305  1.00  0.00     0.117 A 
HETATM    6  F1  UNL     1      29.477  -3.243  53.620  1.00  0.00    -0.206 F 
HETATM    7  C5  UNL     1      27.501  -2.393  52.595  1.00  0.00     0.044 A 
HETATM    8  C6  UNL     1      26.691  -1.324  52.271  1.00  0.00     0.026 A 
HETATM    9  C7  UNL     1      27.082  -0.040  52.666  1.00  0.00     0.056 A 
ENDROOT
BRANCH   9  10
HETATM   10  S1  UNL     1      26.076   1.349  52.271  1.00  0.00     0.075 S 
HETATM   11  O1  UNL     1      26.599   2.162  51.120  1.00  0.00    -0.248 OA
BRANCH  10  12
HETATM   12  C8  UNL     1      24.366   1.010  52.225  1.00  0.00     0.085 C 
HETATM   13  C9  UNL     1      23.493   0.688  53.142  1.00  0.00     0.021 C 
BRANCH  13  14
HETATM   14  C10 UNL     1      22.083   0.447  52.859  1.00  0.00    -0.033 A 
HETATM   15  C11 UNL     1      21.525   1.139  51.804  1.00  0.00     0.011 A 
HETATM   16  C12 UNL     1      20.192   0.916  51.531  1.00  0.00     0.004 A 
HETATM   17  C13 UNL     1      19.466   0.018  52.312  1.00  0.00     0.036 A 
HETATM   18  C14 UNL     1      20.060  -0.655  53.359  1.00  0.00     0.066 A 
HETATM   19  C15 UNL     1      21.394  -0.449  53.652  1.00  0.00     0.048 A 
BRANCH  18  20
HETATM   20  O2  UNL     1      19.325  -1.542  54.122  1.00  0.00    -0.361 OA
HETATM   21  H9  UNL     1      19.836  -2.352  54.501  1.00  0.00     0.217 HD
ENDBRANCH  18  20
ENDBRANCH  13  14
ENDBRANCH  10  12
ENDBRANCH   9  10
TORSDOF 4
ENDMDL
MODEL 3
REMARK VINA RESULT:      -7.9      4.549      5.770
REMARK  4 active torsions:
REMARK  status: ('A' for Active; 'I' for Inactive)
REMARK    1  A    between atoms: C7_9  and  S1_10 
REMARK    2  A    between atoms: S1_10  and  C8_12 
REMARK    3  A    between atoms: C9_13  and  C10_14 
REMARK    4  A    between atoms: C14_18  and  O2_19 
ROOT
HETATM    1  N1  UNL     1      22.252   5.343  50.499  1.00  0.00    -0.191 NA
HETATM    2  C1  UNL     1      23.351   5.295  50.094  1.00  0.00     0.101 C 
HETATM    3  C2  UNL     1      24.719   5.257  49.599  1.00  0.00     0.067 A 
HETATM    4  C3  UNL     1      25.202   6.295  48.818  1.00  0.00     0.066 A 
HETATM    5  C4  UNL     1      26.507   6.248  48.352  1.00  0.00     0.117 A 
HETATM    6  F1  UNL     1      26.980   7.264  47.588  1.00  0.00    -0.206 F 
HETATM    7  C5  UNL     1      27.337   5.167  48.662  1.00  0.00     0.044 A 
HETATM    8  C6  UNL     1      26.864   4.129  49.439  1.00  0.00     0.026 A 
HETATM    9  C7  UNL     1      25.546   4.184  49.904  1.00  0.00     0.056 A 
ENDROOT
BRANCH   9  10
HETATM   10  S1  UNL     1      24.906   2.880  50.898  1.00  0.00     0.075 S 
HETATM   11  O1  UNL     1      23.717   2.190  50.291  1.00  0.00    -0.248 OA
BRANCH  10  12
HETATM   12  C8  UNL     1      26.120   1.820  51.564  1.00  0.00     0.085 C 
HETATM   13  C9  UNL     1      26.061   0.687  52.212  1.00  0.00     0.021 C 
BRANCH  13  14
HETATM   14  C10 UNL     1      27.239  -0.033  52.681  1.00  0.00    -0.033 A 
HETATM   15  C11 UNL     1      28.276   0.721  53.189  1.00  0.00     0.011 A 
HETATM   16  C12 UNL     1      29.393   0.047  53.635  1.00  0.00     0.004 A 
HETATM   17  C13 UNL     1      29.438  -1.344  53.559  1.00  0.00     0.036 A 
HETATM   18  C14 UNL     1      28.379  -2.063  53.045  1.00  0.00     0.066 A 
HETATM   19  C15 UNL     1      27.249  -1.410  52.593  1.00  0.00     0.048 A 
BRANCH  18  20
HETATM   20  O2  UNL     1      28.441  -3.442  52.979  1.00  0.00    -0.361 OA
HETATM   21  H9  UNL     1      28.011  -3.957  53.759  1.00  0.00     0.217 HD
ENDBRANCH  18  20
ENDBRANCH  13  14
ENDBRANCH  10  12
ENDBRANCH   9  10
TORSDOF 4
ENDMDL
MODEL 4
REMARK VINA RESULT:      -7.8      2.320      3.219
REMARK  4 active torsions:
REMARK  status: ('A' for Active; 'I' for Inactive)
REMARK    1  A    between atoms: C7_9  and  S1_10 
REMARK    2  A    between atoms: S1_10  and  C8_12 
REMARK    3  A    between atoms: C9_13  and  C10_14 
REMARK    4  A    between atoms: C14_18  and  O2_19 
ROOT
HETATM    1  N1  UNL     1      22.793   0.153  53.601  1.00  0.00    -0.191 NA
HETATM    2  C1  UNL     1      22.810   0.685  52.556  1.00  0.00     0.101 C 
HETATM    3  C2  UNL     1      22.807   1.348  51.261  1.00  0.00     0.067 A 
HETATM    4  C3  UNL     1      21.864   0.999  50.307  1.00  0.00     0.066 A 
HETATM    5  C4  UNL     1      21.871   1.638  49.076  1.00  0.00     0.117 A 
HETATM    6  F1  UNL     1      20.949   1.297  48.142  1.00  0.00    -0.206 F 
HETATM    7  C5  UNL     1      22.817   2.627  48.790  1.00  0.00     0.044 A 
HETATM    8  C6  UNL     1      23.759   2.980  49.735  1.00  0.00     0.026 A 
HETATM    9  C7  UNL     1      23.745   2.329  50.974  1.00  0.00     0.056 A 
ENDROOT
BRANCH   9  10
HETATM   10  S1  UNL     1      24.930   2.752  52.205  1.00  0.00     0.075 S 
HETATM   11  O1  UNL     1      24.319   3.309  53.461  1.00  0.00    -0.248 OA
BRANCH  10  12
HETATM   12  C8  UNL     1      26.171   1.551  52.452  1.00  0.00     0.085 C 
HETATM   13  C9  UNL     1      27.045   1.350  53.402  1.00  0.00     0.021 C 
BRANCH  13  14
HETATM   14  C10 UNL     1      28.006   0.253  53.391  1.00  0.00    -0.033 A 
HETATM   15  C11 UNL     1      29.315   0.561  53.697  1.00  0.00     0.011 A 
HETATM   16  C12 UNL     1      30.229  -0.472  53.689  1.00  0.00     0.004 A 
HETATM   17  C13 UNL     1      29.811  -1.764  53.378  1.00  0.00     0.036 A 
HETATM   18  C14 UNL     1      28.491  -2.031  53.077  1.00  0.00     0.066 A 
HETATM   19  C15 UNL     1      27.557  -1.014  53.079  1.00  0.00     0.048 A 
BRANCH  18  20
HETATM   20  O2  UNL     1      28.094  -3.319  52.771  1.00  0.00    -0.361 OA
HETATM   21  H9  UNL     1      27.080  -3.496  52.766  1.00  0.00     0.217 HD
ENDBRANCH  18  20
ENDBRANCH  13  14
ENDBRANCH  10  12
ENDBRANCH   9  10
TORSDOF 4
ENDMDL
MODEL 5
REMARK VINA RESULT:      -7.7      2.623      3.227
REMARK  4 active torsions:
REMARK  status: ('A' for Active; 'I' for Inactive)
REMARK    1  A    between atoms: C7_9  and  S1_10 
REMARK    2  A    between atoms: S1_10  and  C8_12 
REMARK    3  A    between atoms: C9_13  and  C10_14 
REMARK    4  A    between atoms: C14_18  and  O2_19 
ROOT
HETATM    1  N1  UNL     1      23.834   4.271  52.622  1.00  0.00    -0.191 NA
HETATM    2  C1  UNL     1      23.272   3.517  51.921  1.00  0.00     0.101 C 
HETATM    3  C2  UNL     1      22.590   2.586  51.035  1.00  0.00     0.067 A 
HETATM    4  C3  UNL     1      22.238   2.982  49.754  1.00  0.00     0.066 A 
HETATM    5  C4  UNL     1      21.588   2.086  48.918  1.00  0.00     0.117 A 
HETATM    6  F1  UNL     1      21.243   2.472  47.665  1.00  0.00    -0.206 F 
HETATM    7  C5  UNL     1      21.288   0.792  49.354  1.00  0.00     0.044 A 
HETATM    8  C6  UNL     1      21.636   0.390  50.627  1.00  0.00     0.026 A 
HETATM    9  C7  UNL     1      22.290   1.301  51.464  1.00  0.00     0.056 A 
ENDROOT
BRANCH   9  10
HETATM   10  S1  UNL     1      22.751   0.826  53.096  1.00  0.00     0.075 S 
HETATM   11  O1  UNL     1      21.729  -0.036  53.782  1.00  0.00    -0.248 OA
BRANCH  10  12
HETATM   12  C8  UNL     1      24.402   0.285  53.249  1.00  0.00     0.085 C 
HETATM   13  C9  UNL     1      25.324  -0.032  52.379  1.00  0.00     0.021 C 
BRANCH  13  14
HETATM   14  C10 UNL     1      26.665  -0.467  52.752  1.00  0.00    -0.033 A 
HETATM   15  C11 UNL     1      27.567   0.513  53.111  1.00  0.00     0.011 A 
HETATM   16  C12 UNL     1      28.837   0.109  53.465  1.00  0.00     0.004 A 
HETATM   17  C13 UNL     1      29.162  -1.246  53.449  1.00  0.00     0.036 A 
HETATM   18  C14 UNL     1      28.231  -2.196  53.084  1.00  0.00     0.066 A 
HETATM   19  C15 UNL     1      26.953  -1.817  52.726  1.00  0.00     0.048 A 
BRANCH  18  20
HETATM   20  O2  UNL     1      28.571  -3.536  53.074  1.00  0.00    -0.361 OA
HETATM   21  H9  UNL     1      29.272  -3.825  52.379  1.00  0.00     0.217 HD
ENDBRANCH  18  20
ENDBRANCH  13  14
ENDBRANCH  10  12
ENDBRANCH   9  10
TORSDOF 4
ENDMDL
MODEL 6
REMARK VINA RESULT:      -7.4      4.272      5.810
REMARK  4 active torsions:
REMARK  status: ('A' for Active; 'I' for Inactive)
REMARK    1  A    between atoms: C7_9  and  S1_10 
REMARK    2  A    between atoms: S1_10  and  C8_12 
REMARK    3  A    between atoms: C9_13  and  C10_14 
REMARK    4  A    between atoms: C14_18  and  O2_19 
ROOT
HETATM    1  N1  UNL     1      25.450  -0.986  55.376  1.00  0.00    -0.191 NA
HETATM    2  C1  UNL     1      24.614  -0.681  54.612  1.00  0.00     0.101 C 
HETATM    3  C2  UNL     1      23.563  -0.296  53.682  1.00  0.00     0.067 A 
HETATM    4  C3  UNL     1      22.260  -0.716  53.897  1.00  0.00     0.066 A 
HETATM    5  C4  UNL     1      21.267  -0.343  53.004  1.00  0.00     0.117 A 
HETATM    6  F1  UNL     1      19.991  -0.753  53.215  1.00  0.00    -0.206 F 
HETATM    7  C5  UNL     1      21.567   0.450  51.893  1.00  0.00     0.044 A 
HETATM    8  C6  UNL     1      22.862   0.872  51.671  1.00  0.00     0.026 A 
HETATM    9  C7  UNL     1      23.858   0.490  52.577  1.00  0.00     0.056 A 
ENDROOT
BRANCH   9  10
HETATM   10  S1  UNL     1      25.523   1.009  52.329  1.00  0.00     0.075 S 
HETATM   11  O1  UNL     1      26.452  -0.112  51.958  1.00  0.00    -0.248 OA
BRANCH  10  12
HETATM   12  C8  UNL     1      25.690   2.459  51.375  1.00  0.00     0.085 C 
HETATM   13  C9  UNL     1      26.346   2.739  50.281  1.00  0.00     0.021 C 
BRANCH  13  14
HETATM   14  C10 UNL     1      26.336   4.055  49.652  1.00  0.00    -0.033 A 
HETATM   15  C11 UNL     1      25.166   4.782  49.734  1.00  0.00     0.011 A 
HETATM   16  C12 UNL     1      25.149   6.028  49.142  1.00  0.00     0.004 A 
HETATM   17  C13 UNL     1      26.289   6.502  48.494  1.00  0.00     0.036 A 
HETATM   18  C14 UNL     1      27.440   5.744  48.435  1.00  0.00     0.066 A 
HETATM   19  C15 UNL     1      27.482   4.494  49.020  1.00  0.00     0.048 A 
BRANCH  18  20
HETATM   20  O2  UNL     1      28.561   6.231  47.789  1.00  0.00    -0.361 OA
HETATM   21  H9  UNL     1      28.732   5.874  46.839  1.00  0.00     0.217 HD
ENDBRANCH  18  20
ENDBRANCH  13  14
ENDBRANCH  10  12
ENDBRANCH   9  10
TORSDOF 4
ENDMDL
MODEL 7
REMARK VINA RESULT:      -7.4      1.669      2.266
REMARK  4 active torsions:
REMARK  status: ('A' for Active; 'I' for Inactive)
REMARK    1  A    between atoms: C7_9  and  S1_10 
REMARK    2  A    between atoms: S1_10  and  C8_12 
REMARK    3  A    between atoms: C9_13  and  C10_14 
REMARK    4  A    between atoms: C14_18  and  O2_19 
ROOT
HETATM    1  N1  UNL     1      24.826  -1.098  55.295  1.00  0.00    -0.191 NA
HETATM    2  C1  UNL     1      23.816  -0.913  54.729  1.00  0.00     0.101 C 
HETATM    3  C2  UNL     1      22.551  -0.683  54.047  1.00  0.00     0.067 A 
HETATM    4  C3  UNL     1      21.447  -1.464  54.354  1.00  0.00     0.066 A 
HETATM    5  C4  UNL     1      20.247  -1.236  53.697  1.00  0.00     0.117 A 
HETATM    6  F1  UNL     1      19.167  -1.998  53.997  1.00  0.00    -0.206 F 
HETATM    7  C5  UNL     1      20.141  -0.229  52.733  1.00  0.00     0.044 A 
HETATM    8  C6  UNL     1      21.235   0.552  52.422  1.00  0.00     0.026 A 
HETATM    9  C7  UNL     1      22.442   0.315  53.088  1.00  0.00     0.056 A 
ENDROOT
BRANCH   9  10
HETATM   10  S1  UNL     1      23.861   1.290  52.720  1.00  0.00     0.075 S 
HETATM   11  O1  UNL     1      23.793   2.684  53.279  1.00  0.00    -0.248 OA
BRANCH  10  12
HETATM   12  C8  UNL     1      25.381   0.468  52.956  1.00  0.00     0.085 C 
HETATM   13  C9  UNL     1      26.611   0.746  52.614  1.00  0.00     0.021 C 
BRANCH  13  14
HETATM   14  C10 UNL     1      27.746  -0.113  52.929  1.00  0.00    -0.033 A 
HETATM   15  C11 UNL     1      28.924   0.508  53.289  1.00  0.00     0.011 A 
HETATM   16  C12 UNL     1      30.002  -0.299  53.588  1.00  0.00     0.004 A 
HETATM   17  C13 UNL     1      29.870  -1.685  53.518  1.00  0.00     0.036 A 
HETATM   18  C14 UNL     1      28.674  -2.268  53.154  1.00  0.00     0.066 A 
HETATM   19  C15 UNL     1      27.581  -1.481  52.851  1.00  0.00     0.048 A 
BRANCH  18  20
HETATM   20  O2  UNL     1      28.562  -3.644  53.091  1.00  0.00    -0.361 OA
HETATM   21  H9  UNL     1      27.684  -4.013  52.701  1.00  0.00     0.217 HD
ENDBRANCH  18  20
ENDBRANCH  13  14
ENDBRANCH  10  12
ENDBRANCH   9  10
TORSDOF 4
ENDMDL
MODEL 8
REMARK VINA RESULT:      -7.4      1.868      2.315
REMARK  4 active torsions:
REMARK  status: ('A' for Active; 'I' for Inactive)
REMARK    1  A    between atoms: C7_9  and  S1_10 
REMARK    2  A    between atoms: S1_10  and  C8_12 
REMARK    3  A    between atoms: C9_13  and  C10_14 
REMARK    4  A    between atoms: C14_18  and  O2_19 
ROOT
HETATM    1  N1  UNL     1      20.913   2.258  48.557  1.00  0.00    -0.191 NA
HETATM    2  C1  UNL     1      20.895   1.740  49.609  1.00  0.00     0.101 C 
HETATM    3  C2  UNL     1      20.863   1.077  50.905  1.00  0.00     0.067 A 
HETATM    4  C3  UNL     1      19.716   0.415  51.316  1.00  0.00     0.066 A 
HETATM    5  C4  UNL     1      19.698  -0.212  52.552  1.00  0.00     0.117 A 
HETATM    6  F1  UNL     1      18.577  -0.860  52.955  1.00  0.00    -0.206 F 
HETATM    7  C5  UNL     1      20.821  -0.184  53.384  1.00  0.00     0.044 A 
HETATM    8  C6  UNL     1      21.967   0.472  52.982  1.00  0.00     0.026 A 
HETATM    9  C7  UNL     1      21.976   1.104  51.733  1.00  0.00     0.056 A 
ENDROOT
BRANCH   9  10
HETATM   10  S1  UNL     1      23.418   1.952  51.184  1.00  0.00     0.075 S 
HETATM   11  O1  UNL     1      23.222   3.434  51.030  1.00  0.00    -0.248 OA
BRANCH  10  12
HETATM   12  C8  UNL     1      24.886   1.477  51.998  1.00  0.00     0.085 C 
HETATM   13  C9  UNL     1      26.151   1.568  51.686  1.00  0.00     0.021 C 
BRANCH  13  14
HETATM   14  C10 UNL     1      27.227   1.090  52.546  1.00  0.00    -0.033 A 
HETATM   15  C11 UNL     1      27.428  -0.273  52.603  1.00  0.00     0.011 A 
HETATM   16  C12 UNL     1      28.444  -0.733  53.414  1.00  0.00     0.004 A 
HETATM   17  C13 UNL     1      29.218   0.175  54.135  1.00  0.00     0.036 A 
HETATM   18  C14 UNL     1      28.986   1.532  54.051  1.00  0.00     0.066 A 
HETATM   19  C15 UNL     1      27.975   2.016  53.245  1.00  0.00     0.048 A 
BRANCH  18  20
HETATM   20  O2  UNL     1      29.764   2.417  54.773  1.00  0.00    -0.361 OA
HETATM   21  H9  UNL     1      29.484   3.406  54.737  1.00  0.00     0.217 HD
ENDBRANCH  18  20
ENDBRANCH  13  14
ENDBRANCH  10  12
ENDBRANCH   9  10
TORSDOF 4
ENDMDL
MODEL 9
REMARK VINA RESULT:      -7.3      2.903      3.532
REMARK  4 active torsions:
REMARK  status: ('A' for Active; 'I' for Inactive)
REMARK    1  A    between atoms: C7_9  and  S1_10 
REMARK    2  A    between atoms: S1_10  and  C8_12 
REMARK    3  A    between atoms: C9_13  and  C10_14 
REMARK    4  A    between atoms: C14_18  and  O2_19 
ROOT
HETATM    1  N1  UNL     1      25.267   5.490  49.326  1.00  0.00    -0.191 NA
HETATM    2  C1  UNL     1      24.538   4.582  49.458  1.00  0.00     0.101 C 
HETATM    3  C2  UNL     1      23.640   3.445  49.603  1.00  0.00     0.067 A 
HETATM    4  C3  UNL     1      22.851   3.046  48.535  1.00  0.00     0.066 A 
HETATM    5  C4  UNL     1      22.000   1.962  48.685  1.00  0.00     0.117 A 
HETATM    6  F1  UNL     1      21.228   1.570  47.641  1.00  0.00    -0.206 F 
HETATM    7  C5  UNL     1      21.931   1.270  49.898  1.00  0.00     0.044 A 
HETATM    8  C6  UNL     1      22.714   1.661  50.965  1.00  0.00     0.026 A 
HETATM    9  C7  UNL     1      23.569   2.757  50.806  1.00  0.00     0.056 A 
ENDROOT
BRANCH   9  10
HETATM   10  S1  UNL     1      24.584   3.286  52.144  1.00  0.00     0.075 S 
HETATM   11  O1  UNL     1      23.812   3.909  53.273  1.00  0.00    -0.248 OA
BRANCH  10  12
HETATM   12  C8  UNL     1      25.802   2.134  52.623  1.00  0.00     0.085 C 
HETATM   13  C9  UNL     1      26.735   1.495  51.970  1.00  0.00     0.021 C 
BRANCH  13  14
HETATM   14  C10 UNL     1      27.659   0.558  52.599  1.00  0.00    -0.033 A 
HETATM   15  C11 UNL     1      28.776   1.091  53.208  1.00  0.00     0.011 A 
HETATM   16  C12 UNL     1      29.655   0.211  53.805  1.00  0.00     0.004 A 
HETATM   17  C13 UNL     1      29.391  -1.158  53.775  1.00  0.00     0.036 A 
HETATM   18  C14 UNL     1      28.262  -1.651  53.155  1.00  0.00     0.066 A 
HETATM   19  C15 UNL     1      27.367  -0.790  52.551  1.00  0.00     0.048 A 
BRANCH  18  20
HETATM   20  O2  UNL     1      28.016  -3.011  53.136  1.00  0.00    -0.361 OA
HETATM   21  H9  UNL     1      27.147  -3.325  53.588  1.00  0.00     0.217 HD
ENDBRANCH  18  20
ENDBRANCH  13  14
ENDBRANCH  10  12
ENDBRANCH   9  10
TORSDOF 4
ENDMDL
