MODEL 1
REMARK VINA RESULT:      -7.4      0.000      0.000
REMARK  3 active torsions:
REMARK  status: ('A' for Active; 'I' for Inactive)
REMARK    1  A    between atoms: C2_2  and  C3_3 
REMARK       I    between atoms: N1_5  and  C5_6 
REMARK       I    between atoms: C5_6  and  N2_8 
REMARK    2  A    between atoms: N2_8  and  C6_9 
REMARK    3  A    between atoms: C14_17  and  O2_18 
ROOT
HETATM    1  C3  UNL     1      25.010   4.638  49.989  1.00  0.00     0.034 C 
HETATM    2  C4  UNL     1      25.584   3.248  50.238  1.00  0.00     0.136 C 
HETATM    3  N1  UNL     1      25.239   2.845  51.609  1.00  0.00    -0.333 N 
HETATM    4  C5  UNL     1      26.184   1.877  52.062  1.00  0.00     0.322 C 
HETATM    5  O1  UNL     1      27.042   1.655  51.142  1.00  0.00    -0.247 OA
HETATM    6  N2  UNL     1      26.287   1.190  53.293  1.00  0.00    -0.309 N 
HETATM    7  C12 UNL     1      24.122   3.337  52.394  1.00  0.00     0.134 C 
HETATM    8  C13 UNL     1      22.797   3.209  51.697  1.00  0.00     0.084 C 
HETATM    9  C14 UNL     1      22.752   3.826  50.359  1.00  0.00     0.047 C 
HETATM   10  C15 UNL     1      23.612   4.450  49.548  1.00  0.00    -0.049 C 
HETATM   11  C16 UNL     1      23.012   4.890  48.253  1.00  0.00     0.046 C 
HETATM   12  H9  UNL     1      25.524   1.467  53.951  1.00  0.00     0.170 HD
ENDROOT
BRANCH   1  13
HETATM   13  C2  UNL     1      25.825   5.462  49.052  1.00  0.00     0.006 C 
HETATM   14  C1  UNL     1      27.179   4.838  48.800  1.00  0.00     0.006 C 
ENDBRANCH   1  13
BRANCH   6  15
HETATM   15  C6  UNL     1      27.390   0.295  53.345  1.00  0.00     0.036 A 
HETATM   16  C7  UNL     1      28.639   0.735  53.733  1.00  0.00     0.029 A 
HETATM   17  C8  UNL     1      29.634  -0.228  53.745  1.00  0.00     0.002 A 
HETATM   18  C9  UNL     1      29.471  -1.555  53.409  1.00  0.00     0.000 A 
HETATM   19  C10 UNL     1      28.201  -1.937  53.031  1.00  0.00     0.002 A 
HETATM   20  C11 UNL     1      27.156  -1.036  52.992  1.00  0.00     0.029 A 
ENDBRANCH   6  15
BRANCH   9  21
HETATM   21  O2  UNL     1      21.458   3.706  49.836  1.00  0.00    -0.365 OA
HETATM   22  H19 UNL     1      20.981   4.490  49.420  1.00  0.00     0.217 HD
ENDBRANCH   9  21
TORSDOF 3
ENDMDL
MODEL 2
REMARK VINA RESULT:      -7.4      3.296      4.528
REMARK  3 active torsions:
REMARK  status: ('A' for Active; 'I' for Inactive)
REMARK    1  A    between atoms: C2_2  and  C3_3 
REMARK       I    between atoms: N1_5  and  C5_6 
REMARK       I    between atoms: C5_6  and  N2_8 
REMARK    2  A    between atoms: N2_8  and  C6_9 
REMARK    3  A    between atoms: C14_17  and  O2_18 
ROOT
HETATM    1  C3  UNL     1      20.670   2.017  52.708  1.00  0.00     0.034 C 
HETATM    2  C4  UNL     1      21.988   1.323  52.386  1.00  0.00     0.136 C 
HETATM    3  N1  UNL     1      22.296   0.389  53.479  1.00  0.00    -0.333 N 
HETATM    4  C5  UNL     1      23.705   0.164  53.517  1.00  0.00     0.322 C 
HETATM    5  O1  UNL     1      24.270   0.841  52.592  1.00  0.00    -0.247 OA
HETATM    6  N2  UNL     1      24.491  -0.641  54.372  1.00  0.00    -0.309 N 
HETATM    7  C12 UNL     1      21.340  -0.218  54.386  1.00  0.00     0.134 C 
HETATM    8  C13 UNL     1      20.220  -0.932  53.684  1.00  0.00     0.084 C 
HETATM    9  C14 UNL     1      19.493  -0.106  52.703  1.00  0.00     0.047 C 
HETATM   10  C15 UNL     1      19.591   1.135  52.216  1.00  0.00    -0.049 C 
HETATM   11  C16 UNL     1      18.550   1.470  51.200  1.00  0.00     0.046 C 
HETATM   12  H9  UNL     1      23.902  -1.136  55.079  1.00  0.00     0.170 HD
ENDROOT
BRANCH   1  13
HETATM   13  C2  UNL     1      20.586   3.411  52.185  1.00  0.00     0.006 C 
HETATM   14  C1  UNL     1      21.936   4.090  52.200  1.00  0.00     0.006 C 
ENDBRANCH   1  13
BRANCH   6  15
HETATM   15  C6  UNL     1      25.879  -0.588  54.072  1.00  0.00     0.036 A 
HETATM   16  C7  UNL     1      26.398  -1.284  53.000  1.00  0.00     0.029 A 
HETATM   17  C8  UNL     1      27.763  -1.155  52.808  1.00  0.00     0.002 A 
HETATM   18  C9  UNL     1      28.616  -0.404  53.588  1.00  0.00     0.000 A 
HETATM   19  C10 UNL     1      28.041   0.271  54.645  1.00  0.00     0.002 A 
HETATM   20  C11 UNL     1      26.688   0.193  54.903  1.00  0.00     0.029 A 
ENDBRANCH   6  15
BRANCH   9  21
HETATM   21  O2  UNL     1      18.434  -0.848  52.165  1.00  0.00    -0.365 OA
HETATM   22  H19 UNL     1      18.517  -1.322  51.280  1.00  0.00     0.217 HD
ENDBRANCH   9  21
TORSDOF 3
ENDMDL
MODEL 3
REMARK VINA RESULT:      -7.2      2.853      6.504
REMARK  3 active torsions:
REMARK  status: ('A' for Active; 'I' for Inactive)
REMARK    1  A    between atoms: C2_2  and  C3_3 
REMARK       I    between atoms: N1_5  and  C5_6 
REMARK       I    between atoms: C5_6  and  N2_8 
REMARK    2  A    between atoms: N2_8  and  C6_9 
REMARK    3  A    between atoms: C14_17  and  O2_18 
ROOT
HETATM    1  C3  UNL     1      24.256  -0.387  53.263  1.00  0.00     0.034 C 
HETATM    2  C4  UNL     1      24.422   1.120  53.113  1.00  0.00     0.136 C 
HETATM    3  N1  UNL     1      23.525   1.579  52.042  1.00  0.00    -0.333 N 
HETATM    4  C5  UNL     1      24.032   2.796  51.497  1.00  0.00     0.322 C 
HETATM    5  O1  UNL     1      25.111   3.117  52.103  1.00  0.00    -0.247 OA
HETATM    6  N2  UNL     1      23.541   3.622  50.461  1.00  0.00    -0.309 N 
HETATM    7  C12 UNL     1      22.312   0.918  51.595  1.00  0.00     0.134 C 
HETATM    8  C13 UNL     1      21.340   0.635  52.705  1.00  0.00     0.084 C 
HETATM    9  C14 UNL     1      21.911  -0.122  53.834  1.00  0.00     0.047 C 
HETATM   10  C15 UNL     1      23.112  -0.602  54.173  1.00  0.00    -0.049 C 
HETATM   11  C16 UNL     1      23.128  -1.321  55.482  1.00  0.00     0.046 C 
HETATM   12  H9  UNL     1      22.657   3.242  50.055  1.00  0.00     0.170 HD
ENDROOT
BRANCH   1  13
HETATM   13  C2  UNL     1      25.501  -1.085  53.694  1.00  0.00     0.006 C 
HETATM   14  C1  UNL     1      26.566  -1.027  52.624  1.00  0.00     0.006 C 
ENDBRANCH   1  13
BRANCH   6  15
HETATM   15  C6  UNL     1      24.355   4.762  50.219  1.00  0.00     0.036 A 
HETATM   16  C7  UNL     1      25.385   4.714  49.302  1.00  0.00     0.029 A 
HETATM   17  C8  UNL     1      26.107   5.886  49.153  1.00  0.00     0.002 A 
HETATM   18  C9  UNL     1      25.878   7.063  49.833  1.00  0.00     0.000 A 
HETATM   19  C10 UNL     1      24.835   7.051  50.736  1.00  0.00     0.002 A 
HETATM   20  C11 UNL     1      24.068   5.923  50.943  1.00  0.00     0.029 A 
ENDBRANCH   6  15
BRANCH   9  21
HETATM   21  O2  UNL     1      20.905  -0.387  54.771  1.00  0.00    -0.365 OA
HETATM   22  H19 UNL     1      20.940  -0.011  55.705  1.00  0.00     0.217 HD
ENDBRANCH   9  21
TORSDOF 3
ENDMDL
MODEL 4
REMARK VINA RESULT:      -6.8      2.122      3.770
REMARK  3 active torsions:
REMARK  status: ('A' for Active; 'I' for Inactive)
REMARK    1  A    between atoms: C2_2  and  C3_3 
REMARK       I    between atoms: N1_5  and  C5_6 
REMARK       I    between atoms: C5_6  and  N2_8 
REMARK    2  A    between atoms: N2_8  and  C6_9 
REMARK    3  A    between atoms: C14_17  and  O2_18 
ROOT
HETATM    1  C3  UNL     1      21.393   1.289  51.621  1.00  0.00     0.034 C 
HETATM    2  C4  UNL     1      22.663   1.468  52.444  1.00  0.00     0.136 C 
HETATM    3  N1  UNL     1      23.752   1.854  51.535  1.00  0.00    -0.333 N 
HETATM    4  C5  UNL     1      25.001   1.485  52.119  1.00  0.00     0.322 C 
HETATM    5  O1  UNL     1      24.795   0.930  53.252  1.00  0.00    -0.247 OA
HETATM    6  N2  UNL     1      26.324   1.637  51.647  1.00  0.00    -0.309 N 
HETATM    7  C12 UNL     1      23.605   2.508  50.248  1.00  0.00     0.134 C 
HETATM    8  C13 UNL     1      22.796   3.772  50.306  1.00  0.00     0.084 C 
HETATM    9  C14 UNL     1      21.464   3.612  50.918  1.00  0.00     0.047 C 
HETATM   10  C15 UNL     1      20.773   2.625  51.498  1.00  0.00    -0.049 C 
HETATM   11  C16 UNL     1      19.412   3.029  51.959  1.00  0.00     0.046 C 
HETATM   12  H9  UNL     1      26.346   2.104  50.712  1.00  0.00     0.170 HD
ENDROOT
BRANCH   1  13
HETATM   13  C2  UNL     1      20.471   0.251  52.163  1.00  0.00     0.006 C 
HETATM   14  C1  UNL     1      20.896  -0.203  53.540  1.00  0.00     0.006 C 
ENDBRANCH   1  13
BRANCH   6  15
HETATM   15  C6  UNL     1      27.302   1.128  52.545  1.00  0.00     0.036 A 
HETATM   16  C7  UNL     1      28.035   1.977  53.348  1.00  0.00     0.029 A 
HETATM   17  C8  UNL     1      28.957   1.364  54.180  1.00  0.00     0.002 A 
HETATM   18  C9  UNL     1      29.187   0.008  54.262  1.00  0.00     0.000 A 
HETATM   19  C10 UNL     1      28.424  -0.791  53.436  1.00  0.00     0.002 A 
HETATM   20  C11 UNL     1      27.485  -0.257  52.578  1.00  0.00     0.029 A 
ENDBRANCH   6  15
BRANCH   9  21
HETATM   21  O2  UNL     1      20.776   4.831  50.857  1.00  0.00    -0.365 OA
HETATM   22  H19 UNL     1      20.805   5.414  50.036  1.00  0.00     0.217 HD
ENDBRANCH   9  21
TORSDOF 3
ENDMDL
MODEL 5
REMARK VINA RESULT:      -6.7      2.669      3.934
REMARK  3 active torsions:
REMARK  status: ('A' for Active; 'I' for Inactive)
REMARK    1  A    between atoms: C2_2  and  C3_3 
REMARK       I    between atoms: N1_5  and  C5_6 
REMARK       I    between atoms: C5_6  and  N2_8 
REMARK    2  A    between atoms: N2_8  and  C6_9 
REMARK    3  A    between atoms: C14_17  and  O2_18 
ROOT
HETATM    1  C3  UNL     1      26.058   6.594  49.003  1.00  0.00     0.034 C 
HETATM    2  C4  UNL     1      25.383   5.282  49.384  1.00  0.00     0.136 C 
HETATM    3  N1  UNL     1      24.704   5.469  50.675  1.00  0.00    -0.333 N 
HETATM    4  C5  UNL     1      24.565   4.203  51.318  1.00  0.00     0.322 C 
HETATM    5  O1  UNL     1      25.073   3.292  50.579  1.00  0.00    -0.247 OA
HETATM    6  N2  UNL     1      23.989   3.854  52.560  1.00  0.00    -0.309 N 
HETATM    7  C12 UNL     1      24.239   6.729  51.226  1.00  0.00     0.134 C 
HETATM    8  C13 UNL     1      23.342   7.495  50.296  1.00  0.00     0.084 C 
HETATM    9  C14 UNL     1      23.917   7.739  48.961  1.00  0.00     0.047 C 
HETATM   10  C15 UNL     1      25.039   7.412  48.312  1.00  0.00    -0.049 C 
HETATM   11  C16 UNL     1      25.110   7.945  46.919  1.00  0.00     0.046 C 
HETATM   12  H9  UNL     1      23.615   4.693  53.058  1.00  0.00     0.170 HD
ENDROOT
BRANCH   1  13
HETATM   13  C2  UNL     1      27.312   6.415  48.219  1.00  0.00     0.006 C 
HETATM   14  C1  UNL     1      27.961   5.081  48.509  1.00  0.00     0.006 C 
ENDBRANCH   1  13
BRANCH   6  15
HETATM   15  C6  UNL     1      24.054   2.461  52.837  1.00  0.00     0.036 A 
HETATM   16  C7  UNL     1      22.985   1.635  52.558  1.00  0.00     0.029 A 
HETATM   17  C8  UNL     1      23.167   0.298  52.872  1.00  0.00     0.002 A 
HETATM   18  C9  UNL     1      24.304  -0.250  53.425  1.00  0.00     0.000 A 
HETATM   19  C10 UNL     1      25.340   0.625  53.681  1.00  0.00     0.002 A 
HETATM   20  C11 UNL     1      25.237   1.971  53.398  1.00  0.00     0.029 A 
ENDBRANCH   6  15
BRANCH   9  21
HETATM   21  O2  UNL     1      23.027   8.515  48.207  1.00  0.00    -0.365 OA
HETATM   22  H19 UNL     1      22.171   8.132  47.841  1.00  0.00     0.217 HD
ENDBRANCH   9  21
TORSDOF 3
ENDMDL
MODEL 6
REMARK VINA RESULT:      -6.4      1.961      3.265
REMARK  3 active torsions:
REMARK  status: ('A' for Active; 'I' for Inactive)
REMARK    1  A    between atoms: C2_2  and  C3_3 
REMARK       I    between atoms: N1_5  and  C5_6 
REMARK       I    between atoms: C5_6  and  N2_8 
REMARK    2  A    between atoms: N2_8  and  C6_9 
REMARK    3  A    between atoms: C14_17  and  O2_18 
ROOT
HETATM    1  C3  UNL     1      23.369   4.970  48.366  1.00  0.00     0.034 C 
HETATM    2  C4  UNL     1      23.604   4.270  49.698  1.00  0.00     0.136 C 
HETATM    3  N1  UNL     1      25.024   4.413  50.050  1.00  0.00    -0.333 N 
HETATM    4  C5  UNL     1      25.397   3.351  50.927  1.00  0.00     0.322 C 
HETATM    5  O1  UNL     1      24.386   2.598  51.139  1.00  0.00    -0.247 OA
HETATM    6  N2  UNL     1      26.634   3.047  51.539  1.00  0.00    -0.309 N 
HETATM    7  C12 UNL     1      25.921   5.458  49.594  1.00  0.00     0.134 C 
HETATM    8  C13 UNL     1      25.404   6.846  49.848  1.00  0.00     0.084 C 
HETATM    9  C14 UNL     1      24.056   7.100  49.307  1.00  0.00     0.047 C 
HETATM   10  C15 UNL     1      23.116   6.395  48.671  1.00  0.00    -0.049 C 
HETATM   11  C16 UNL     1      21.890   7.179  48.342  1.00  0.00     0.046 C 
HETATM   12  H9  UNL     1      27.370   3.742  51.280  1.00  0.00     0.170 HD
ENDROOT
BRANCH   1  13
HETATM   13  C2  UNL     1      22.301   4.339  47.539  1.00  0.00     0.006 C 
HETATM   14  C1  UNL     1      22.254   2.843  47.744  1.00  0.00     0.006 C 
ENDBRANCH   1  13
BRANCH   6  15
HETATM   15  C6  UNL     1      26.586   1.883  52.353  1.00  0.00     0.036 A 
HETATM   16  C7  UNL     1      26.397   1.981  53.717  1.00  0.00     0.029 A 
HETATM   17  C8  UNL     1      26.369   0.779  54.404  1.00  0.00     0.002 A 
HETATM   18  C9  UNL     1      26.509  -0.471  53.840  1.00  0.00     0.000 A 
HETATM   19  C10 UNL     1      26.694  -0.507  52.474  1.00  0.00     0.002 A 
HETATM   20  C11 UNL     1      26.735   0.647  51.718  1.00  0.00     0.029 A 
ENDBRANCH   6  15
BRANCH   9  21
HETATM   21  O2  UNL     1      23.707   8.436  49.542  1.00  0.00    -0.365 OA
HETATM   22  H19 UNL     1      23.215   8.983  48.853  1.00  0.00     0.217 HD
ENDBRANCH   9  21
TORSDOF 3
ENDMDL
MODEL 7
REMARK VINA RESULT:      -6.3      2.845      7.096
REMARK  3 active torsions:
REMARK  status: ('A' for Active; 'I' for Inactive)
REMARK    1  A    between atoms: C2_2  and  C3_3 
REMARK       I    between atoms: N1_5  and  C5_6 
REMARK       I    between atoms: C5_6  and  N2_8 
REMARK    2  A    between atoms: N2_8  and  C6_9 
REMARK    3  A    between atoms: C14_17  and  O2_18 
ROOT
HETATM    1  C3  UNL     1      22.166   1.525  53.097  1.00  0.00     0.034 C 
HETATM    2  C4  UNL     1      22.587   2.346  51.885  1.00  0.00     0.136 C 
HETATM    3  N1  UNL     1      23.736   3.179  52.267  1.00  0.00    -0.333 N 
HETATM    4  C5  UNL     1      23.794   4.317  51.409  1.00  0.00     0.322 C 
HETATM    5  O1  UNL     1      22.831   4.269  50.570  1.00  0.00    -0.247 OA
HETATM    6  N2  UNL     1      24.700   5.402  51.369  1.00  0.00    -0.309 N 
HETATM    7  C12 UNL     1      24.675   2.907  53.340  1.00  0.00     0.134 C 
HETATM    8  C13 UNL     1      25.301   1.544  53.257  1.00  0.00     0.084 C 
HETATM    9  C14 UNL     1      24.334   0.435  53.173  1.00  0.00     0.047 C 
HETATM   10  C15 UNL     1      23.005   0.309  53.101  1.00  0.00    -0.049 C 
HETATM   11  C16 UNL     1      22.535  -1.106  53.033  1.00  0.00     0.046 C 
HETATM   12  H9  UNL     1      25.434   5.314  52.108  1.00  0.00     0.170 HD
ENDROOT
BRANCH   1  13
HETATM   13  C2  UNL     1      20.704   1.241  53.149  1.00  0.00     0.006 C 
HETATM   14  C1  UNL     1      19.919   2.225  52.311  1.00  0.00     0.006 C 
ENDBRANCH   1  13
BRANCH   6  15
HETATM   15  C6  UNL     1      24.404   6.343  50.346  1.00  0.00     0.036 A 
HETATM   16  C7  UNL     1      23.633   7.455  50.610  1.00  0.00     0.029 A 
HETATM   17  C8  UNL     1      23.413   8.299  49.534  1.00  0.00     0.002 A 
HETATM   18  C9  UNL     1      23.896   8.114  48.257  1.00  0.00     0.000 A 
HETATM   19  C10 UNL     1      24.661   6.984  48.052  1.00  0.00     0.002 A 
HETATM   20  C11 UNL     1      24.925   6.094  49.073  1.00  0.00     0.029 A 
ENDBRANCH   6  15
BRANCH   9  21
HETATM   21  O2  UNL     1      25.025  -0.783  53.170  1.00  0.00    -0.365 OA
HETATM   22  H19 UNL     1      25.437  -1.160  54.008  1.00  0.00     0.217 HD
ENDBRANCH   9  21
TORSDOF 3
ENDMDL
MODEL 8
REMARK VINA RESULT:      -6.2      3.156      4.898
REMARK  3 active torsions:
REMARK  status: ('A' for Active; 'I' for Inactive)
REMARK    1  A    between atoms: C2_2  and  C3_3 
REMARK       I    between atoms: N1_5  and  C5_6 
REMARK       I    between atoms: C5_6  and  N2_8 
REMARK    2  A    between atoms: N2_8  and  C6_9 
REMARK    3  A    between atoms: C14_17  and  O2_18 
ROOT
HETATM    1  C3  UNL     1      27.421   6.682  48.534  1.00  0.00     0.034 C 
HETATM    2  C4  UNL     1      26.414   5.572  48.808  1.00  0.00     0.136 C 
HETATM    3  N1  UNL     1      25.619   5.950  49.986  1.00  0.00    -0.333 N 
HETATM    4  C5  UNL     1      25.101   4.770  50.597  1.00  0.00     0.322 C 
HETATM    5  O1  UNL     1      25.484   3.744  49.938  1.00  0.00    -0.247 OA
HETATM    6  N2  UNL     1      24.288   4.600  51.741  1.00  0.00    -0.309 N 
HETATM    7  C12 UNL     1      25.385   7.298  50.467  1.00  0.00     0.134 C 
HETATM    8  C13 UNL     1      24.832   8.222  49.419  1.00  0.00     0.084 C 
HETATM    9  C14 UNL     1      25.633   8.286  48.183  1.00  0.00     0.047 C 
HETATM   10  C15 UNL     1      26.730   7.691  47.704  1.00  0.00    -0.049 C 
HETATM   11  C16 UNL     1      27.120   8.150  46.339  1.00  0.00     0.046 C 
HETATM   12  H9  UNL     1      24.051   5.518  52.181  1.00  0.00     0.170 HD
ENDROOT
BRANCH   1  13
HETATM   13  C2  UNL     1      28.699   6.196  47.941  1.00  0.00     0.006 C 
HETATM   14  C1  UNL     1      29.880   7.000  48.436  1.00  0.00     0.006 C 
ENDBRANCH   1  13
BRANCH   6  15
HETATM   15  C6  UNL     1      23.988   3.239  52.019  1.00  0.00     0.036 A 
HETATM   16  C7  UNL     1      24.781   2.501  52.874  1.00  0.00     0.029 A 
HETATM   17  C8  UNL     1      24.389   1.187  53.067  1.00  0.00     0.002 A 
HETATM   18  C9  UNL     1      23.296   0.581  52.486  1.00  0.00     0.000 A 
HETATM   19  C10 UNL     1      22.540   1.369  51.642  1.00  0.00     0.002 A 
HETATM   20  C11 UNL     1      22.865   2.687  51.397  1.00  0.00     0.029 A 
ENDBRANCH   6  15
BRANCH   9  21
HETATM   21  O2  UNL     1      25.064   9.222  47.310  1.00  0.00    -0.365 OA
HETATM   22  H19 UNL     1      24.392   9.901  47.628  1.00  0.00     0.217 HD
ENDBRANCH   9  21
TORSDOF 3
ENDMDL
MODEL 9
REMARK VINA RESULT:      -6.2      3.843      5.300
REMARK  3 active torsions:
REMARK  status: ('A' for Active; 'I' for Inactive)
REMARK    1  A    between atoms: C2_2  and  C3_3 
REMARK       I    between atoms: N1_5  and  C5_6 
REMARK       I    between atoms: C5_6  and  N2_8 
REMARK    2  A    between atoms: N2_8  and  C6_9 
REMARK    3  A    between atoms: C14_17  and  O2_18 
ROOT
HETATM    1  C3  UNL     1      23.635   5.265  48.334  1.00  0.00     0.034 C 
HETATM    2  C4  UNL     1      23.090   4.668  49.625  1.00  0.00     0.136 C 
HETATM    3  N1  UNL     1      23.833   3.433  49.913  1.00  0.00    -0.333 N 
HETATM    4  C5  UNL     1      23.028   2.583  50.729  1.00  0.00     0.322 C 
HETATM    5  O1  UNL     1      21.907   3.151  50.961  1.00  0.00    -0.247 OA
HETATM    6  N2  UNL     1      23.285   1.302  51.267  1.00  0.00    -0.309 N 
HETATM    7  C12 UNL     1      25.171   3.108  49.454  1.00  0.00     0.134 C 
HETATM    8  C13 UNL     1      26.190   4.160  49.786  1.00  0.00     0.084 C 
HETATM    9  C14 UNL     1      25.839   5.515  49.322  1.00  0.00     0.047 C 
HETATM   10  C15 UNL     1      24.803   6.092  48.705  1.00  0.00    -0.049 C 
HETATM   11  C16 UNL     1      24.979   7.555  48.467  1.00  0.00     0.046 C 
HETATM   12  H9  UNL     1      24.235   0.958  50.999  1.00  0.00     0.170 HD
ENDROOT
BRANCH   1  13
HETATM   13  C2  UNL     1      22.613   6.001  47.536  1.00  0.00     0.006 C 
HETATM   14  C1  UNL     1      22.254   5.253  46.273  1.00  0.00     0.006 C 
ENDBRANCH   1  13
BRANCH   6  15
HETATM   15  C6  UNL     1      22.206   0.790  52.038  1.00  0.00     0.036 A 
HETATM   16  C7  UNL     1      21.036   0.381  51.431  1.00  0.00     0.029 A 
HETATM   17  C8  UNL     1      20.057  -0.099  52.285  1.00  0.00     0.002 A 
HETATM   18  C9  UNL     1      20.164  -0.196  53.655  1.00  0.00     0.000 A 
HETATM   19  C10 UNL     1      21.356   0.227  54.205  1.00  0.00     0.002 A 
HETATM   20  C11 UNL     1      22.380   0.719  53.422  1.00  0.00     0.029 A 
ENDBRANCH   6  15
BRANCH   9  21
HETATM   21  O2  UNL     1      26.886   6.395  49.624  1.00  0.00    -0.365 OA
HETATM   22  H19 UNL     1      27.850   6.120  49.533  1.00  0.00     0.217 HD
ENDBRANCH   9  21
TORSDOF 3
ENDMDL
