MODEL 1
REMARK VINA RESULT:      -8.7      0.000      0.000
REMARK  5 active torsions:
REMARK  status: ('A' for Active; 'I' for Inactive)
REMARK    1  A    between atoms: N1_5  and  C4_6 
REMARK    2  A    between atoms: C7_9  and  N2_10 
REMARK    3  A    between atoms: C8_11  and  N3_12 
REMARK    4  A    between atoms: C9_13  and  N4_14 
REMARK    5  A    between atoms: N4_14  and  C10_15 
ROOT
HETATM    1  C4  UNL     1      25.318   2.961  52.023  1.00  0.00     0.032 A 
HETATM    2  C5  UNL     1      26.456   2.576  51.484  1.00  0.00     0.031 A 
HETATM    3  C6  UNL     1      27.435   1.954  52.367  1.00  0.00     0.060 A 
HETATM    4  C7  UNL     1      27.172   1.791  53.655  1.00  0.00     0.165 A 
HETATM    5  O1  UNL     1      25.974   2.206  54.173  1.00  0.00    -0.328 OA
HETATM    6  C16 UNL     1      24.935   2.824  53.440  1.00  0.00     0.234 A 
ENDROOT
BRANCH   4   7
HETATM    7  N2  UNL     1      28.014   1.208  54.641  1.00  0.00    -0.218 NA
HETATM    8  C8  UNL     1      28.229  -0.072  54.556  1.00  0.00     0.237 C 
BRANCH   8   9
HETATM    9  N3  UNL     1      27.623  -0.795  53.505  1.00  0.00    -0.237 NA
HETATM   10  C9  UNL     1      26.427  -1.196  53.410  1.00  0.00     0.208 C 
BRANCH  10  11
HETATM   11  N4  UNL     1      25.517  -0.931  54.437  1.00  0.00    -0.351 N 
HETATM   12  H8  UNL     1      25.878  -0.831  55.433  1.00  0.00     0.166 HD
BRANCH  11  13
HETATM   13  C10 UNL     1      24.135  -0.770  54.174  1.00  0.00     0.034 A 
HETATM   14  C11 UNL     1      23.232  -1.179  55.163  1.00  0.00     0.029 A 
HETATM   15  C12 UNL     1      21.868  -1.049  55.013  1.00  0.00     0.004 A 
HETATM   16  C13 UNL     1      21.326  -0.505  53.869  1.00  0.00     0.019 A 
HETATM   17  C14 UNL     1      22.181  -0.098  52.887  1.00  0.00     0.013 A 
HETATM   18 BR1  UNL     1      21.513   0.665  51.273  1.00  0.00    -0.051 Br
HETATM   19  C15 UNL     1      23.535  -0.242  53.070  1.00  0.00     0.048 A 
ENDBRANCH  11  13
ENDBRANCH  10  11
ENDBRANCH   8   9
ENDBRANCH   4   7
BRANCH   1  20
HETATM   20  N1  UNL     1      24.319   3.574  51.221  1.00  0.00    -0.379 N 
HETATM   21  C3  UNL     1      23.224   3.985  52.079  1.00  0.00     0.151 C 
HETATM   22  C2  UNL     1      22.542   5.206  51.613  1.00  0.00     0.016 C 
HETATM   23  C1  UNL     1      22.096   5.673  50.438  1.00  0.00     0.031 C 
HETATM   24 CL1  UNL     1      21.327   7.249  50.440  1.00  0.00    -0.085 Cl
HETATM   25  C20 UNL     1      22.101   5.148  49.079  1.00  0.00     0.019 C 
HETATM   26  C19 UNL     1      22.653   4.117  48.427  1.00  0.00    -0.023 C 
HETATM   27  C18 UNL     1      23.555   3.038  48.954  1.00  0.00     0.047 C 
HETATM   28  C17 UNL     1      24.652   3.621  49.810  1.00  0.00     0.127 C 
ENDBRANCH   1  20
TORSDOF 5
ENDMDL
MODEL 2
REMARK VINA RESULT:      -8.7      3.481      6.443
REMARK  5 active torsions:
REMARK  status: ('A' for Active; 'I' for Inactive)
REMARK    1  A    between atoms: N1_5  and  C4_6 
REMARK    2  A    between atoms: C7_9  and  N2_10 
REMARK    3  A    between atoms: C8_11  and  N3_12 
REMARK    4  A    between atoms: C9_13  and  N4_14 
REMARK    5  A    between atoms: N4_14  and  C10_15 
ROOT
HETATM    1  C4  UNL     1      25.236   2.106  52.179  1.00  0.00     0.032 A 
HETATM    2  C5  UNL     1      24.086   2.057  52.819  1.00  0.00     0.031 A 
HETATM    3  C6  UNL     1      22.957   2.752  52.216  1.00  0.00     0.060 A 
HETATM    4  C7  UNL     1      23.101   3.403  51.071  1.00  0.00     0.165 A 
HETATM    5  O1  UNL     1      24.316   3.428  50.439  1.00  0.00    -0.328 OA
HETATM    6  C16 UNL     1      25.495   2.802  50.905  1.00  0.00     0.234 A 
ENDROOT
BRANCH   4   7
HETATM    7  N2  UNL     1      22.106   4.126  50.358  1.00  0.00    -0.218 NA
HETATM    8  C8  UNL     1      21.527   3.518  49.366  1.00  0.00     0.237 C 
BRANCH   8   9
HETATM    9  N3  UNL     1      21.914   2.194  49.059  1.00  0.00    -0.237 NA
HETATM   10  C9  UNL     1      21.262   1.123  49.224  1.00  0.00     0.208 C 
BRANCH  10  11
HETATM   11  N4  UNL     1      19.979   1.164  49.779  1.00  0.00    -0.351 N 
HETATM   12  H8  UNL     1      19.213   1.693  49.265  1.00  0.00     0.166 HD
BRANCH  11  13
HETATM   13  C10 UNL     1      19.679   0.498  50.991  1.00  0.00     0.034 A 
HETATM   14  C11 UNL     1      18.378   0.009  51.161  1.00  0.00     0.029 A 
HETATM   15  C12 UNL     1      17.989  -0.670  52.297  1.00  0.00     0.004 A 
HETATM   16  C13 UNL     1      18.875  -0.900  53.327  1.00  0.00     0.019 A 
HETATM   17  C14 UNL     1      20.150  -0.436  53.190  1.00  0.00     0.013 A 
HETATM   18 BR1  UNL     1      21.437  -0.712  54.568  1.00  0.00    -0.051 Br
HETATM   19  C15 UNL     1      20.503   0.236  52.045  1.00  0.00     0.048 A 
ENDBRANCH  11  13
ENDBRANCH  10  11
ENDBRANCH   8   9
ENDBRANCH   4   7
BRANCH   1  20
HETATM   20  N1  UNL     1      26.379   1.450  52.710  1.00  0.00    -0.379 N 
HETATM   21  C3  UNL     1      25.959   0.194  53.300  1.00  0.00     0.151 C 
HETATM   22  C2  UNL     1      26.976  -0.868  53.198  1.00  0.00     0.016 C 
HETATM   23  C1  UNL     1      28.300  -0.960  53.389  1.00  0.00     0.031 C 
HETATM   24 CL1  UNL     1      29.045  -2.523  53.117  1.00  0.00    -0.085 Cl
HETATM   25  C20 UNL     1      29.326  -0.007  53.794  1.00  0.00     0.019 C 
HETATM   26  C19 UNL     1      29.418   1.315  53.985  1.00  0.00    -0.023 C 
HETATM   27  C18 UNL     1      28.361   2.370  53.821  1.00  0.00     0.047 C 
HETATM   28  C17 UNL     1      27.614   2.190  52.524  1.00  0.00     0.127 C 
ENDBRANCH   1  20
TORSDOF 5
ENDMDL
MODEL 3
REMARK VINA RESULT:      -8.5      4.322      8.241
REMARK  5 active torsions:
REMARK  status: ('A' for Active; 'I' for Inactive)
REMARK    1  A    between atoms: N1_5  and  C4_6 
REMARK    2  A    between atoms: C7_9  and  N2_10 
REMARK    3  A    between atoms: C8_11  and  N3_12 
REMARK    4  A    between atoms: C9_13  and  N4_14 
REMARK    5  A    between atoms: N4_14  and  C10_15 
ROOT
HETATM    1  C4  UNL     1      25.175   2.500  52.198  1.00  0.00     0.032 A 
HETATM    2  C5  UNL     1      24.294   2.991  53.046  1.00  0.00     0.031 A 
HETATM    3  C6  UNL     1      23.259   3.862  52.503  1.00  0.00     0.060 A 
HETATM    4  C7  UNL     1      23.224   4.137  51.207  1.00  0.00     0.165 A 
HETATM    5  O1  UNL     1      24.161   3.605  50.361  1.00  0.00    -0.328 OA
HETATM    6  C16 UNL     1      25.218   2.748  50.746  1.00  0.00     0.234 A 
ENDROOT
BRANCH   4   7
HETATM    7  N2  UNL     1      22.288   4.963  50.525  1.00  0.00    -0.218 NA
HETATM    8  C8  UNL     1      22.512   6.244  50.532  1.00  0.00     0.237 C 
BRANCH   8   9
HETATM    9  N3  UNL     1      23.653   6.732  51.205  1.00  0.00    -0.237 NA
HETATM   10  C9  UNL     1      24.834   6.853  50.770  1.00  0.00     0.208 C 
BRANCH  10  11
HETATM   11  N4  UNL     1      25.138   6.477  49.458  1.00  0.00    -0.351 N 
HETATM   12  H8  UNL     1      24.345   6.212  48.801  1.00  0.00     0.166 HD
BRANCH  11  13
HETATM   13  C10 UNL     1      26.473   6.464  48.987  1.00  0.00     0.034 A 
HETATM   14  C11 UNL     1      27.090   5.219  48.811  1.00  0.00     0.029 A 
HETATM   15  C12 UNL     1      28.379   5.096  48.340  1.00  0.00     0.004 A 
HETATM   16  C13 UNL     1      29.128   6.207  48.017  1.00  0.00     0.019 A 
HETATM   17  C14 UNL     1      28.555   7.434  48.177  1.00  0.00     0.013 A 
HETATM   18 BR1  UNL     1      29.521   9.021  47.753  1.00  0.00    -0.051 Br
HETATM   19  C15 UNL     1      27.267   7.519  48.649  1.00  0.00     0.048 A 
ENDBRANCH  11  13
ENDBRANCH  10  11
ENDBRANCH   8   9
ENDBRANCH   4   7
BRANCH   1  20
HETATM   20  N1  UNL     1      26.210   1.644  52.659  1.00  0.00    -0.379 N 
HETATM   21  C3  UNL     1      25.608   0.452  53.223  1.00  0.00     0.151 C 
HETATM   22  C2  UNL     1      26.430  -0.759  53.043  1.00  0.00     0.016 C 
HETATM   23  C1  UNL     1      27.726  -1.075  53.177  1.00  0.00     0.031 C 
HETATM   24 CL1  UNL     1      28.191  -2.728  52.822  1.00  0.00    -0.085 Cl
HETATM   25  C20 UNL     1      28.909  -0.322  53.572  1.00  0.00     0.019 C 
HETATM   26  C19 UNL     1      29.227   0.958  53.804  1.00  0.00    -0.023 C 
HETATM   27  C18 UNL     1      28.355   2.178  53.719  1.00  0.00     0.047 C 
HETATM   28  C17 UNL     1      27.544   2.176  52.448  1.00  0.00     0.127 C 
ENDBRANCH   1  20
TORSDOF 5
ENDMDL
MODEL 4
REMARK VINA RESULT:      -8.3      3.377      6.454
REMARK  5 active torsions:
REMARK  status: ('A' for Active; 'I' for Inactive)
REMARK    1  A    between atoms: N1_5  and  C4_6 
REMARK    2  A    between atoms: C7_9  and  N2_10 
REMARK    3  A    between atoms: C8_11  and  N3_12 
REMARK    4  A    between atoms: C9_13  and  N4_14 
REMARK    5  A    between atoms: N4_14  and  C10_15 
ROOT
HETATM    1  C4  UNL     1      25.552   2.041  51.357  1.00  0.00     0.032 A 
HETATM    2  C5  UNL     1      25.903   3.086  50.636  1.00  0.00     0.031 A 
HETATM    3  C6  UNL     1      24.870   3.712  49.821  1.00  0.00     0.060 A 
HETATM    4  C7  UNL     1      23.634   3.235  49.819  1.00  0.00     0.165 A 
HETATM    5  O1  UNL     1      23.312   2.145  50.585  1.00  0.00    -0.328 OA
HETATM    6  C16 UNL     1      24.208   1.439  51.421  1.00  0.00     0.234 A 
ENDROOT
BRANCH   4   7
HETATM    7  N2  UNL     1      22.520   3.726  49.085  1.00  0.00    -0.218 NA
HETATM    8  C8  UNL     1      21.609   4.372  49.751  1.00  0.00     0.237 C 
BRANCH   8   9
HETATM    9  N3  UNL     1      21.778   4.545  51.143  1.00  0.00    -0.237 NA
HETATM   10  C9  UNL     1      21.060   4.100  52.085  1.00  0.00     0.208 C 
BRANCH  10  11
HETATM   11  N4  UNL     1      19.931   3.327  51.800  1.00  0.00    -0.351 N 
HETATM   12  H8  UNL     1      19.155   3.748  51.207  1.00  0.00     0.166 HD
BRANCH  11  13
HETATM   13  C10 UNL     1      19.814   1.995  52.264  1.00  0.00     0.034 A 
HETATM   14  C11 UNL     1      18.736   1.234  51.795  1.00  0.00     0.029 A 
HETATM   15  C12 UNL     1      18.542  -0.078  52.171  1.00  0.00     0.004 A 
HETATM   16  C13 UNL     1      19.412  -0.706  53.036  1.00  0.00     0.019 A 
HETATM   17  C14 UNL     1      20.472   0.009  53.510  1.00  0.00     0.013 A 
HETATM   18 BR1  UNL     1      21.722  -0.785  54.709  1.00  0.00    -0.051 Br
HETATM   19  C15 UNL     1      20.635   1.314  53.114  1.00  0.00     0.048 A 
ENDBRANCH  11  13
ENDBRANCH  10  11
ENDBRANCH   8   9
ENDBRANCH   4   7
BRANCH   1  20
HETATM   20  N1  UNL     1      26.509   1.382  52.175  1.00  0.00    -0.379 N 
HETATM   21  C3  UNL     1      25.980   0.086  52.553  1.00  0.00     0.151 C 
HETATM   22  C2  UNL     1      27.021  -0.946  52.711  1.00  0.00     0.016 C 
HETATM   23  C1  UNL     1      28.230  -1.018  53.287  1.00  0.00     0.031 C 
HETATM   24 CL1  UNL     1      29.081  -2.546  53.178  1.00  0.00    -0.085 Cl
HETATM   25  C20 UNL     1      29.051  -0.067  54.025  1.00  0.00     0.019 C 
HETATM   26  C19 UNL     1      29.031   1.244  54.296  1.00  0.00    -0.023 C 
HETATM   27  C18 UNL     1      28.032   2.283  53.872  1.00  0.00     0.047 C 
HETATM   28  C17 UNL     1      27.713   2.158  52.403  1.00  0.00     0.127 C 
ENDBRANCH   1  20
TORSDOF 5
ENDMDL
MODEL 5
REMARK VINA RESULT:      -8.1      3.231      6.864
REMARK  5 active torsions:
REMARK  status: ('A' for Active; 'I' for Inactive)
REMARK    1  A    between atoms: N1_5  and  C4_6 
REMARK    2  A    between atoms: C7_9  and  N2_10 
REMARK    3  A    between atoms: C8_11  and  N3_12 
REMARK    4  A    between atoms: C9_13  and  N4_14 
REMARK    5  A    between atoms: N4_14  and  C10_15 
ROOT
HETATM    1  C4  UNL     1      24.137   0.631  53.072  1.00  0.00     0.032 A 
HETATM    2  C5  UNL     1      23.358  -0.421  53.216  1.00  0.00     0.031 A 
HETATM    3  C6  UNL     1      21.920  -0.206  53.106  1.00  0.00     0.060 A 
HETATM    4  C7  UNL     1      21.438   1.005  52.871  1.00  0.00     0.165 A 
HETATM    5  O1  UNL     1      22.286   2.072  52.728  1.00  0.00    -0.328 OA
HETATM    6  C16 UNL     1      23.696   2.013  52.810  1.00  0.00     0.234 A 
ENDROOT
BRANCH   4   7
HETATM    7  N2  UNL     1      20.072   1.379  52.738  1.00  0.00    -0.218 NA
HETATM    8  C8  UNL     1      19.540   1.269  51.557  1.00  0.00     0.237 C 
BRANCH   8   9
HETATM    9  N3  UNL     1      20.337   0.792  50.493  1.00  0.00    -0.237 NA
HETATM   10  C9  UNL     1      20.856   1.444  49.542  1.00  0.00     0.208 C 
BRANCH  10  11
HETATM   11  N4  UNL     1      20.666   2.827  49.456  1.00  0.00    -0.351 N 
HETATM   12  H8  UNL     1      19.753   3.198  49.057  1.00  0.00     0.166 HD
BRANCH  11  13
HETATM   13  C10 UNL     1      21.651   3.735  49.911  1.00  0.00     0.034 A 
HETATM   14  C11 UNL     1      21.253   4.734  50.808  1.00  0.00     0.029 A 
HETATM   15  C12 UNL     1      22.138   5.656  51.325  1.00  0.00     0.004 A 
HETATM   16  C13 UNL     1      23.471   5.635  50.976  1.00  0.00     0.019 A 
HETATM   17  C14 UNL     1      23.890   4.674  50.104  1.00  0.00     0.013 A 
HETATM   18 BR1  UNL     1      25.717   4.575  49.571  1.00  0.00    -0.051 Br
HETATM   19  C15 UNL     1      22.980   3.771  49.609  1.00  0.00     0.048 A 
ENDBRANCH  11  13
ENDBRANCH  10  11
ENDBRANCH   8   9
ENDBRANCH   4   7
BRANCH   1  20
HETATM   20  N1  UNL     1      25.548   0.494  53.167  1.00  0.00    -0.379 N 
HETATM   21  C3  UNL     1      26.163   1.737  52.745  1.00  0.00     0.151 C 
HETATM   22  C2  UNL     1      27.424   2.034  53.449  1.00  0.00     0.016 C 
HETATM   23  C1  UNL     1      28.521   1.346  53.797  1.00  0.00     0.031 C 
HETATM   24 CL1  UNL     1      29.776   2.215  54.657  1.00  0.00    -0.085 Cl
HETATM   25  C20 UNL     1      28.939  -0.039  53.617  1.00  0.00     0.019 C 
HETATM   26  C19 UNL     1      28.387  -1.185  53.197  1.00  0.00    -0.023 C 
HETATM   27  C18 UNL     1      26.986  -1.440  52.720  1.00  0.00     0.047 C 
HETATM   28  C17 UNL     1      25.976  -0.808  53.644  1.00  0.00     0.127 C 
ENDBRANCH   1  20
TORSDOF 5
ENDMDL
MODEL 6
REMARK VINA RESULT:      -8.0      3.637      7.586
REMARK  5 active torsions:
REMARK  status: ('A' for Active; 'I' for Inactive)
REMARK    1  A    between atoms: N1_5  and  C4_6 
REMARK    2  A    between atoms: C7_9  and  N2_10 
REMARK    3  A    between atoms: C8_11  and  N3_12 
REMARK    4  A    between atoms: C9_13  and  N4_14 
REMARK    5  A    between atoms: N4_14  and  C10_15 
ROOT
HETATM    1  C4  UNL     1      24.693   1.036  52.335  1.00  0.00     0.032 A 
HETATM    2  C5  UNL     1      23.662   0.463  52.920  1.00  0.00     0.031 A 
HETATM    3  C6  UNL     1      22.338   0.774  52.395  1.00  0.00     0.060 A 
HETATM    4  C7  UNL     1      22.199   1.603  51.372  1.00  0.00     0.165 A 
HETATM    5  O1  UNL     1      23.300   2.178  50.793  1.00  0.00    -0.328 OA
HETATM    6  C16 UNL     1      24.639   1.970  51.195  1.00  0.00     0.234 A 
ENDROOT
BRANCH   4   7
HETATM    7  N2  UNL     1      20.987   2.008  50.746  1.00  0.00    -0.218 NA
HETATM    8  C8  UNL     1      20.468   3.135  51.135  1.00  0.00     0.237 C 
BRANCH   8   9
HETATM    9  N3  UNL     1      21.126   3.879  52.139  1.00  0.00    -0.237 NA
HETATM   10  C9  UNL     1      21.889   4.879  52.007  1.00  0.00     0.208 C 
BRANCH  10  11
HETATM   11  N4  UNL     1      22.171   5.381  50.733  1.00  0.00    -0.351 N 
HETATM   12  H8  UNL     1      21.412   5.355  49.989  1.00  0.00     0.166 HD
BRANCH  11  13
HETATM   13  C10 UNL     1      23.435   5.939  50.425  1.00  0.00     0.034 A 
HETATM   14  C11 UNL     1      23.637   7.294  50.715  1.00  0.00     0.029 A 
HETATM   15  C12 UNL     1      24.836   7.928  50.472  1.00  0.00     0.004 A 
HETATM   16  C13 UNL     1      25.902   7.249  49.924  1.00  0.00     0.019 A 
HETATM   17  C14 UNL     1      25.737   5.928  49.630  1.00  0.00     0.013 A 
HETATM   18 BR1  UNL     1      27.162   4.915  48.871  1.00  0.00    -0.051 Br
HETATM   19  C15 UNL     1      24.528   5.327  49.887  1.00  0.00     0.048 A 
ENDBRANCH  11  13
ENDBRANCH  10  11
ENDBRANCH   8   9
ENDBRANCH   4   7
BRANCH   1  20
HETATM   20  N1  UNL     1      26.011   0.777  52.795  1.00  0.00    -0.379 N 
HETATM   21  C3  UNL     1      26.005  -0.465  53.543  1.00  0.00     0.151 C 
HETATM   22  C2  UNL     1      27.265  -1.223  53.428  1.00  0.00     0.016 C 
HETATM   23  C1  UNL     1      28.573  -0.934  53.481  1.00  0.00     0.031 C 
HETATM   24 CL1  UNL     1      29.698  -2.262  53.275  1.00  0.00    -0.085 Cl
HETATM   25  C20 UNL     1      29.324   0.299  53.679  1.00  0.00     0.019 C 
HETATM   26  C19 UNL     1      29.061   1.611  53.735  1.00  0.00    -0.023 C 
HETATM   27  C18 UNL     1      27.744   2.318  53.591  1.00  0.00     0.047 C 
HETATM   28  C17 UNL     1      26.974   1.791  52.407  1.00  0.00     0.127 C 
ENDBRANCH   1  20
TORSDOF 5
ENDMDL
MODEL 7
REMARK VINA RESULT:      -7.9      3.166      5.097
REMARK  5 active torsions:
REMARK  status: ('A' for Active; 'I' for Inactive)
REMARK    1  A    between atoms: N1_5  and  C4_6 
REMARK    2  A    between atoms: C7_9  and  N2_10 
REMARK    3  A    between atoms: C8_11  and  N3_12 
REMARK    4  A    between atoms: C9_13  and  N4_14 
REMARK    5  A    between atoms: N4_14  and  C10_15 
ROOT
HETATM    1  C4  UNL     1      23.290   4.869  50.169  1.00  0.00     0.032 A 
HETATM    2  C5  UNL     1      22.106   5.094  49.638  1.00  0.00     0.031 A 
HETATM    3  C6  UNL     1      20.942   4.617  50.373  1.00  0.00     0.060 A 
HETATM    4  C7  UNL     1      21.090   3.983  51.527  1.00  0.00     0.165 A 
HETATM    5  O1  UNL     1      22.341   3.770  52.044  1.00  0.00    -0.328 OA
HETATM    6  C16 UNL     1      23.555   4.175  51.442  1.00  0.00     0.234 A 
ENDROOT
BRANCH   4   7
HETATM    7  N2  UNL     1      20.065   3.458  52.362  1.00  0.00    -0.218 NA
HETATM    8  C8  UNL     1      19.700   2.228  52.149  1.00  0.00     0.237 C 
BRANCH   8   9
HETATM    9  N3  UNL     1      20.332   1.498  51.119  1.00  0.00    -0.237 NA
HETATM   10  C9  UNL     1      21.121   0.515  51.218  1.00  0.00     0.208 C 
BRANCH  10  11
HETATM   11  N4  UNL     1      21.468   0.022  52.480  1.00  0.00    -0.351 N 
HETATM   12  H8  UNL     1      20.705  -0.370  53.108  1.00  0.00     0.166 HD
BRANCH  11  13
HETATM   13  C10 UNL     1      22.812   0.014  52.923  1.00  0.00     0.034 A 
HETATM   14  C11 UNL     1      23.114  -0.722  54.075  1.00  0.00     0.029 A 
HETATM   15  C12 UNL     1      24.395  -0.810  54.579  1.00  0.00     0.004 A 
HETATM   16  C13 UNL     1      25.447  -0.168  53.963  1.00  0.00     0.019 A 
HETATM   17  C14 UNL     1      25.185   0.557  52.838  1.00  0.00     0.013 A 
HETATM   18 BR1  UNL     1      26.584   1.474  51.925  1.00  0.00    -0.051 Br
HETATM   19  C15 UNL     1      23.897   0.622  52.363  1.00  0.00     0.048 A 
ENDBRANCH  11  13
ENDBRANCH  10  11
ENDBRANCH   8   9
ENDBRANCH   4   7
BRANCH   1  20
HETATM   20  N1  UNL     1      24.467   5.307  49.506  1.00  0.00    -0.379 N 
HETATM   21  C3  UNL     1      24.082   6.089  48.347  1.00  0.00     0.151 C 
HETATM   22  C2  UNL     1      25.033   7.169  48.028  1.00  0.00     0.016 C 
HETATM   23  C1  UNL     1      26.366   7.290  47.949  1.00  0.00     0.031 C 
HETATM   24 CL1  UNL     1      27.005   8.862  47.511  1.00  0.00    -0.085 Cl
HETATM   25  C20 UNL     1      27.473   6.366  48.155  1.00  0.00     0.019 C 
HETATM   26  C19 UNL     1      27.642   5.126  48.632  1.00  0.00    -0.023 C 
HETATM   27  C18 UNL     1      26.616   4.174  49.175  1.00  0.00     0.047 C 
HETATM   28  C17 UNL     1      25.694   4.869  50.145  1.00  0.00     0.127 C 
ENDBRANCH   1  20
TORSDOF 5
ENDMDL
MODEL 8
REMARK VINA RESULT:      -7.9      3.510      7.099
REMARK  5 active torsions:
REMARK  status: ('A' for Active; 'I' for Inactive)
REMARK    1  A    between atoms: N1_5  and  C4_6 
REMARK    2  A    between atoms: C7_9  and  N2_10 
REMARK    3  A    between atoms: C8_11  and  N3_12 
REMARK    4  A    between atoms: C9_13  and  N4_14 
REMARK    5  A    between atoms: N4_14  and  C10_15 
ROOT
HETATM    1  C4  UNL     1      24.095   0.918  53.015  1.00  0.00     0.032 A 
HETATM    2  C5  UNL     1      23.315  -0.143  53.056  1.00  0.00     0.031 A 
HETATM    3  C6  UNL     1      21.894   0.064  52.806  1.00  0.00     0.060 A 
HETATM    4  C7  UNL     1      21.426   1.276  52.551  1.00  0.00     0.165 A 
HETATM    5  O1  UNL     1      22.274   2.353  52.518  1.00  0.00    -0.328 OA
HETATM    6  C16 UNL     1      23.669   2.302  52.741  1.00  0.00     0.234 A 
ENDROOT
BRANCH   4   7
HETATM    7  N2  UNL     1      20.077   1.644  52.288  1.00  0.00    -0.218 NA
HETATM    8  C8  UNL     1      19.652   1.507  51.067  1.00  0.00     0.237 C 
BRANCH   8   9
HETATM    9  N3  UNL     1      20.541   1.009  50.089  1.00  0.00    -0.237 NA
HETATM   10  C9  UNL     1      21.299   1.656  49.310  1.00  0.00     0.208 C 
BRANCH  10  11
HETATM   11  N4  UNL     1      21.321   3.054  49.356  1.00  0.00    -0.351 N 
HETATM   12  H8  UNL     1      20.406   3.587  49.262  1.00  0.00     0.166 HD
BRANCH  11  13
HETATM   13  C10 UNL     1      22.530   3.764  49.548  1.00  0.00     0.034 A 
HETATM   14  C11 UNL     1      23.728   3.106  49.240  1.00  0.00     0.029 A 
HETATM   15  C12 UNL     1      24.958   3.715  49.373  1.00  0.00     0.004 A 
HETATM   16  C13 UNL     1      25.064   5.014  49.822  1.00  0.00     0.019 A 
HETATM   17  C14 UNL     1      23.915   5.681  50.131  1.00  0.00     0.013 A 
HETATM   18 BR1  UNL     1      23.974   7.479  50.757  1.00  0.00    -0.051 Br
HETATM   19  C15 UNL     1      22.707   5.043  49.985  1.00  0.00     0.048 A 
ENDBRANCH  11  13
ENDBRANCH  10  11
ENDBRANCH   8   9
ENDBRANCH   4   7
BRANCH   1  20
HETATM   20  N1  UNL     1      25.490   0.789  53.249  1.00  0.00    -0.379 N 
HETATM   21  C3  UNL     1      25.720  -0.410  54.032  1.00  0.00     0.151 C 
HETATM   22  C2  UNL     1      27.003  -1.069  53.728  1.00  0.00     0.016 C 
HETATM   23  C1  UNL     1      28.271  -0.674  53.543  1.00  0.00     0.031 C 
HETATM   24 CL1  UNL     1      29.457  -1.917  53.194  1.00  0.00    -0.085 Cl
HETATM   25  C20 UNL     1      28.934   0.623  53.563  1.00  0.00     0.019 C 
HETATM   26  C19 UNL     1      28.570   1.911  53.615  1.00  0.00    -0.023 C 
HETATM   27  C18 UNL     1      27.190   2.502  53.675  1.00  0.00     0.047 C 
HETATM   28  C17 UNL     1      26.280   1.855  52.662  1.00  0.00     0.127 C 
ENDBRANCH   1  20
TORSDOF 5
ENDMDL
MODEL 9
REMARK VINA RESULT:      -7.7      3.456      6.423
REMARK  5 active torsions:
REMARK  status: ('A' for Active; 'I' for Inactive)
REMARK    1  A    between atoms: N1_5  and  C4_6 
REMARK    2  A    between atoms: C7_9  and  N2_10 
REMARK    3  A    between atoms: C8_11  and  N3_12 
REMARK    4  A    between atoms: C9_13  and  N4_14 
REMARK    5  A    between atoms: N4_14  and  C10_15 
ROOT
HETATM    1  C4  UNL     1      24.564   2.793  51.367  1.00  0.00     0.032 A 
HETATM    2  C5  UNL     1      24.990   3.373  50.264  1.00  0.00     0.031 A 
HETATM    3  C6  UNL     1      24.007   4.096  49.467  1.00  0.00     0.060 A 
HETATM    4  C7  UNL     1      22.741   4.156  49.854  1.00  0.00     0.165 A 
HETATM    5  O1  UNL     1      22.341   3.538  51.010  1.00  0.00    -0.328 OA
HETATM    6  C16 UNL     1      23.181   2.803  51.878  1.00  0.00     0.234 A 
ENDROOT
BRANCH   4   7
HETATM    7  N2  UNL     1      21.667   4.815  49.195  1.00  0.00    -0.218 NA
HETATM    8  C8  UNL     1      21.011   4.134  48.302  1.00  0.00     0.237 C 
BRANCH   8   9
HETATM    9  N3  UNL     1      21.399   2.800  48.043  1.00  0.00    -0.237 NA
HETATM   10  C9  UNL     1      20.778   1.732  48.313  1.00  0.00     0.208 C 
BRANCH  10  11
HETATM   11  N4  UNL     1      19.535   1.788  48.953  1.00  0.00    -0.351 N 
HETATM   12  H8  UNL     1      18.759   2.371  48.520  1.00  0.00     0.166 HD
BRANCH  11  13
HETATM   13  C10 UNL     1      19.289   1.066  50.145  1.00  0.00     0.034 A 
HETATM   14  C11 UNL     1      18.018   0.503  50.315  1.00  0.00     0.029 A 
HETATM   15  C12 UNL     1      17.682  -0.233  51.431  1.00  0.00     0.004 A 
HETATM   16  C13 UNL     1      18.593  -0.450  52.441  1.00  0.00     0.019 A 
HETATM   17  C14 UNL     1      19.839   0.087  52.305  1.00  0.00     0.013 A 
HETATM   18 BR1  UNL     1      21.159  -0.166  53.657  1.00  0.00    -0.051 Br
HETATM   19  C15 UNL     1      20.140   0.814  51.180  1.00  0.00     0.048 A 
ENDBRANCH  11  13
ENDBRANCH  10  11
ENDBRANCH   8   9
ENDBRANCH   4   7
BRANCH   1  20
HETATM   20  N1  UNL     1      25.468   2.072  52.191  1.00  0.00    -0.379 N 
HETATM   21  C3  UNL     1      26.808   2.234  51.661  1.00  0.00     0.151 C 
HETATM   22  C2  UNL     1      27.853   2.231  52.701  1.00  0.00     0.016 C 
HETATM   23  C1  UNL     1      28.128   1.500  53.791  1.00  0.00     0.031 C 
HETATM   24 CL1  UNL     1      29.552   1.938  54.714  1.00  0.00    -0.085 Cl
HETATM   25  C20 UNL     1      27.482   0.359  54.426  1.00  0.00     0.019 C 
HETATM   26  C19 UNL     1      26.329  -0.312  54.301  1.00  0.00    -0.023 C 
HETATM   27  C18 UNL     1      25.193  -0.071  53.349  1.00  0.00     0.047 C 
HETATM   28  C17 UNL     1      24.828   1.391  53.301  1.00  0.00     0.127 C 
ENDBRANCH   1  20
TORSDOF 5
ENDMDL
