MODEL 1
REMARK VINA RESULT:      -8.4      0.000      0.000
REMARK  3 active torsions:
REMARK  status: ('A' for Active; 'I' for Inactive)
REMARK    1  A    between atoms: C5_5  and  N1_6 
REMARK       I    between atoms: N1_6  and  C6_7 
REMARK    2  A    between atoms: C6_7  and  C7_9 
REMARK    3  A    between atoms: C11_13  and  N2_14 
ROOT
HETATM    1  C7  UNL     1      22.228  -0.653  53.928  1.00  0.00     0.012 A 
HETATM    2  C8  UNL     1      21.527  -1.734  54.206  1.00  0.00     0.012 A 
HETATM    3  C9  UNL     1      20.090  -1.633  53.987  1.00  0.00    -0.001 A 
HETATM    4  C10 UNL     1      19.676  -0.460  53.535  1.00  0.00     0.009 A 
HETATM    5  C11 UNL     1      20.339   0.819  53.184  1.00  0.00     0.250 A 
HETATM    6  C17 UNL     1      21.814   0.678  53.415  1.00  0.00     0.084 A 
ENDROOT
BRANCH   1   7
HETATM    7  C6  UNL     1      23.672  -0.702  54.131  1.00  0.00     0.252 C 
HETATM    8  N1  UNL     1      24.606  -0.334  53.150  1.00  0.00    -0.323 N 
HETATM    9  H6  UNL     1      24.327   0.001  52.202  1.00  0.00     0.169 HD
HETATM   10  O1  UNL     1      24.308  -1.063  55.167  1.00  0.00    -0.268 OA
BRANCH   8  11
HETATM   11  C5  UNL     1      26.005  -0.334  53.216  1.00  0.00     0.036 A 
HETATM   12  C4  UNL     1      26.789  -1.460  53.007  1.00  0.00     0.030 A 
HETATM   13  C3  UNL     1      28.175  -1.406  53.085  1.00  0.00     0.011 A 
HETATM   14  C2  UNL     1      28.825  -0.226  53.375  1.00  0.00    -0.040 A 
HETATM   15  C1  UNL     1      30.312  -0.219  53.447  1.00  0.00     0.050 C 
HETATM   16  C19 UNL     1      28.048   0.909  53.587  1.00  0.00     0.042 A 
HETATM   17  C18 UNL     1      26.657   0.857  53.508  1.00  0.00     0.053 A 
HETATM   18 CL1  UNL     1      28.926   2.390  53.953  1.00  0.00    -0.084 Cl
ENDBRANCH   8  11
ENDBRANCH   1   7
BRANCH   5  19
HETATM   19  N2  UNL     1      20.042   1.170  51.801  1.00  0.00     0.100 N 
HETATM   20  C12 UNL     1      18.914   0.414  51.296  1.00  0.00     0.303 C 
HETATM   21  C13 UNL     1      18.379   1.066  50.031  1.00  0.00     0.302 C 
HETATM   22  N3  UNL     1      17.714   2.284  50.376  1.00  0.00     0.087 N 
HETATM   23  C14 UNL     1      16.308   2.005  50.647  1.00  0.00     0.310 C 
HETATM   24  C15 UNL     1      18.308   2.915  51.528  1.00  0.00     0.302 C 
HETATM   25  C16 UNL     1      19.780   2.594  51.698  1.00  0.00     0.303 C 
ENDBRANCH   5  19
TORSDOF 3
ENDMDL
MODEL 2
REMARK VINA RESULT:      -8.3      6.466      8.503
REMARK  3 active torsions:
REMARK  status: ('A' for Active; 'I' for Inactive)
REMARK    1  A    between atoms: C5_5  and  N1_6 
REMARK       I    between atoms: N1_6  and  C6_7 
REMARK    2  A    between atoms: C6_7  and  C7_9 
REMARK    3  A    between atoms: C11_13  and  N2_14 
ROOT
HETATM    1  C7  UNL     1      25.578   4.230  50.263  1.00  0.00     0.012 A 
HETATM    2  C8  UNL     1      26.628   3.647  49.723  1.00  0.00     0.012 A 
HETATM    3  C9  UNL     1      27.412   4.467  48.809  1.00  0.00    -0.001 A 
HETATM    4  C10 UNL     1      26.960   5.699  48.640  1.00  0.00     0.009 A 
HETATM    5  C11 UNL     1      25.814   6.476  49.172  1.00  0.00     0.250 A 
HETATM    6  C17 UNL     1      25.036   5.605  50.113  1.00  0.00     0.084 A 
ENDROOT
BRANCH   1   7
HETATM    7  C6  UNL     1      24.760   3.451  51.186  1.00  0.00     0.252 C 
HETATM    8  N1  UNL     1      24.556   2.067  51.063  1.00  0.00    -0.323 N 
HETATM    9  H6  UNL     1      24.979   1.500  50.297  1.00  0.00     0.169 HD
HETATM   10  O1  UNL     1      24.123   3.856  52.205  1.00  0.00    -0.268 OA
BRANCH   8  11
HETATM   11  C5  UNL     1      23.801   1.209  51.874  1.00  0.00     0.036 A 
HETATM   12  C4  UNL     1      22.453   0.947  51.677  1.00  0.00     0.030 A 
HETATM   13  C3  UNL     1      21.750   0.086  52.512  1.00  0.00     0.011 A 
HETATM   14  C2  UNL     1      22.370  -0.541  53.570  1.00  0.00    -0.040 A 
HETATM   15  C1  UNL     1      21.575  -1.454  54.436  1.00  0.00     0.050 C 
HETATM   16  C19 UNL     1      23.723  -0.284  53.777  1.00  0.00     0.042 A 
HETATM   17  C18 UNL     1      24.430   0.579  52.940  1.00  0.00     0.053 A 
HETATM   18 CL1  UNL     1      24.468  -1.109  55.141  1.00  0.00    -0.084 Cl
ENDBRANCH   8  11
ENDBRANCH   1   7
BRANCH   5  19
HETATM   19  N2  UNL     1      26.295   7.684  49.832  1.00  0.00     0.100 N 
HETATM   20  C12 UNL     1      27.519   8.165  49.224  1.00  0.00     0.303 C 
HETATM   21  C13 UNL     1      27.774   9.603  49.644  1.00  0.00     0.302 C 
HETATM   22  N3  UNL     1      26.832  10.458  48.991  1.00  0.00     0.087 N 
HETATM   23  C14 UNL     1      27.381  10.892  47.711  1.00  0.00     0.310 C 
HETATM   24  C15 UNL     1      25.569   9.798  48.771  1.00  0.00     0.302 C 
HETATM   25  C16 UNL     1      25.272   8.713  49.786  1.00  0.00     0.303 C 
ENDBRANCH   5  19
TORSDOF 3
ENDMDL
MODEL 3
REMARK VINA RESULT:      -8.3      1.408      1.824
REMARK  3 active torsions:
REMARK  status: ('A' for Active; 'I' for Inactive)
REMARK    1  A    between atoms: C5_5  and  N1_6 
REMARK       I    between atoms: N1_6  and  C6_7 
REMARK    2  A    between atoms: C6_7  and  C7_9 
REMARK    3  A    between atoms: C11_13  and  N2_14 
ROOT
HETATM    1  C7  UNL     1      22.099  -0.520  53.636  1.00  0.00     0.012 A 
HETATM    2  C8  UNL     1      21.324  -1.461  54.136  1.00  0.00     0.012 A 
HETATM    3  C9  UNL     1      19.903  -1.339  53.839  1.00  0.00    -0.001 A 
HETATM    4  C10 UNL     1      19.576  -0.290  53.102  1.00  0.00     0.009 A 
HETATM    5  C11 UNL     1      20.327   0.828  52.481  1.00  0.00     0.250 A 
HETATM    6  C17 UNL     1      21.784   0.667  52.801  1.00  0.00     0.084 A 
ENDROOT
BRANCH   1   7
HETATM    7  C6  UNL     1      23.530  -0.597  53.905  1.00  0.00     0.252 C 
HETATM    8  N1  UNL     1      24.516  -0.270  52.961  1.00  0.00    -0.323 N 
HETATM    9  H6  UNL     1      24.288   0.052  51.995  1.00  0.00     0.169 HD
HETATM   10  O1  UNL     1      24.111  -0.950  54.976  1.00  0.00    -0.268 OA
BRANCH   8  11
HETATM   11  C5  UNL     1      25.911  -0.300  53.091  1.00  0.00     0.036 A 
HETATM   12  C4  UNL     1      26.675  -1.449  52.954  1.00  0.00     0.030 A 
HETATM   13  C3  UNL     1      28.058  -1.424  53.094  1.00  0.00     0.011 A 
HETATM   14  C2  UNL     1      28.723  -0.250  53.374  1.00  0.00    -0.040 A 
HETATM   15  C1  UNL     1      30.205  -0.274  53.514  1.00  0.00     0.050 C 
HETATM   16  C19 UNL     1      27.965   0.909  53.514  1.00  0.00     0.042 A 
HETATM   17  C18 UNL     1      26.578   0.886  53.374  1.00  0.00     0.053 A 
HETATM   18 CL1  UNL     1      28.861   2.381  53.871  1.00  0.00    -0.084 Cl
ENDBRANCH   8  11
ENDBRANCH   1   7
BRANCH   5  19
HETATM   19  N2  UNL     1      20.092   0.849  51.043  1.00  0.00     0.100 N 
HETATM   20  C12 UNL     1      19.490   2.098  50.625  1.00  0.00     0.303 C 
HETATM   21  C13 UNL     1      19.625   2.259  49.120  1.00  0.00     0.302 C 
HETATM   22  N3  UNL     1      20.990   2.533  48.797  1.00  0.00     0.087 N 
HETATM   23  C14 UNL     1      21.211   3.975  48.820  1.00  0.00     0.310 C 
HETATM   24  C15 UNL     1      21.900   1.894  49.716  1.00  0.00     0.302 C 
HETATM   25  C16 UNL     1      21.340   0.629  50.334  1.00  0.00     0.303 C 
ENDBRANCH   5  19
TORSDOF 3
ENDMDL
MODEL 4
REMARK VINA RESULT:      -8.2      7.529      9.301
REMARK  3 active torsions:
REMARK  status: ('A' for Active; 'I' for Inactive)
REMARK    1  A    between atoms: C5_5  and  N1_6 
REMARK       I    between atoms: N1_6  and  C6_7 
REMARK    2  A    between atoms: C6_7  and  C7_9 
REMARK    3  A    between atoms: C11_13  and  N2_14 
ROOT
HETATM    1  C7  UNL     1      26.939   5.152  48.900  1.00  0.00     0.012 A 
HETATM    2  C8  UNL     1      28.200   4.916  48.599  1.00  0.00     0.012 A 
HETATM    3  C9  UNL     1      28.901   5.992  47.909  1.00  0.00    -0.001 A 
HETATM    4  C10 UNL     1      28.173   7.071  47.675  1.00  0.00     0.009 A 
HETATM    5  C11 UNL     1      26.771   7.469  47.953  1.00  0.00     0.250 A 
HETATM    6  C17 UNL     1      26.083   6.343  48.667  1.00  0.00     0.084 A 
ENDROOT
BRANCH   1   7
HETATM    7  C6  UNL     1      26.192   4.107  49.590  1.00  0.00     0.252 C 
HETATM    8  N1  UNL     1      26.575   3.567  50.828  1.00  0.00    -0.323 N 
HETATM    9  H6  UNL     1      27.428   3.881  51.341  1.00  0.00     0.169 HD
HETATM   10  O1  UNL     1      25.125   3.530  49.221  1.00  0.00    -0.268 OA
BRANCH   8  11
HETATM   11  C5  UNL     1      25.952   2.570  51.590  1.00  0.00     0.036 A 
HETATM   12  C4  UNL     1      24.765   2.756  52.283  1.00  0.00     0.030 A 
HETATM   13  C3  UNL     1      24.188   1.732  53.026  1.00  0.00     0.011 A 
HETATM   14  C2  UNL     1      24.777   0.489  53.099  1.00  0.00    -0.040 A 
HETATM   15  C1  UNL     1      24.121  -0.576  53.906  1.00  0.00     0.050 C 
HETATM   16  C19 UNL     1      25.969   0.292  52.406  1.00  0.00     0.042 A 
HETATM   17  C18 UNL     1      26.549   1.318  51.661  1.00  0.00     0.053 A 
HETATM   18 CL1  UNL     1      26.680  -1.312  52.532  1.00  0.00    -0.084 Cl
ENDBRANCH   8  11
ENDBRANCH   1   7
BRANCH   5  19
HETATM   19  N2  UNL     1      26.748   8.697  48.737  1.00  0.00     0.100 N 
HETATM   20  C12 UNL     1      27.795   9.608  48.321  1.00  0.00     0.303 C 
HETATM   21  C13 UNL     1      27.508  11.003  48.852  1.00  0.00     0.302 C 
HETATM   22  N3  UNL     1      26.406  11.562  48.133  1.00  0.00     0.087 N 
HETATM   23  C14 UNL     1      26.906  12.274  46.961  1.00  0.00     0.310 C 
HETATM   24  C15 UNL     1      25.467  10.551  47.714  1.00  0.00     0.302 C 
HETATM   25  C16 UNL     1      25.449   9.335  48.619  1.00  0.00     0.303 C 
ENDBRANCH   5  19
TORSDOF 3
ENDMDL
MODEL 5
REMARK VINA RESULT:      -8.1      2.248      2.922
REMARK  3 active torsions:
REMARK  status: ('A' for Active; 'I' for Inactive)
REMARK    1  A    between atoms: C5_5  and  N1_6 
REMARK       I    between atoms: N1_6  and  C6_7 
REMARK    2  A    between atoms: C6_7  and  C7_9 
REMARK    3  A    between atoms: C11_13  and  N2_14 
ROOT
HETATM    1  C7  UNL     1      22.270   0.688  52.970  1.00  0.00     0.012 A 
HETATM    2  C8  UNL     1      21.273  -0.172  52.915  1.00  0.00     0.012 A 
HETATM    3  C9  UNL     1      19.978   0.379  52.536  1.00  0.00    -0.001 A 
HETATM    4  C10 UNL     1      19.975   1.680  52.296  1.00  0.00     0.009 A 
HETATM    5  C11 UNL     1      21.001   2.751  52.318  1.00  0.00     0.250 A 
HETATM    6  C17 UNL     1      22.319   2.148  52.705  1.00  0.00     0.084 A 
ENDROOT
BRANCH   1   7
HETATM    7  C6  UNL     1      23.587   0.186  53.345  1.00  0.00     0.252 C 
HETATM    8  N1  UNL     1      24.778   0.589  52.720  1.00  0.00    -0.323 N 
HETATM    9  H6  UNL     1      24.800   1.280  51.939  1.00  0.00     0.169 HD
HETATM   10  O1  UNL     1      23.880  -0.654  54.249  1.00  0.00    -0.268 OA
BRANCH   8  11
HETATM   11  C5  UNL     1      26.094   0.189  52.983  1.00  0.00     0.036 A 
HETATM   12  C4  UNL     1      26.590  -1.075  52.694  1.00  0.00     0.030 A 
HETATM   13  C3  UNL     1      27.906  -1.422  52.975  1.00  0.00     0.011 A 
HETATM   14  C2  UNL     1      28.771  -0.519  53.554  1.00  0.00    -0.040 A 
HETATM   15  C1  UNL     1      30.171  -0.937  53.837  1.00  0.00     0.050 C 
HETATM   16  C19 UNL     1      28.283   0.752  53.849  1.00  0.00     0.042 A 
HETATM   17  C18 UNL     1      26.963   1.102  53.567  1.00  0.00     0.053 A 
HETATM   18 CL1  UNL     1      29.426   1.867  54.587  1.00  0.00    -0.084 Cl
ENDBRANCH   8  11
ENDBRANCH   1   7
BRANCH   5  19
HETATM   19  N2  UNL     1      21.069   3.402  51.016  1.00  0.00     0.100 N 
HETATM   20  C12 UNL     1      20.193   4.554  50.956  1.00  0.00     0.303 C 
HETATM   21  C13 UNL     1      20.571   5.431  49.774  1.00  0.00     0.302 C 
HETATM   22  N3  UNL     1      21.810   6.087  50.053  1.00  0.00     0.087 N 
HETATM   23  C14 UNL     1      21.544   7.358  50.717  1.00  0.00     0.310 C 
HETATM   24  C15 UNL     1      22.671   5.283  50.885  1.00  0.00     0.302 C 
HETATM   25  C16 UNL     1      22.437   3.794  50.730  1.00  0.00     0.303 C 
ENDBRANCH   5  19
TORSDOF 3
ENDMDL
MODEL 6
REMARK VINA RESULT:      -7.9      5.636      8.429
REMARK  3 active torsions:
REMARK  status: ('A' for Active; 'I' for Inactive)
REMARK    1  A    between atoms: C5_5  and  N1_6 
REMARK       I    between atoms: N1_6  and  C6_7 
REMARK    2  A    between atoms: C6_7  and  C7_9 
REMARK    3  A    between atoms: C11_13  and  N2_14 
ROOT
HETATM    1  C7  UNL     1      24.471   2.778  51.232  1.00  0.00     0.012 A 
HETATM    2  C8  UNL     1      23.238   2.779  51.694  1.00  0.00     0.012 A 
HETATM    3  C9  UNL     1      22.939   1.779  52.712  1.00  0.00    -0.001 A 
HETATM    4  C10 UNL     1      23.954   0.997  53.039  1.00  0.00     0.009 A 
HETATM    5  C11 UNL     1      25.370   0.885  52.610  1.00  0.00     0.250 A 
HETATM    6  C17 UNL     1      25.643   1.930  51.570  1.00  0.00     0.084 A 
ENDROOT
BRANCH   1   7
HETATM    7  C6  UNL     1      24.821   3.759  50.211  1.00  0.00     0.252 C 
HETATM    8  N1  UNL     1      25.810   4.740  50.384  1.00  0.00    -0.323 N 
HETATM    9  H6  UNL     1      26.366   4.833  51.262  1.00  0.00     0.169 HD
HETATM   10  O1  UNL     1      24.327   3.896  49.051  1.00  0.00    -0.268 OA
BRANCH   8  11
HETATM   11  C5  UNL     1      26.239   5.731  49.491  1.00  0.00     0.036 A 
HETATM   12  C4  UNL     1      27.331   5.591  48.647  1.00  0.00     0.030 A 
HETATM   13  C3  UNL     1      27.715   6.607  47.779  1.00  0.00     0.011 A 
HETATM   14  C2  UNL     1      27.020   7.795  47.725  1.00  0.00    -0.040 A 
HETATM   15  C1  UNL     1      27.470   8.853  46.779  1.00  0.00     0.050 C 
HETATM   16  C19 UNL     1      25.922   7.946  48.568  1.00  0.00     0.042 A 
HETATM   17  C18 UNL     1      25.536   6.928  49.439  1.00  0.00     0.053 A 
HETATM   18 CL1  UNL     1      25.070   9.481  48.460  1.00  0.00    -0.084 Cl
ENDBRANCH   8  11
ENDBRANCH   1   7
BRANCH   5  19
HETATM   19  N2  UNL     1      26.251   1.029  53.762  1.00  0.00     0.100 N 
HETATM   20  C12 UNL     1      26.919  -0.218  54.075  1.00  0.00     0.303 C 
HETATM   21  C13 UNL     1      28.103   0.045  54.990  1.00  0.00     0.302 C 
HETATM   22  N3  UNL     1      29.139   0.689  54.245  1.00  0.00     0.087 N 
HETATM   23  C14 UNL     1      30.010  -0.324  53.657  1.00  0.00     0.310 C 
HETATM   24  C15 UNL     1      28.609   1.529  53.200  1.00  0.00     0.302 C 
HETATM   25  C16 UNL     1      27.228   2.073  53.509  1.00  0.00     0.303 C 
ENDBRANCH   5  19
TORSDOF 3
ENDMDL
MODEL 7
REMARK VINA RESULT:      -7.8      3.831      4.431
REMARK  3 active torsions:
REMARK  status: ('A' for Active; 'I' for Inactive)
REMARK    1  A    between atoms: C5_5  and  N1_6 
REMARK       I    between atoms: N1_6  and  C6_7 
REMARK    2  A    between atoms: C6_7  and  C7_9 
REMARK    3  A    between atoms: C11_13  and  N2_14 
ROOT
HETATM    1  C7  UNL     1      22.332   0.603  52.407  1.00  0.00     0.012 A 
HETATM    2  C8  UNL     1      23.051  -0.230  53.130  1.00  0.00     0.012 A 
HETATM    3  C9  UNL     1      22.307  -1.069  54.061  1.00  0.00    -0.001 A 
HETATM    4  C10 UNL     1      20.998  -0.880  54.056  1.00  0.00     0.009 A 
HETATM    5  C11 UNL     1      20.071   0.004  53.310  1.00  0.00     0.250 A 
HETATM    6  C17 UNL     1      20.868   0.847  52.359  1.00  0.00     0.084 A 
ENDROOT
BRANCH   1   7
HETATM    7  C6  UNL     1      23.030   1.466  51.460  1.00  0.00     0.252 C 
HETATM    8  N1  UNL     1      24.113   2.288  51.811  1.00  0.00    -0.323 N 
HETATM    9  H6  UNL     1      24.493   2.336  52.781  1.00  0.00     0.169 HD
HETATM   10  O1  UNL     1      22.801   1.622  50.222  1.00  0.00    -0.268 OA
BRANCH   8  11
HETATM   11  C5  UNL     1      24.863   3.154  51.005  1.00  0.00     0.036 A 
HETATM   12  C4  UNL     1      26.006   2.774  50.317  1.00  0.00     0.030 A 
HETATM   13  C3  UNL     1      26.715   3.675  49.531  1.00  0.00     0.011 A 
HETATM   14  C2  UNL     1      26.306   4.984  49.405  1.00  0.00    -0.040 A 
HETATM   15  C1  UNL     1      27.098   5.911  48.551  1.00  0.00     0.050 C 
HETATM   16  C19 UNL     1      25.160   5.376  50.092  1.00  0.00     0.042 A 
HETATM   17  C18 UNL     1      24.448   4.474  50.881  1.00  0.00     0.053 A 
HETATM   18 CL1  UNL     1      24.680   7.057  49.899  1.00  0.00    -0.084 Cl
ENDBRANCH   8  11
ENDBRANCH   1   7
BRANCH   5  19
HETATM   19  N2  UNL     1      19.073  -0.796  52.611  1.00  0.00     0.100 N 
HETATM   20  C12 UNL     1      17.981  -1.163  53.491  1.00  0.00     0.303 C 
HETATM   21  C13 UNL     1      16.792  -1.633  52.670  1.00  0.00     0.302 C 
HETATM   22  N3  UNL     1      16.200  -0.509  52.014  1.00  0.00     0.087 N 
HETATM   23  C14 UNL     1      15.182   0.075  52.880  1.00  0.00     0.310 C 
HETATM   24  C15 UNL     1      17.179   0.497  51.681  1.00  0.00     0.302 C 
HETATM   25  C16 UNL     1      18.569  -0.066  51.462  1.00  0.00     0.303 C 
ENDBRANCH   5  19
TORSDOF 3
ENDMDL
MODEL 8
REMARK VINA RESULT:      -7.7      7.004      9.803
REMARK  3 active torsions:
REMARK  status: ('A' for Active; 'I' for Inactive)
REMARK    1  A    between atoms: C5_5  and  N1_6 
REMARK       I    between atoms: N1_6  and  C6_7 
REMARK    2  A    between atoms: C6_7  and  C7_9 
REMARK    3  A    between atoms: C11_13  and  N2_14 
ROOT
HETATM    1  C7  UNL     1      25.516   5.722  48.845  1.00  0.00     0.012 A 
HETATM    2  C8  UNL     1      24.643   6.444  48.172  1.00  0.00     0.012 A 
HETATM    3  C9  UNL     1      25.170   7.634  47.517  1.00  0.00    -0.001 A 
HETATM    4  C10 UNL     1      26.467   7.833  47.687  1.00  0.00     0.009 A 
HETATM    5  C11 UNL     1      27.552   7.120  48.403  1.00  0.00     0.250 A 
HETATM    6  C17 UNL     1      26.975   5.900  49.059  1.00  0.00     0.084 A 
ENDROOT
BRANCH   1   7
HETATM    7  C6  UNL     1      25.038   4.521  49.520  1.00  0.00     0.252 C 
HETATM    8  N1  UNL     1      25.519   4.087  50.765  1.00  0.00    -0.323 N 
HETATM    9  H6  UNL     1      26.257   4.599  51.295  1.00  0.00     0.169 HD
HETATM   10  O1  UNL     1      24.153   3.700  49.130  1.00  0.00    -0.268 OA
BRANCH   8  11
HETATM   11  C5  UNL     1      25.147   2.963  51.514  1.00  0.00     0.036 A 
HETATM   12  C4  UNL     1      23.992   2.891  52.280  1.00  0.00     0.030 A 
HETATM   13  C3  UNL     1      23.670   1.751  53.005  1.00  0.00     0.011 A 
HETATM   14  C2  UNL     1      24.490   0.643  52.990  1.00  0.00    -0.040 A 
HETATM   15  C1  UNL     1      24.101  -0.555  53.783  1.00  0.00     0.050 C 
HETATM   16  C19 UNL     1      25.651   0.705  52.225  1.00  0.00     0.042 A 
HETATM   17  C18 UNL     1      25.976   1.848  51.496  1.00  0.00     0.053 A 
HETATM   18 CL1  UNL     1      26.663  -0.735  52.239  1.00  0.00    -0.084 Cl
ENDBRANCH   8  11
ENDBRANCH   1   7
BRANCH   5  19
HETATM   19  N2  UNL     1      28.620   6.776  47.473  1.00  0.00     0.100 N 
HETATM   20  C12 UNL     1      29.417   7.937  47.133  1.00  0.00     0.303 C 
HETATM   21  C13 UNL     1      30.730   7.498  46.507  1.00  0.00     0.302 C 
HETATM   22  N3  UNL     1      31.564   6.925  47.518  1.00  0.00     0.087 N 
HETATM   23  C14 UNL     1      32.377   7.974  48.124  1.00  0.00     0.310 C 
HETATM   24  C15 UNL     1      30.793   6.265  48.542  1.00  0.00     0.302 C 
HETATM   25  C16 UNL     1      29.460   5.740  48.047  1.00  0.00     0.303 C 
ENDBRANCH   5  19
TORSDOF 3
ENDMDL
MODEL 9
REMARK VINA RESULT:      -7.7      7.460      9.046
REMARK  3 active torsions:
REMARK  status: ('A' for Active; 'I' for Inactive)
REMARK    1  A    between atoms: C5_5  and  N1_6 
REMARK       I    between atoms: N1_6  and  C6_7 
REMARK    2  A    between atoms: C6_7  and  C7_9 
REMARK    3  A    between atoms: C11_13  and  N2_14 
ROOT
HETATM    1  C7  UNL     1      27.182   6.278  48.241  1.00  0.00     0.012 A 
HETATM    2  C8  UNL     1      26.311   7.192  47.862  1.00  0.00     0.012 A 
HETATM    3  C9  UNL     1      24.912   6.887  48.132  1.00  0.00    -0.001 A 
HETATM    4  C10 UNL     1      24.700   5.724  48.726  1.00  0.00     0.009 A 
HETATM    5  C11 UNL     1      25.566   4.618  49.201  1.00  0.00     0.250 A 
HETATM    6  C17 UNL     1      26.996   4.967  48.914  1.00  0.00     0.084 A 
ENDROOT
BRANCH   1   7
HETATM    7  C6  UNL     1      28.596   6.535  47.993  1.00  0.00     0.252 C 
HETATM    8  N1  UNL     1      29.610   6.260  48.925  1.00  0.00    -0.323 N 
HETATM    9  H6  UNL     1      29.417   5.850  49.865  1.00  0.00     0.169 HD
HETATM   10  O1  UNL     1      29.136   7.023  46.955  1.00  0.00    -0.268 OA
BRANCH   8  11
HETATM   11  C5  UNL     1      30.992   6.457  48.812  1.00  0.00     0.036 A 
HETATM   12  C4  UNL     1      31.622   7.669  49.052  1.00  0.00     0.030 A 
HETATM   13  C3  UNL     1      32.999   7.811  48.925  1.00  0.00     0.011 A 
HETATM   14  C2  UNL     1      33.792   6.747  48.555  1.00  0.00    -0.040 A 
HETATM   15  C1  UNL     1      35.262   6.949  48.433  1.00  0.00     0.050 C 
HETATM   16  C19 UNL     1      33.170   5.526  48.311  1.00  0.00     0.042 A 
HETATM   17  C18 UNL     1      31.789   5.382  48.438  1.00  0.00     0.053 A 
HETATM   18 CL1  UNL     1      34.226   4.200  47.842  1.00  0.00    -0.084 Cl
ENDBRANCH   8  11
ENDBRANCH   1   7
BRANCH   5  19
HETATM   19  N2  UNL     1      25.343   4.388  50.623  1.00  0.00     0.100 N 
HETATM   20  C12 UNL     1      24.048   4.883  51.041  1.00  0.00     0.303 C 
HETATM   21  C13 UNL     1      23.677   4.288  52.389  1.00  0.00     0.302 C 
HETATM   22  N3  UNL     1      23.359   2.904  52.220  1.00  0.00     0.087 N 
HETATM   23  C14 UNL     1      21.935   2.767  51.936  1.00  0.00     0.310 C 
HETATM   24  C15 UNL     1      24.120   2.303  51.152  1.00  0.00     0.302 C 
HETATM   25  C16 UNL     1      25.460   2.971  50.919  1.00  0.00     0.303 C 
ENDBRANCH   5  19
TORSDOF 3
ENDMDL
