MODEL 1
REMARK VINA RESULT:      -8.4      0.000      0.000
REMARK  7 active torsions:
REMARK  status: ('A' for Active; 'I' for Inactive)
REMARK    1  A    between atoms: C7_7  and  C8_8 
REMARK    2  A    between atoms: N2_15  and  C14_16 
REMARK    3  A    between atoms: C14_16  and  S1_17 
REMARK    4  A    between atoms: S1_17  and  C15_18 
REMARK    5  A    between atoms: C15_18  and  N3_19 
REMARK    6  A    between atoms: C15_18  and  O1_20 
REMARK    7  A    between atoms: O1_20  and  P1_21 
ROOT
HETATM    1  C1  UNL     1      20.649  -1.254  54.119  1.00  0.00     0.048 C 
HETATM    2  C2  UNL     1      21.847  -0.544  53.605  1.00  0.00    -0.062 C 
HETATM    3  C3  UNL     1      22.982  -0.874  54.206  1.00  0.00     0.014 C 
HETATM    4  C4  UNL     1      24.333  -0.388  53.968  1.00  0.00    -0.050 C 
HETATM    5  C5  UNL     1      25.391  -0.596  55.010  1.00  0.00     0.049 C 
HETATM    6  C6  UNL     1      24.673   0.334  52.924  1.00  0.00     0.007 C 
HETATM    7  C7  UNL     1      26.035   0.831  52.643  1.00  0.00     0.096 C 
HETATM    8  N1  UNL     1      25.876   2.054  52.187  1.00  0.00    -0.174 NA
HETATM    9  N2  UNL     1      24.549   2.410  52.127  1.00  0.00    -0.283 N 
HETATM   10  C16 UNL     1      24.030   1.065  51.780  1.00  0.00     0.164 C 
HETATM   11  C17 UNL     1      22.557   1.018  51.828  1.00  0.00     0.005 C 
HETATM   12  C18 UNL     1      21.621   0.405  52.523  1.00  0.00     0.005 C 
ENDROOT
BRANCH   9  13
HETATM   13  C14 UNL     1      23.871   3.667  52.332  1.00  0.00     0.224 C 
BRANCH  13  14
HETATM   14  S1  UNL     1      23.508   4.453  50.763  1.00  0.00    -0.086 SA
BRANCH  14  15
HETATM   15  C15 UNL     1      24.897   5.419  50.121  1.00  0.00     0.423 C 
BRANCH  15  16
HETATM   16  N3  UNL     1      26.132   4.694  50.311  1.00  0.00     0.117 N 
HETATM   17  H16 UNL     1      26.415   4.228  49.420  1.00  0.00     0.317 HD
HETATM   18  H17 UNL     1      26.021   3.944  51.040  1.00  0.00     0.317 HD
ENDBRANCH  15  16
BRANCH  15  19
HETATM   19  O1  UNL     1      25.040   6.613  50.837  1.00  0.00    -0.327 OA
BRANCH  19  20
HETATM   20  P1  UNL     1      23.668   7.647  50.539  1.00  0.00     0.005 P 
HETATM   21  H18 UNL     1      22.629   6.808  49.936  1.00  0.00     0.084 HD
HETATM   22  H19 UNL     1      24.051   8.622  49.525  1.00  0.00     0.084 HD
ENDBRANCH  19  20
ENDBRANCH  15  19
ENDBRANCH  14  15
ENDBRANCH  13  14
ENDBRANCH   9  13
BRANCH   7  23
HETATM   23  C8  UNL     1      27.281   0.121  52.875  1.00  0.00    -0.005 A 
HETATM   24  C9  UNL     1      27.716  -1.164  52.810  1.00  0.00     0.014 A 
HETATM   25  C10 UNL     1      28.948  -1.627  53.163  1.00  0.00     0.001 A 
HETATM   26  C11 UNL     1      29.910  -0.764  53.639  1.00  0.00     0.000 A 
HETATM   27  C12 UNL     1      29.557   0.557  53.736  1.00  0.00     0.001 A 
HETATM   28  C13 UNL     1      28.301   0.970  53.369  1.00  0.00     0.014 A 
ENDBRANCH   7  23
TORSDOF 7
ENDMDL
MODEL 2
REMARK VINA RESULT:      -7.8      3.509      5.669
REMARK  7 active torsions:
REMARK  status: ('A' for Active; 'I' for Inactive)
REMARK    1  A    between atoms: C7_7  and  C8_8 
REMARK    2  A    between atoms: N2_15  and  C14_16 
REMARK    3  A    between atoms: C14_16  and  S1_17 
REMARK    4  A    between atoms: S1_17  and  C15_18 
REMARK    5  A    between atoms: C15_18  and  N3_19 
REMARK    6  A    between atoms: C15_18  and  O1_20 
REMARK    7  A    between atoms: O1_20  and  P1_21 
ROOT
HETATM    1  C1  UNL     1      19.241   0.637  50.681  1.00  0.00     0.048 C 
HETATM    2  C2  UNL     1      20.637   0.995  51.034  1.00  0.00    -0.062 C 
HETATM    3  C3  UNL     1      21.290   1.657  50.088  1.00  0.00     0.014 C 
HETATM    4  C4  UNL     1      22.655   2.163  50.085  1.00  0.00    -0.050 C 
HETATM    5  C5  UNL     1      23.308   2.526  48.784  1.00  0.00     0.049 C 
HETATM    6  C6  UNL     1      23.412   2.222  51.157  1.00  0.00     0.007 C 
HETATM    7  C7  UNL     1      24.795   2.741  51.192  1.00  0.00     0.096 C 
HETATM    8  N1  UNL     1      25.455   1.928  51.987  1.00  0.00    -0.174 NA
HETATM    9  N2  UNL     1      24.649   0.934  52.489  1.00  0.00    -0.283 N 
HETATM   10  C16 UNL     1      23.414   1.750  52.583  1.00  0.00     0.164 C 
HETATM   11  C17 UNL     1      22.237   0.926  52.914  1.00  0.00     0.005 C 
HETATM   12  C18 UNL     1      21.098   0.579  52.352  1.00  0.00     0.005 C 
ENDROOT
BRANCH   9  13
HETATM   13  C14 UNL     1      24.902  -0.448  52.817  1.00  0.00     0.224 C 
BRANCH  13  14
HETATM   14  S1  UNL     1      25.279  -0.625  54.561  1.00  0.00    -0.086 SA
BRANCH  14  15
HETATM   15  C15 UNL     1      26.908   0.032  54.998  1.00  0.00     0.423 C 
BRANCH  15  16
HETATM   16  N3  UNL     1      26.976   1.439  54.677  1.00  0.00     0.117 N 
HETATM   17  H16 UNL     1      27.971   1.730  54.548  1.00  0.00     0.317 HD
HETATM   18  H17 UNL     1      26.573   2.024  55.453  1.00  0.00     0.317 HD
ENDBRANCH  15  16
BRANCH  15  19
HETATM   19  O1  UNL     1      27.908  -0.583  54.237  1.00  0.00    -0.327 OA
BRANCH  19  20
HETATM   20  P1  UNL     1      29.170   0.567  53.883  1.00  0.00     0.005 P 
HETATM   21  H18 UNL     1      29.536   0.377  52.478  1.00  0.00     0.084 HD
HETATM   22  H19 UNL     1      30.344   0.203  54.668  1.00  0.00     0.084 HD
ENDBRANCH  19  20
ENDBRANCH  15  19
ENDBRANCH  14  15
ENDBRANCH  13  14
ENDBRANCH   9  13
BRANCH   7  23
HETATM   23  C8  UNL     1      25.310   3.883  50.458  1.00  0.00    -0.005 A 
HETATM   24  C9  UNL     1      24.911   5.155  50.198  1.00  0.00     0.014 A 
HETATM   25  C10 UNL     1      25.536   6.056  49.388  1.00  0.00     0.001 A 
HETATM   26  C11 UNL     1      26.699   5.719  48.732  1.00  0.00     0.000 A 
HETATM   27  C12 UNL     1      27.176   4.451  48.939  1.00  0.00     0.001 A 
HETATM   28  C13 UNL     1      26.507   3.582  49.763  1.00  0.00     0.014 A 
ENDBRANCH   7  23
TORSDOF 7
ENDMDL
MODEL 3
REMARK VINA RESULT:      -7.6      1.283      4.862
REMARK  7 active torsions:
REMARK  status: ('A' for Active; 'I' for Inactive)
REMARK    1  A    between atoms: C7_7  and  C8_8 
REMARK    2  A    between atoms: N2_15  and  C14_16 
REMARK    3  A    between atoms: C14_16  and  S1_17 
REMARK    4  A    between atoms: S1_17  and  C15_18 
REMARK    5  A    between atoms: C15_18  and  N3_19 
REMARK    6  A    between atoms: C15_18  and  O1_20 
REMARK    7  A    between atoms: O1_20  and  P1_21 
ROOT
HETATM    1  C1  UNL     1      30.392  -0.690  53.834  1.00  0.00     0.048 C 
HETATM    2  C2  UNL     1      29.082  -0.065  53.521  1.00  0.00    -0.062 C 
HETATM    3  C3  UNL     1      28.085  -0.927  53.366  1.00  0.00     0.014 C 
HETATM    4  C4  UNL     1      26.685  -0.679  53.058  1.00  0.00    -0.050 C 
HETATM    5  C5  UNL     1      25.829  -1.799  52.544  1.00  0.00     0.049 C 
HETATM    6  C6  UNL     1      26.131   0.512  53.095  1.00  0.00     0.007 C 
HETATM    7  C7  UNL     1      24.712   0.798  52.802  1.00  0.00     0.096 C 
HETATM    8  N1  UNL     1      24.714   1.916  52.110  1.00  0.00    -0.174 NA
HETATM    9  N2  UNL     1      25.987   2.403  51.926  1.00  0.00    -0.283 N 
HETATM   10  C16 UNL     1      26.529   1.954  53.232  1.00  0.00     0.164 C 
HETATM   11  C17 UNL     1      27.989   2.139  53.312  1.00  0.00     0.005 C 
HETATM   12  C18 UNL     1      29.064   1.388  53.427  1.00  0.00     0.005 C 
ENDROOT
BRANCH   9  13
HETATM   13  C14 UNL     1      26.606   3.114  50.835  1.00  0.00     0.224 C 
BRANCH  13  14
HETATM   14  S1  UNL     1      25.366   3.901  49.807  1.00  0.00    -0.086 SA
BRANCH  14  15
HETATM   15  C15 UNL     1      25.784   5.611  49.386  1.00  0.00     0.423 C 
BRANCH  15  16
HETATM   16  N3  UNL     1      27.220   5.772  49.346  1.00  0.00     0.117 N 
HETATM   17  H16 UNL     1      27.464   6.705  48.944  1.00  0.00     0.317 HD
HETATM   18  H17 UNL     1      27.665   5.039  48.737  1.00  0.00     0.317 HD
ENDBRANCH  15  16
BRANCH  15  19
HETATM   19  O1  UNL     1      25.328   6.488  50.375  1.00  0.00    -0.327 OA
BRANCH  19  20
HETATM   20  P1  UNL     1      23.826   5.900  51.038  1.00  0.00     0.005 P 
HETATM   21  H18 UNL     1      22.756   6.697  50.433  1.00  0.00     0.084 HD
HETATM   22  H19 UNL     1      23.813   6.205  52.464  1.00  0.00     0.084 HD
ENDBRANCH  19  20
ENDBRANCH  15  19
ENDBRANCH  14  15
ENDBRANCH  13  14
ENDBRANCH   9  13
BRANCH   7  23
HETATM   23  C8  UNL     1      23.570  -0.022  53.168  1.00  0.00    -0.005 A 
HETATM   24  C9  UNL     1      22.396  -0.396  52.597  1.00  0.00     0.014 A 
HETATM   25  C10 UNL     1      21.405  -1.130  53.178  1.00  0.00     0.001 A 
HETATM   26  C11 UNL     1      21.533  -1.579  54.473  1.00  0.00     0.000 A 
HETATM   27  C12 UNL     1      22.692  -1.248  55.126  1.00  0.00     0.001 A 
HETATM   28  C13 UNL     1      23.658  -0.506  54.496  1.00  0.00     0.014 A 
ENDBRANCH   7  23
TORSDOF 7
ENDMDL
MODEL 4
REMARK VINA RESULT:      -7.5      3.598      5.910
REMARK  7 active torsions:
REMARK  status: ('A' for Active; 'I' for Inactive)
REMARK    1  A    between atoms: C7_7  and  C8_8 
REMARK    2  A    between atoms: N2_15  and  C14_16 
REMARK    3  A    between atoms: C14_16  and  S1_17 
REMARK    4  A    between atoms: S1_17  and  C15_18 
REMARK    5  A    between atoms: C15_18  and  N3_19 
REMARK    6  A    between atoms: C15_18  and  O1_20 
REMARK    7  A    between atoms: O1_20  and  P1_21 
ROOT
HETATM    1  C1  UNL     1      18.507  -0.962  52.834  1.00  0.00     0.048 C 
HETATM    2  C2  UNL     1      19.856  -0.348  52.746  1.00  0.00    -0.062 C 
HETATM    3  C3  UNL     1      20.095   0.292  51.609  1.00  0.00     0.014 C 
HETATM    4  C4  UNL     1      21.290   1.002  51.180  1.00  0.00    -0.050 C 
HETATM    5  C5  UNL     1      21.488   1.308  49.725  1.00  0.00     0.049 C 
HETATM    6  C6  UNL     1      22.285   1.306  51.983  1.00  0.00     0.007 C 
HETATM    7  C7  UNL     1      23.505   2.037  51.584  1.00  0.00     0.096 C 
HETATM    8  N1  UNL     1      24.494   1.439  52.211  1.00  0.00    -0.174 NA
HETATM    9  N2  UNL     1      24.052   0.396  52.990  1.00  0.00    -0.283 N 
HETATM   10  C16 UNL     1      22.759   1.013  53.378  1.00  0.00     0.164 C 
HETATM   11  C17 UNL     1      21.889   0.059  54.088  1.00  0.00     0.005 C 
HETATM   12  C18 UNL     1      20.725  -0.527  53.902  1.00  0.00     0.005 C 
ENDROOT
BRANCH   9  13
HETATM   13  C14 UNL     1      24.634  -0.880  53.327  1.00  0.00     0.224 C 
BRANCH  13  14
HETATM   14  S1  UNL     1      26.423  -0.768  53.366  1.00  0.00    -0.086 SA
BRANCH  14  15
HETATM   15  C15 UNL     1      27.034   0.246  54.735  1.00  0.00     0.423 C 
BRANCH  15  16
HETATM   16  N3  UNL     1      27.146   1.625  54.316  1.00  0.00     0.117 N 
HETATM   17  H16 UNL     1      26.211   1.987  54.024  1.00  0.00     0.317 HD
HETATM   18  H17 UNL     1      27.794   1.718  53.492  1.00  0.00     0.317 HD
ENDBRANCH  15  16
BRANCH  15  19
HETATM   19  O1  UNL     1      28.325  -0.148  55.103  1.00  0.00    -0.327 OA
BRANCH  19  20
HETATM   20  P1  UNL     1      29.220  -0.629  53.687  1.00  0.00     0.005 P 
HETATM   21  H18 UNL     1      30.579  -0.106  53.847  1.00  0.00     0.084 HD
HETATM   22  H19 UNL     1      28.647   0.059  52.536  1.00  0.00     0.084 HD
ENDBRANCH  19  20
ENDBRANCH  15  19
ENDBRANCH  14  15
ENDBRANCH  13  14
ENDBRANCH   9  13
BRANCH   7  23
HETATM   23  C8  UNL     1      23.582   3.151  50.656  1.00  0.00    -0.005 A 
HETATM   24  C9  UNL     1      24.197   3.415  49.474  1.00  0.00     0.014 A 
HETATM   25  C10 UNL     1      24.194   4.600  48.799  1.00  0.00     0.001 A 
HETATM   26  C11 UNL     1      23.517   5.689  49.300  1.00  0.00     0.000 A 
HETATM   27  C12 UNL     1      22.864   5.511  50.493  1.00  0.00     0.001 A 
HETATM   28  C13 UNL     1      22.900   4.298  51.132  1.00  0.00     0.014 A 
ENDBRANCH   7  23
TORSDOF 7
ENDMDL
MODEL 5
REMARK VINA RESULT:      -7.5      3.702      6.880
REMARK  7 active torsions:
REMARK  status: ('A' for Active; 'I' for Inactive)
REMARK    1  A    between atoms: C7_7  and  C8_8 
REMARK    2  A    between atoms: N2_15  and  C14_16 
REMARK    3  A    between atoms: C14_16  and  S1_17 
REMARK    4  A    between atoms: S1_17  and  C15_18 
REMARK    5  A    between atoms: C15_18  and  N3_19 
REMARK    6  A    between atoms: C15_18  and  O1_20 
REMARK    7  A    between atoms: O1_20  and  P1_21 
ROOT
HETATM    1  C1  UNL     1      25.732   5.560  48.953  1.00  0.00     0.048 C 
HETATM    2  C2  UNL     1      25.408   4.407  49.830  1.00  0.00    -0.062 C 
HETATM    3  C3  UNL     1      24.125   4.301  50.149  1.00  0.00     0.014 C 
HETATM    4  C4  UNL     1      23.455   3.310  50.976  1.00  0.00    -0.050 C 
HETATM    5  C5  UNL     1      22.087   3.601  51.520  1.00  0.00     0.049 C 
HETATM    6  C6  UNL     1      24.021   2.196  51.382  1.00  0.00     0.007 C 
HETATM    7  C7  UNL     1      23.367   1.163  52.210  1.00  0.00     0.096 C 
HETATM    8  N1  UNL     1      24.281   0.770  53.069  1.00  0.00    -0.174 NA
HETATM    9  N2  UNL     1      25.474   1.428  52.886  1.00  0.00    -0.283 N 
HETATM   10  C16 UNL     1      25.375   1.546  51.410  1.00  0.00     0.164 C 
HETATM   11  C17 UNL     1      26.435   2.409  50.858  1.00  0.00     0.005 C 
HETATM   12  C18 UNL     1      26.526   3.557  50.219  1.00  0.00     0.005 C 
ENDROOT
BRANCH   9  13
HETATM   13  C14 UNL     1      26.493   1.866  53.808  1.00  0.00     0.224 C 
BRANCH  13  14
HETATM   14  S1  UNL     1      27.440   0.470  54.415  1.00  0.00    -0.086 SA
BRANCH  14  15
HETATM   15  C15 UNL     1      27.531  -0.890  53.224  1.00  0.00     0.423 C 
BRANCH  15  16
HETATM   16  N3  UNL     1      26.377  -1.748  53.365  1.00  0.00     0.117 N 
HETATM   17  H16 UNL     1      25.590  -1.220  53.805  1.00  0.00     0.317 HD
HETATM   18  H17 UNL     1      26.592  -2.571  53.985  1.00  0.00     0.317 HD
ENDBRANCH  15  16
BRANCH  15  19
HETATM   19  O1  UNL     1      28.643  -1.698  53.482  1.00  0.00    -0.327 OA
BRANCH  19  20
HETATM   20  P1  UNL     1      30.058  -0.702  53.700  1.00  0.00     0.005 P 
HETATM   21  H18 UNL     1      31.193  -1.611  53.871  1.00  0.00     0.084 HD
HETATM   22  H19 UNL     1      29.912   0.018  54.960  1.00  0.00     0.084 HD
ENDBRANCH  19  20
ENDBRANCH  15  19
ENDBRANCH  14  15
ENDBRANCH  13  14
ENDBRANCH   9  13
BRANCH   7  23
HETATM   23  C8  UNL     1      21.986   0.722  52.114  1.00  0.00    -0.005 A 
HETATM   24  C9  UNL     1      21.062   0.568  51.130  1.00  0.00     0.014 A 
HETATM   25  C10 UNL     1      19.758   0.205  51.287  1.00  0.00     0.001 A 
HETATM   26  C11 UNL     1      19.248  -0.053  52.539  1.00  0.00     0.000 A 
HETATM   27  C12 UNL     1      20.115   0.077  53.594  1.00  0.00     0.001 A 
HETATM   28  C13 UNL     1      21.418   0.447  53.382  1.00  0.00     0.014 A 
ENDBRANCH   7  23
TORSDOF 7
ENDMDL
MODEL 6
REMARK VINA RESULT:      -7.1      2.602      3.503
REMARK  7 active torsions:
REMARK  status: ('A' for Active; 'I' for Inactive)
REMARK    1  A    between atoms: C7_7  and  C8_8 
REMARK    2  A    between atoms: N2_15  and  C14_16 
REMARK    3  A    between atoms: C14_16  and  S1_17 
REMARK    4  A    between atoms: S1_17  and  C15_18 
REMARK    5  A    between atoms: C15_18  and  N3_19 
REMARK    6  A    between atoms: C15_18  and  O1_20 
REMARK    7  A    between atoms: O1_20  and  P1_21 
ROOT
HETATM    1  C1  UNL     1      20.324   3.773  51.376  1.00  0.00     0.048 C 
HETATM    2  C2  UNL     1      21.767   3.648  51.050  1.00  0.00    -0.062 C 
HETATM    3  C3  UNL     1      22.536   3.313  52.077  1.00  0.00     0.014 C 
HETATM    4  C4  UNL     1      23.975   3.105  52.128  1.00  0.00    -0.050 C 
HETATM    5  C5  UNL     1      24.681   3.120  53.452  1.00  0.00     0.049 C 
HETATM    6  C6  UNL     1      24.735   3.010  51.060  1.00  0.00     0.007 C 
HETATM    7  C7  UNL     1      26.195   2.785  51.075  1.00  0.00     0.096 C 
HETATM    8  N1  UNL     1      26.680   3.559  50.129  1.00  0.00    -0.174 NA
HETATM    9  N2  UNL     1      25.690   4.263  49.485  1.00  0.00    -0.283 N 
HETATM   10  C16 UNL     1      24.650   3.209  49.574  1.00  0.00     0.164 C 
HETATM   11  C17 UNL     1      23.331   3.703  49.139  1.00  0.00     0.005 C 
HETATM   12  C18 UNL     1      22.141   3.906  49.666  1.00  0.00     0.005 C 
ENDROOT
BRANCH   9  13
HETATM   13  C14 UNL     1      25.655   5.585  48.910  1.00  0.00     0.224 C 
BRANCH  13  14
HETATM   14  S1  UNL     1      25.592   6.833  50.195  1.00  0.00    -0.086 SA
BRANCH  14  15
HETATM   15  C15 UNL     1      23.938   7.535  50.412  1.00  0.00     0.423 C 
BRANCH  15  16
HETATM   16  N3  UNL     1      23.253   6.859  51.491  1.00  0.00     0.117 N 
HETATM   17  H16 UNL     1      23.934   6.589  52.235  1.00  0.00     0.317 HD
HETATM   18  H17 UNL     1      22.789   5.978  51.151  1.00  0.00     0.317 HD
ENDBRANCH  15  16
BRANCH  15  19
HETATM   19  O1  UNL     1      23.158   7.322  49.271  1.00  0.00    -0.327 OA
BRANCH  19  20
HETATM   20  P1  UNL     1      23.207   8.736  48.252  1.00  0.00     0.005 P 
HETATM   21  H18 UNL     1      21.971   8.734  47.465  1.00  0.00     0.084 HD
HETATM   22  H19 UNL     1      24.301   8.569  47.302  1.00  0.00     0.084 HD
ENDBRANCH  19  20
ENDBRANCH  15  19
ENDBRANCH  14  15
ENDBRANCH  13  14
ENDBRANCH   9  13
BRANCH   7  23
HETATM   23  C8  UNL     1      26.929   1.922  51.983  1.00  0.00    -0.005 A 
HETATM   24  C9  UNL     1      27.933   2.061  52.888  1.00  0.00     0.014 A 
HETATM   25  C10 UNL     1      28.540   1.064  53.592  1.00  0.00     0.001 A 
HETATM   26  C11 UNL     1      28.150  -0.247  53.428  1.00  0.00     0.000 A 
HETATM   27  C12 UNL     1      27.139  -0.479  52.532  1.00  0.00     0.001 A 
HETATM   28  C13 UNL     1      26.562   0.560  51.848  1.00  0.00     0.014 A 
ENDBRANCH   7  23
TORSDOF 7
ENDMDL
MODEL 7
REMARK VINA RESULT:      -7.0      2.136      5.596
REMARK  7 active torsions:
REMARK  status: ('A' for Active; 'I' for Inactive)
REMARK    1  A    between atoms: C7_7  and  C8_8 
REMARK    2  A    between atoms: N2_15  and  C14_16 
REMARK    3  A    between atoms: C14_16  and  S1_17 
REMARK    4  A    between atoms: S1_17  and  C15_18 
REMARK    5  A    between atoms: C15_18  and  N3_19 
REMARK    6  A    between atoms: C15_18  and  O1_20 
REMARK    7  A    between atoms: O1_20  and  P1_21 
ROOT
HETATM    1  C1  UNL     1      27.004   0.193  54.890  1.00  0.00     0.048 C 
HETATM    2  C2  UNL     1      25.841   0.741  54.149  1.00  0.00    -0.062 C 
HETATM    3  C3  UNL     1      24.877  -0.138  53.909  1.00  0.00     0.014 C 
HETATM    4  C4  UNL     1      23.610   0.042  53.219  1.00  0.00    -0.050 C 
HETATM    5  C5  UNL     1      22.860  -1.157  52.720  1.00  0.00     0.049 C 
HETATM    6  C6  UNL     1      23.116   1.216  52.897  1.00  0.00     0.007 C 
HETATM    7  C7  UNL     1      21.827   1.437  52.209  1.00  0.00     0.096 C 
HETATM    8  N1  UNL     1      22.049   2.405  51.348  1.00  0.00    -0.174 NA
HETATM    9  N2  UNL     1      23.348   2.854  51.404  1.00  0.00    -0.283 N 
HETATM   10  C16 UNL     1      23.529   2.661  52.864  1.00  0.00     0.164 C 
HETATM   11  C17 UNL     1      24.931   2.863  53.273  1.00  0.00     0.005 C 
HETATM   12  C18 UNL     1      25.910   2.152  53.790  1.00  0.00     0.005 C 
ENDROOT
BRANCH   9  13
HETATM   13  C14 UNL     1      24.249   3.349  50.392  1.00  0.00     0.224 C 
BRANCH  13  14
HETATM   14  S1  UNL     1      23.581   4.820  49.616  1.00  0.00    -0.086 SA
BRANCH  14  15
HETATM   15  C15 UNL     1      23.144   6.109  50.809  1.00  0.00     0.423 C 
BRANCH  15  16
HETATM   16  N3  UNL     1      24.098   6.121  51.894  1.00  0.00     0.117 N 
HETATM   17  H16 UNL     1      25.001   6.536  51.573  1.00  0.00     0.317 HD
HETATM   18  H17 UNL     1      24.301   5.144  52.230  1.00  0.00     0.317 HD
ENDBRANCH  15  16
BRANCH  15  19
HETATM   19  O1  UNL     1      21.903   5.839  51.395  1.00  0.00    -0.327 OA
BRANCH  19  20
HETATM   20  P1  UNL     1      20.677   5.744  50.159  1.00  0.00     0.005 P 
HETATM   21  H18 UNL     1      21.256   6.319  48.942  1.00  0.00     0.084 HD
HETATM   22  H19 UNL     1      19.577   6.620  50.546  1.00  0.00     0.084 HD
ENDBRANCH  19  20
ENDBRANCH  15  19
ENDBRANCH  14  15
ENDBRANCH  13  14
ENDBRANCH   9  13
BRANCH   7  23
HETATM   23  C8  UNL     1      20.596   0.696  52.420  1.00  0.00    -0.005 A 
HETATM   24  C9  UNL     1      20.061  -0.078  53.399  1.00  0.00     0.014 A 
HETATM   25  C10 UNL     1      18.884  -0.763  53.345  1.00  0.00     0.001 A 
HETATM   26  C11 UNL     1      18.095  -0.713  52.217  1.00  0.00     0.000 A 
HETATM   27  C12 UNL     1      18.560   0.049  51.177  1.00  0.00     0.001 A 
HETATM   28  C13 UNL     1      19.753   0.718  51.282  1.00  0.00     0.014 A 
ENDBRANCH   7  23
TORSDOF 7
ENDMDL
MODEL 8
REMARK VINA RESULT:      -7.0      4.382      5.876
REMARK  7 active torsions:
REMARK  status: ('A' for Active; 'I' for Inactive)
REMARK    1  A    between atoms: C7_7  and  C8_8 
REMARK    2  A    between atoms: N2_15  and  C14_16 
REMARK    3  A    between atoms: C14_16  and  S1_17 
REMARK    4  A    between atoms: S1_17  and  C15_18 
REMARK    5  A    between atoms: C15_18  and  N3_19 
REMARK    6  A    between atoms: C15_18  and  O1_20 
REMARK    7  A    between atoms: O1_20  and  P1_21 
ROOT
HETATM    1  C1  UNL     1      23.116  -1.169  54.681  1.00  0.00     0.048 C 
HETATM    2  C2  UNL     1      22.913  -0.249  53.534  1.00  0.00    -0.062 C 
HETATM    3  C3  UNL     1      23.853   0.676  53.398  1.00  0.00     0.014 C 
HETATM    4  C4  UNL     1      23.979   1.730  52.402  1.00  0.00    -0.050 C 
HETATM    5  C5  UNL     1      24.891   2.892  52.664  1.00  0.00     0.049 C 
HETATM    6  C6  UNL     1      23.250   1.792  51.311  1.00  0.00     0.007 C 
HETATM    7  C7  UNL     1      23.361   2.838  50.274  1.00  0.00     0.096 C 
HETATM    8  N1  UNL     1      22.125   3.114  49.920  1.00  0.00    -0.174 NA
HETATM    9  N2  UNL     1      21.211   2.351  50.608  1.00  0.00    -0.283 N 
HETATM   10  C16 UNL     1      22.048   1.130  50.700  1.00  0.00     0.164 C 
HETATM   11  C17 UNL     1      21.443   0.116  51.583  1.00  0.00     0.005 C 
HETATM   12  C18 UNL     1      21.725  -0.481  52.722  1.00  0.00     0.005 C 
ENDROOT
BRANCH   9  13
HETATM   13  C14 UNL     1      19.881   2.629  51.090  1.00  0.00     0.224 C 
BRANCH  13  14
HETATM   14  S1  UNL     1      18.652   2.080  49.906  1.00  0.00    -0.086 SA
BRANCH  14  15
HETATM   15  C15 UNL     1      17.968   0.453  50.305  1.00  0.00     0.423 C 
BRANCH  15  16
HETATM   16  N3  UNL     1      17.033   0.045  49.282  1.00  0.00     0.117 N 
HETATM   17  H16 UNL     1      17.536  -0.452  48.514  1.00  0.00     0.317 HD
HETATM   18  H17 UNL     1      16.551   0.879  48.856  1.00  0.00     0.317 HD
ENDBRANCH  15  16
BRANCH  15  19
HETATM   19  O1  UNL     1      17.235   0.504  51.495  1.00  0.00    -0.327 OA
BRANCH  19  20
HETATM   20  P1  UNL     1      17.643  -0.862  52.499  1.00  0.00     0.005 P 
HETATM   21  H18 UNL     1      18.730  -1.574  51.823  1.00  0.00     0.084 HD
HETATM   22  H19 UNL     1      16.501  -1.768  52.512  1.00  0.00     0.084 HD
ENDBRANCH  19  20
ENDBRANCH  15  19
ENDBRANCH  14  15
ENDBRANCH  13  14
ENDBRANCH   9  13
BRANCH   7  23
HETATM   23  C8  UNL     1      24.585   3.455  49.794  1.00  0.00    -0.005 A 
HETATM   24  C9  UNL     1      25.889   3.098  49.665  1.00  0.00     0.014 A 
HETATM   25  C10 UNL     1      26.915   3.894  49.250  1.00  0.00     0.001 A 
HETATM   26  C11 UNL     1      26.686   5.208  48.905  1.00  0.00     0.000 A 
HETATM   27  C12 UNL     1      25.393   5.653  49.004  1.00  0.00     0.001 A 
HETATM   28  C13 UNL     1      24.398   4.810  49.428  1.00  0.00     0.014 A 
ENDBRANCH   7  23
TORSDOF 7
ENDMDL
MODEL 9
REMARK VINA RESULT:      -6.9      3.878      7.271
REMARK  7 active torsions:
REMARK  status: ('A' for Active; 'I' for Inactive)
REMARK    1  A    between atoms: C7_7  and  C8_8 
REMARK    2  A    between atoms: N2_15  and  C14_16 
REMARK    3  A    between atoms: C14_16  and  S1_17 
REMARK    4  A    between atoms: S1_17  and  C15_18 
REMARK    5  A    between atoms: C15_18  and  N3_19 
REMARK    6  A    between atoms: C15_18  and  O1_20 
REMARK    7  A    between atoms: O1_20  and  P1_21 
ROOT
HETATM    1  C1  UNL     1      26.219   6.840  48.295  1.00  0.00     0.048 C 
HETATM    2  C2  UNL     1      25.863   5.579  48.994  1.00  0.00    -0.062 C 
HETATM    3  C3  UNL     1      24.617   5.535  49.447  1.00  0.00     0.014 C 
HETATM    4  C4  UNL     1      23.931   4.474  50.169  1.00  0.00    -0.050 C 
HETATM    5  C5  UNL     1      22.671   4.784  50.921  1.00  0.00     0.049 C 
HETATM    6  C6  UNL     1      24.408   3.257  50.302  1.00  0.00     0.007 C 
HETATM    7  C7  UNL     1      23.734   2.153  51.015  1.00  0.00     0.096 C 
HETATM    8  N1  UNL     1      24.684   1.526  51.672  1.00  0.00    -0.174 NA
HETATM    9  N2  UNL     1      25.917   2.094  51.457  1.00  0.00    -0.283 N 
HETATM   10  C16 UNL     1      25.676   2.491  50.048  1.00  0.00     0.164 C 
HETATM   11  C17 UNL     1      26.761   3.340  49.525  1.00  0.00     0.005 C 
HETATM   12  C18 UNL     1      26.913   4.573  49.087  1.00  0.00     0.005 C 
ENDROOT
BRANCH   9  13
HETATM   13  C14 UNL     1      27.072   2.259  52.306  1.00  0.00     0.224 C 
BRANCH  13  14
HETATM   14  S1  UNL     1      27.580   0.685  52.996  1.00  0.00    -0.086 SA
BRANCH  14  15
HETATM   15  C15 UNL     1      28.573   0.864  54.499  1.00  0.00     0.423 C 
BRANCH  15  16
HETATM   16  N3  UNL     1      29.390   2.053  54.411  1.00  0.00     0.117 N 
HETATM   17  H16 UNL     1      29.563   2.439  55.366  1.00  0.00     0.317 HD
HETATM   18  H17 UNL     1      28.910   2.801  53.849  1.00  0.00     0.317 HD
ENDBRANCH  15  16
BRANCH  15  19
HETATM   19  O1  UNL     1      29.466  -0.205  54.630  1.00  0.00    -0.327 OA
BRANCH  19  20
HETATM   20  P1  UNL     1      29.204  -1.353  53.344  1.00  0.00     0.005 P 
HETATM   21  H18 UNL     1      29.917  -0.844  52.170  1.00  0.00     0.084 HD
HETATM   22  H19 UNL     1      27.786  -1.335  53.006  1.00  0.00     0.084 HD
ENDBRANCH  19  20
ENDBRANCH  15  19
ENDBRANCH  14  15
ENDBRANCH  13  14
ENDBRANCH   9  13
BRANCH   7  23
HETATM   23  C8  UNL     1      22.310   1.867  51.017  1.00  0.00    -0.005 A 
HETATM   24  C9  UNL     1      21.311   1.818  51.935  1.00  0.00     0.014 A 
HETATM   25  C10 UNL     1      20.021   1.432  51.718  1.00  0.00     0.001 A 
HETATM   26  C11 UNL     1      19.609   1.042  50.464  1.00  0.00     0.000 A 
HETATM   27  C12 UNL     1      20.556   1.062  49.472  1.00  0.00     0.001 A 
HETATM   28  C13 UNL     1      21.841   1.457  49.745  1.00  0.00     0.014 A 
ENDBRANCH   7  23
TORSDOF 7
ENDMDL
