MODEL 1
REMARK VINA RESULT:      -8.3      0.000      0.000
REMARK  6 active torsions:
REMARK  status: ('A' for Active; 'I' for Inactive)
REMARK    1  A    between atoms: C2_2  and  O1_3 
REMARK    2  A    between atoms: O1_3  and  C3_4 
REMARK    3  A    between atoms: C3_4  and  C4_6 
REMARK    4  A    between atoms: C8_12  and  C9_13 
REMARK    5  A    between atoms: C10_14  and  C11_15 
REMARK    6  A    between atoms: C11_15  and  O4_16 
ROOT
HETATM    1  C4  UNL     1      25.935   0.908  53.189  1.00  0.00     0.122 A 
HETATM    2  C5  UNL     1      24.647   0.667  53.027  1.00  0.00     0.027 A 
HETATM    3  C6  UNL     1      24.245   1.454  51.882  1.00  0.00     0.084 A 
HETATM    4  N1  UNL     1      25.246   2.115  51.409  1.00  0.00    -0.208 NA
HETATM    5  C7  UNL     1      26.414   1.840  52.180  1.00  0.00     0.284 A 
HETATM    6  O3  UNL     1      27.551   2.335  51.966  1.00  0.00    -0.265 OA
HETATM    7  C8  UNL     1      22.823   1.219  51.665  1.00  0.00     0.005 A 
HETATM    8  C12 UNL     1      22.446   0.290  52.708  1.00  0.00    -0.012 A 
HETATM    9  C13 UNL     1      21.245  -0.301  53.021  1.00  0.00     0.013 A 
HETATM   10  C14 UNL     1      21.045  -1.175  54.056  1.00  0.00     0.001 A 
HETATM   11  C15 UNL     1      22.123  -1.494  54.853  1.00  0.00     0.001 A 
HETATM   12  C16 UNL     1      23.350  -0.928  54.578  1.00  0.00     0.013 A 
HETATM   13  C17 UNL     1      23.492  -0.063  53.533  1.00  0.00    -0.011 A 
ENDROOT
BRANCH   1  14
HETATM   14  C3  UNL     1      26.839   0.373  54.195  1.00  0.00     0.299 C 
HETATM   15  O2  UNL     1      27.281   0.748  55.304  1.00  0.00    -0.259 OA
BRANCH  14  16
HETATM   16  O1  UNL     1      27.486  -0.845  54.107  1.00  0.00    -0.318 OA
BRANCH  16  17
HETATM   17  C2  UNL     1      28.433  -1.156  53.107  1.00  0.00     0.174 C 
HETATM   18  C1  UNL     1      29.835  -0.833  53.568  1.00  0.00     0.034 C 
ENDBRANCH  16  17
ENDBRANCH  14  16
ENDBRANCH   1  14
BRANCH   7  19
HETATM   19  C9  UNL     1      22.144   1.784  50.702  1.00  0.00     0.016 C 
HETATM   20  C10 UNL     1      21.565   1.018  49.620  1.00  0.00     0.025 C 
BRANCH  20  21
HETATM   21  C11 UNL     1      20.888   1.608  48.667  1.00  0.00     0.131 C 
BRANCH  21  22
HETATM   22  O4  UNL     1      20.085   2.213  47.727  1.00  0.00    -0.373 OA
HETATM   23  H9  UNL     1      20.138   3.213  47.534  1.00  0.00     0.216 HD
ENDBRANCH  21  22
ENDBRANCH  20  21
ENDBRANCH   7  19
TORSDOF 6
ENDMDL
MODEL 2
REMARK VINA RESULT:      -8.2      1.959      5.508
REMARK  6 active torsions:
REMARK  status: ('A' for Active; 'I' for Inactive)
REMARK    1  A    between atoms: C2_2  and  O1_3 
REMARK    2  A    between atoms: O1_3  and  C3_4 
REMARK    3  A    between atoms: C3_4  and  C4_6 
REMARK    4  A    between atoms: C8_12  and  C9_13 
REMARK    5  A    between atoms: C10_14  and  C11_15 
REMARK    6  A    between atoms: C11_15  and  O4_16 
ROOT
HETATM    1  C4  UNL     1      24.435   2.735  51.171  1.00  0.00     0.122 A 
HETATM    2  C5  UNL     1      24.187   1.723  51.984  1.00  0.00     0.027 A 
HETATM    3  C6  UNL     1      25.455   1.055  52.172  1.00  0.00     0.084 A 
HETATM    4  N1  UNL     1      26.386   1.649  51.506  1.00  0.00    -0.208 NA
HETATM    5  C7  UNL     1      25.843   2.767  50.807  1.00  0.00     0.284 A 
HETATM    6  O3  UNL     1      26.501   3.544  50.069  1.00  0.00    -0.265 OA
HETATM    7  C8  UNL     1      25.229  -0.073  53.065  1.00  0.00     0.005 A 
HETATM    8  C12 UNL     1      23.816  -0.019  53.367  1.00  0.00    -0.012 A 
HETATM    9  C13 UNL     1      23.013  -0.813  54.151  1.00  0.00     0.013 A 
HETATM   10  C14 UNL     1      21.669  -0.629  54.340  1.00  0.00     0.001 A 
HETATM   11  C15 UNL     1      21.063   0.430  53.699  1.00  0.00     0.001 A 
HETATM   12  C16 UNL     1      21.827   1.256  52.902  1.00  0.00     0.013 A 
HETATM   13  C17 UNL     1      23.162   1.026  52.749  1.00  0.00    -0.011 A 
ENDROOT
BRANCH   1  14
HETATM   14  C3  UNL     1      23.510   3.731  50.654  1.00  0.00     0.299 C 
HETATM   15  O2  UNL     1      23.364   4.970  50.760  1.00  0.00    -0.259 OA
BRANCH  14  16
HETATM   16  O1  UNL     1      22.447   3.461  49.813  1.00  0.00    -0.318 OA
BRANCH  16  17
HETATM   17  C2  UNL     1      22.495   2.500  48.779  1.00  0.00     0.174 C 
HETATM   18  C1  UNL     1      21.603   1.321  49.092  1.00  0.00     0.034 C 
ENDBRANCH  16  17
ENDBRANCH  14  16
ENDBRANCH   1  14
BRANCH   7  19
HETATM   19  C9  UNL     1      26.179  -0.889  53.442  1.00  0.00     0.016 C 
HETATM   20  C10 UNL     1      26.832  -1.787  52.514  1.00  0.00     0.025 C 
BRANCH  20  21
HETATM   21  C11 UNL     1      27.780  -2.594  52.917  1.00  0.00     0.131 C 
BRANCH  21  22
HETATM   22  O4  UNL     1      28.705  -3.526  53.332  1.00  0.00    -0.373 OA
HETATM   23  H9  UNL     1      28.954  -3.639  54.314  1.00  0.00     0.216 HD
ENDBRANCH  21  22
ENDBRANCH  20  21
ENDBRANCH   7  19
TORSDOF 6
ENDMDL
MODEL 3
REMARK VINA RESULT:      -8.1      2.212      3.992
REMARK  6 active torsions:
REMARK  status: ('A' for Active; 'I' for Inactive)
REMARK    1  A    between atoms: C2_2  and  O1_3 
REMARK    2  A    between atoms: O1_3  and  C3_4 
REMARK    3  A    between atoms: C3_4  and  C4_6 
REMARK    4  A    between atoms: C8_12  and  C9_13 
REMARK    5  A    between atoms: C10_14  and  C11_15 
REMARK    6  A    between atoms: C11_15  and  O4_16 
ROOT
HETATM    1  C4  UNL     1      26.445   1.090  53.556  1.00  0.00     0.122 A 
HETATM    2  C5  UNL     1      25.460   1.335  52.712  1.00  0.00     0.027 A 
HETATM    3  C6  UNL     1      24.367   0.485  53.131  1.00  0.00     0.084 A 
HETATM    4  N1  UNL     1      24.703  -0.212  54.163  1.00  0.00    -0.208 NA
HETATM    5  C7  UNL     1      26.044   0.095  54.539  1.00  0.00     0.284 A 
HETATM    6  O3  UNL     1      26.657  -0.424  55.507  1.00  0.00    -0.265 OA
HETATM    7  C8  UNL     1      23.253   0.722  52.223  1.00  0.00     0.005 A 
HETATM    8  C12 UNL     1      23.747   1.716  51.295  1.00  0.00    -0.012 A 
HETATM    9  C13 UNL     1      23.161   2.337  50.217  1.00  0.00     0.013 A 
HETATM   10  C14 UNL     1      23.769   3.272  49.423  1.00  0.00     0.001 A 
HETATM   11  C15 UNL     1      25.068   3.627  49.717  1.00  0.00     0.001 A 
HETATM   12  C16 UNL     1      25.699   3.032  50.789  1.00  0.00     0.013 A 
HETATM   13  C17 UNL     1      25.045   2.105  51.547  1.00  0.00    -0.011 A 
ENDROOT
BRANCH   1  14
HETATM   14  C3  UNL     1      27.777   1.674  53.591  1.00  0.00     0.299 C 
HETATM   15  O2  UNL     1      28.295   2.717  54.048  1.00  0.00    -0.259 OA
BRANCH  14  16
HETATM   16  O1  UNL     1      28.906   1.097  53.040  1.00  0.00    -0.318 OA
BRANCH  16  17
HETATM   17  C2  UNL     1      29.734   0.185  53.731  1.00  0.00     0.174 C 
HETATM   18  C1  UNL     1      29.435  -1.238  53.321  1.00  0.00     0.034 C 
ENDBRANCH  16  17
ENDBRANCH  14  16
ENDBRANCH   1  14
BRANCH   7  19
HETATM   19  C9  UNL     1      22.103   0.109  52.326  1.00  0.00     0.016 C 
HETATM   20  C10 UNL     1      21.343   0.106  53.557  1.00  0.00     0.025 C 
BRANCH  20  21
HETATM   21  C11 UNL     1      20.194  -0.516  53.634  1.00  0.00     0.131 C 
BRANCH  21  22
HETATM   22  O4  UNL     1      19.017  -1.209  53.814  1.00  0.00    -0.373 OA
HETATM   23  H9  UNL     1      18.223  -0.805  54.309  1.00  0.00     0.216 HD
ENDBRANCH  21  22
ENDBRANCH  20  21
ENDBRANCH   7  19
TORSDOF 6
ENDMDL
MODEL 4
REMARK VINA RESULT:      -7.9      2.541      5.617
REMARK  6 active torsions:
REMARK  status: ('A' for Active; 'I' for Inactive)
REMARK    1  A    between atoms: C2_2  and  O1_3 
REMARK    2  A    between atoms: O1_3  and  C3_4 
REMARK    3  A    between atoms: C3_4  and  C4_6 
REMARK    4  A    between atoms: C8_12  and  C9_13 
REMARK    5  A    between atoms: C10_14  and  C11_15 
REMARK    6  A    between atoms: C11_15  and  O4_16 
ROOT
HETATM    1  C4  UNL     1      24.779   2.914  50.795  1.00  0.00     0.122 A 
HETATM    2  C5  UNL     1      24.451   1.930  51.614  1.00  0.00     0.027 A 
HETATM    3  C6  UNL     1      25.687   1.237  51.902  1.00  0.00     0.084 A 
HETATM    4  N1  UNL     1      26.675   1.789  51.285  1.00  0.00    -0.208 NA
HETATM    5  C7  UNL     1      26.209   2.903  50.525  1.00  0.00     0.284 A 
HETATM    6  O3  UNL     1      26.934   3.645  49.815  1.00  0.00    -0.265 OA
HETATM    7  C8  UNL     1      25.372   0.137  52.805  1.00  0.00     0.005 A 
HETATM    8  C12 UNL     1      23.944   0.234  53.010  1.00  0.00    -0.012 A 
HETATM    9  C13 UNL     1      23.070  -0.520  53.758  1.00  0.00     0.013 A 
HETATM   10  C14 UNL     1      21.722  -0.298  53.852  1.00  0.00     0.001 A 
HETATM   11  C15 UNL     1      21.188   0.759  53.148  1.00  0.00     0.001 A 
HETATM   12  C16 UNL     1      22.024   1.545  52.383  1.00  0.00     0.013 A 
HETATM   13  C17 UNL     1      23.360   1.279  52.326  1.00  0.00    -0.011 A 
ENDROOT
BRANCH   1  14
HETATM   14  C3  UNL     1      23.917   3.920  50.195  1.00  0.00     0.299 C 
HETATM   15  O2  UNL     1      23.503   4.185  49.044  1.00  0.00    -0.259 OA
BRANCH  14  16
HETATM   16  O1  UNL     1      23.290   4.938  50.888  1.00  0.00    -0.318 OA
BRANCH  16  17
HETATM   17  C2  UNL     1      23.980   5.890  51.671  1.00  0.00     0.174 C 
HETATM   18  C1  UNL     1      24.679   6.906  50.799  1.00  0.00     0.034 C 
ENDBRANCH  16  17
ENDBRANCH  14  16
ENDBRANCH   1  14
BRANCH   7  19
HETATM   19  C9  UNL     1      26.273  -0.692  53.263  1.00  0.00     0.016 C 
HETATM   20  C10 UNL     1      26.866  -1.717  52.432  1.00  0.00     0.025 C 
BRANCH  20  21
HETATM   21  C11 UNL     1      27.767  -2.535  52.915  1.00  0.00     0.131 C 
BRANCH  21  22
HETATM   22  O4  UNL     1      28.646  -3.479  53.397  1.00  0.00    -0.373 OA
HETATM   23  H9  UNL     1      28.484  -3.969  54.276  1.00  0.00     0.216 HD
ENDBRANCH  21  22
ENDBRANCH  20  21
ENDBRANCH   7  19
TORSDOF 6
ENDMDL
MODEL 5
REMARK VINA RESULT:      -7.9      1.826      2.170
REMARK  6 active torsions:
REMARK  status: ('A' for Active; 'I' for Inactive)
REMARK    1  A    between atoms: C2_2  and  O1_3 
REMARK    2  A    between atoms: O1_3  and  C3_4 
REMARK    3  A    between atoms: C3_4  and  C4_6 
REMARK    4  A    between atoms: C8_12  and  C9_13 
REMARK    5  A    between atoms: C10_14  and  C11_15 
REMARK    6  A    between atoms: C11_15  and  O4_16 
ROOT
HETATM    1  C4  UNL     1      25.800   0.525  53.011  1.00  0.00     0.122 A 
HETATM    2  C5  UNL     1      24.491   0.704  53.041  1.00  0.00     0.027 A 
HETATM    3  C6  UNL     1      24.251   1.934  52.319  1.00  0.00     0.084 A 
HETATM    4  N1  UNL     1      25.360   2.438  51.896  1.00  0.00    -0.208 NA
HETATM    5  C7  UNL     1      26.450   1.605  52.285  1.00  0.00     0.284 A 
HETATM    6  O3  UNL     1      27.659   1.830  52.021  1.00  0.00    -0.265 OA
HETATM    7  C8  UNL     1      22.814   2.175  52.327  1.00  0.00     0.005 A 
HETATM    8  C12 UNL     1      22.264   1.058  53.064  1.00  0.00    -0.012 A 
HETATM    9  C13 UNL     1      20.973   0.727  53.402  1.00  0.00     0.013 A 
HETATM   10  C14 UNL     1      20.607  -0.383  54.115  1.00  0.00     0.001 A 
HETATM   11  C15 UNL     1      21.600  -1.243  54.532  1.00  0.00     0.001 A 
HETATM   12  C16 UNL     1      22.911  -0.955  54.216  1.00  0.00     0.013 A 
HETATM   13  C17 UNL     1      23.219   0.166  53.503  1.00  0.00    -0.011 A 
ENDROOT
BRANCH   1  14
HETATM   14  C3  UNL     1      26.580  -0.560  53.587  1.00  0.00     0.299 C 
HETATM   15  O2  UNL     1      26.826  -1.751  53.294  1.00  0.00    -0.259 OA
BRANCH  14  16
HETATM   16  O1  UNL     1      27.318  -0.469  54.752  1.00  0.00    -0.318 OA
BRANCH  16  17
HETATM   17  C2  UNL     1      28.573   0.174  54.833  1.00  0.00     0.174 C 
HETATM   18  C1  UNL     1      29.571  -0.462  53.895  1.00  0.00     0.034 C 
ENDBRANCH  16  17
ENDBRANCH  14  16
ENDBRANCH   1  14
BRANCH   7  19
HETATM   19  C9  UNL     1      22.259   3.212  51.756  1.00  0.00     0.016 C 
HETATM   20  C10 UNL     1      22.525   4.564  52.197  1.00  0.00     0.025 C 
BRANCH  20  21
HETATM   21  C11 UNL     1      21.957   5.585  51.608  1.00  0.00     0.131 C 
BRANCH  21  22
HETATM   22  O4  UNL     1      21.318   6.588  50.913  1.00  0.00    -0.373 OA
HETATM   23  H9  UNL     1      21.769   7.481  50.718  1.00  0.00     0.216 HD
ENDBRANCH  21  22
ENDBRANCH  20  21
ENDBRANCH   7  19
TORSDOF 6
ENDMDL
MODEL 6
REMARK VINA RESULT:      -7.2      2.325      6.236
REMARK  6 active torsions:
REMARK  status: ('A' for Active; 'I' for Inactive)
REMARK    1  A    between atoms: C2_2  and  O1_3 
REMARK    2  A    between atoms: O1_3  and  C3_4 
REMARK    3  A    between atoms: C3_4  and  C4_6 
REMARK    4  A    between atoms: C8_12  and  C9_13 
REMARK    5  A    between atoms: C10_14  and  C11_15 
REMARK    6  A    between atoms: C11_15  and  O4_16 
ROOT
HETATM    1  C4  UNL     1      21.254   2.895  51.849  1.00  0.00     0.122 A 
HETATM    2  C5  UNL     1      22.050   2.014  52.429  1.00  0.00     0.027 A 
HETATM    3  C6  UNL     1      23.391   2.378  52.028  1.00  0.00     0.084 A 
HETATM    4  N1  UNL     1      23.372   3.412  51.259  1.00  0.00    -0.208 NA
HETATM    5  C7  UNL     1      22.027   3.847  51.065  1.00  0.00     0.284 A 
HETATM    6  O3  UNL     1      21.682   4.832  50.364  1.00  0.00    -0.265 OA
HETATM    7  C8  UNL     1      24.306   1.428  52.647  1.00  0.00     0.005 A 
HETATM    8  C12 UNL     1      23.450   0.535  53.395  1.00  0.00    -0.012 A 
HETATM    9  C13 UNL     1      23.727  -0.558  54.183  1.00  0.00     0.013 A 
HETATM   10  C14 UNL     1      22.791  -1.314  54.837  1.00  0.00     0.001 A 
HETATM   11  C15 UNL     1      21.465  -0.962  54.703  1.00  0.00     0.001 A 
HETATM   12  C16 UNL     1      21.137   0.127  53.924  1.00  0.00     0.013 A 
HETATM   13  C17 UNL     1      22.111   0.845  53.295  1.00  0.00    -0.011 A 
ENDROOT
BRANCH   1  14
HETATM   14  C3  UNL     1      19.805   2.992  51.917  1.00  0.00     0.299 C 
HETATM   15  O2  UNL     1      18.957   3.912  51.875  1.00  0.00    -0.259 OA
BRANCH  14  16
HETATM   16  O1  UNL     1      18.948   1.917  52.063  1.00  0.00    -0.318 OA
BRANCH  16  17
HETATM   17  C2  UNL     1      18.529   1.100  50.990  1.00  0.00     0.174 C 
HETATM   18  C1  UNL     1      18.243  -0.307  51.459  1.00  0.00     0.034 C 
ENDBRANCH  16  17
ENDBRANCH  14  16
ENDBRANCH   1  14
BRANCH   7  19
HETATM   19  C9  UNL     1      25.603   1.476  52.486  1.00  0.00     0.016 C 
HETATM   20  C10 UNL     1      26.480   2.034  53.492  1.00  0.00     0.025 C 
BRANCH  20  21
HETATM   21  C11 UNL     1      27.776   2.070  53.306  1.00  0.00     0.131 C 
BRANCH  21  22
HETATM   22  O4  UNL     1      29.123   2.042  53.023  1.00  0.00    -0.373 OA
HETATM   23  H9  UNL     1      29.755   1.380  53.470  1.00  0.00     0.216 HD
ENDBRANCH  21  22
ENDBRANCH  20  21
ENDBRANCH   7  19
TORSDOF 6
ENDMDL
MODEL 7
REMARK VINA RESULT:      -6.6      6.060      8.567
REMARK  6 active torsions:
REMARK  status: ('A' for Active; 'I' for Inactive)
REMARK    1  A    between atoms: C2_2  and  O1_3 
REMARK    2  A    between atoms: O1_3  and  C3_4 
REMARK    3  A    between atoms: C3_4  and  C4_6 
REMARK    4  A    between atoms: C8_12  and  C9_13 
REMARK    5  A    between atoms: C10_14  and  C11_15 
REMARK    6  A    between atoms: C11_15  and  O4_16 
ROOT
HETATM    1  C4  UNL     1      28.180   7.028  47.871  1.00  0.00     0.122 A 
HETATM    2  C5  UNL     1      27.109   6.389  48.306  1.00  0.00     0.027 A 
HETATM    3  C6  UNL     1      27.572   5.078  48.703  1.00  0.00     0.084 A 
HETATM    4  N1  UNL     1      28.841   4.965  48.508  1.00  0.00    -0.208 NA
HETATM    5  C7  UNL     1      29.358   6.179  47.965  1.00  0.00     0.284 A 
HETATM    6  O3  UNL     1      30.563   6.379  47.667  1.00  0.00    -0.265 OA
HETATM    7  C8  UNL     1      26.418   4.334  49.191  1.00  0.00     0.005 A 
HETATM    8  C12 UNL     1      25.310   5.255  49.057  1.00  0.00    -0.012 A 
HETATM    9  C13 UNL     1      23.973   5.132  49.352  1.00  0.00     0.013 A 
HETATM   10  C14 UNL     1      23.033   6.111  49.166  1.00  0.00     0.001 A 
HETATM   11  C15 UNL     1      23.449   7.317  48.644  1.00  0.00     0.001 A 
HETATM   12  C16 UNL     1      24.780   7.490  48.333  1.00  0.00     0.013 A 
HETATM   13  C17 UNL     1      25.674   6.480  48.539  1.00  0.00    -0.011 A 
ENDROOT
BRANCH   1  14
HETATM   14  C3  UNL     1      28.281   8.383  47.353  1.00  0.00     0.299 C 
HETATM   15  O2  UNL     1      28.461   8.912  46.233  1.00  0.00    -0.259 OA
BRANCH  14  16
HETATM   16  O1  UNL     1      28.182   9.530  48.118  1.00  0.00    -0.318 OA
BRANCH  16  17
HETATM   17  C2  UNL     1      28.721   9.650  49.418  1.00  0.00     0.174 C 
HETATM   18  C1  UNL     1      30.231   9.683  49.379  1.00  0.00     0.034 C 
ENDBRANCH  16  17
ENDBRANCH  14  16
ENDBRANCH   1  14
BRANCH   7  19
HETATM   19  C9  UNL     1      26.492   3.105  49.630  1.00  0.00     0.016 C 
HETATM   20  C10 UNL     1      26.461   2.792  51.042  1.00  0.00     0.025 C 
BRANCH  20  21
HETATM   21  C11 UNL     1      26.537   1.552  51.456  1.00  0.00     0.131 C 
BRANCH  21  22
HETATM   22  O4  UNL     1      26.697   0.233  51.816  1.00  0.00    -0.373 OA
HETATM   23  H9  UNL     1      25.914  -0.418  51.845  1.00  0.00     0.216 HD
ENDBRANCH  21  22
ENDBRANCH  20  21
ENDBRANCH   7  19
TORSDOF 6
ENDMDL
MODEL 8
REMARK VINA RESULT:      -6.6      1.569      1.740
REMARK  6 active torsions:
REMARK  status: ('A' for Active; 'I' for Inactive)
REMARK    1  A    between atoms: C2_2  and  O1_3 
REMARK    2  A    between atoms: O1_3  and  C3_4 
REMARK    3  A    between atoms: C3_4  and  C4_6 
REMARK    4  A    between atoms: C8_12  and  C9_13 
REMARK    5  A    between atoms: C10_14  and  C11_15 
REMARK    6  A    between atoms: C11_15  and  O4_16 
ROOT
HETATM    1  C4  UNL     1      24.614   1.817  52.937  1.00  0.00     0.122 A 
HETATM    2  C5  UNL     1      23.447   1.202  52.991  1.00  0.00     0.027 A 
HETATM    3  C6  UNL     1      22.580   1.932  52.092  1.00  0.00     0.084 A 
HETATM    4  N1  UNL     1      23.213   2.915  51.547  1.00  0.00    -0.208 NA
HETATM    5  C7  UNL     1      24.558   2.946  52.020  1.00  0.00     0.284 A 
HETATM    6  O3  UNL     1      25.424   3.789  51.673  1.00  0.00    -0.265 OA
HETATM    7  C8  UNL     1      21.275   1.286  52.120  1.00  0.00     0.005 A 
HETATM    8  C12 UNL     1      21.433   0.189  53.049  1.00  0.00    -0.012 A 
HETATM    9  C13 UNL     1      20.558  -0.776  53.489  1.00  0.00     0.013 A 
HETATM   10  C14 UNL     1      20.862  -1.765  54.385  1.00  0.00     0.001 A 
HETATM   11  C15 UNL     1      22.143  -1.807  54.893  1.00  0.00     0.001 A 
HETATM   12  C16 UNL     1      23.058  -0.861  54.482  1.00  0.00     0.013 A 
HETATM   13  C17 UNL     1      22.700   0.102  53.586  1.00  0.00    -0.011 A 
ENDROOT
BRANCH   1  14
HETATM   14  C3  UNL     1      25.843   1.497  53.646  1.00  0.00     0.299 C 
HETATM   15  O2  UNL     1      26.730   2.137  54.253  1.00  0.00    -0.259 OA
BRANCH  14  16
HETATM   16  O1  UNL     1      26.347   0.221  53.814  1.00  0.00    -0.318 OA
BRANCH  16  17
HETATM   17  C2  UNL     1      26.826  -0.576  52.750  1.00  0.00     0.174 C 
HETATM   18  C1  UNL     1      28.070  -1.332  53.155  1.00  0.00     0.034 C 
ENDBRANCH  16  17
ENDBRANCH  14  16
ENDBRANCH   1  14
BRANCH   7  19
HETATM   19  C9  UNL     1      20.256   1.701  51.414  1.00  0.00     0.016 C 
HETATM   20  C10 UNL     1      19.682   0.902  50.353  1.00  0.00     0.025 C 
BRANCH  20  21
HETATM   21  C11 UNL     1      18.661   1.341  49.660  1.00  0.00     0.131 C 
BRANCH  21  22
HETATM   22  O4  UNL     1      17.592   1.707  48.875  1.00  0.00    -0.373 OA
HETATM   23  H9  UNL     1      16.993   1.017  48.421  1.00  0.00     0.216 HD
ENDBRANCH  21  22
ENDBRANCH  20  21
ENDBRANCH   7  19
TORSDOF 6
ENDMDL
MODEL 9
REMARK VINA RESULT:      -6.4      3.607      6.033
REMARK  6 active torsions:
REMARK  status: ('A' for Active; 'I' for Inactive)
REMARK    1  A    between atoms: C2_2  and  O1_3 
REMARK    2  A    between atoms: O1_3  and  C3_4 
REMARK    3  A    between atoms: C3_4  and  C4_6 
REMARK    4  A    between atoms: C8_12  and  C9_13 
REMARK    5  A    between atoms: C10_14  and  C11_15 
REMARK    6  A    between atoms: C11_15  and  O4_16 
ROOT
HETATM    1  C4  UNL     1      24.794   1.758  51.739  1.00  0.00     0.122 A 
HETATM    2  C5  UNL     1      24.763   2.736  50.852  1.00  0.00     0.027 A 
HETATM    3  C6  UNL     1      26.140   2.964  50.475  1.00  0.00     0.084 A 
HETATM    4  N1  UNL     1      26.925   2.161  51.110  1.00  0.00    -0.208 NA
HETATM    5  C7  UNL     1      26.162   1.318  51.971  1.00  0.00     0.284 A 
HETATM    6  O3  UNL     1      26.642   0.430  52.721  1.00  0.00    -0.265 OA
HETATM    7  C8  UNL     1      26.155   4.040  49.494  1.00  0.00     0.005 A 
HETATM    8  C12 UNL     1      24.764   4.404  49.334  1.00  0.00    -0.012 A 
HETATM    9  C13 UNL     1      24.146   5.349  48.550  1.00  0.00     0.013 A 
HETATM   10  C14 UNL     1      22.796   5.576  48.509  1.00  0.00     0.001 A 
HETATM   11  C15 UNL     1      21.984   4.804  49.312  1.00  0.00     0.001 A 
HETATM   12  C16 UNL     1      22.557   3.842  50.116  1.00  0.00     0.013 A 
HETATM   13  C17 UNL     1      23.908   3.658  50.117  1.00  0.00    -0.011 A 
ENDROOT
BRANCH   1  14
HETATM   14  C3  UNL     1      23.684   1.135  52.443  1.00  0.00     0.299 C 
HETATM   15  O2  UNL     1      22.457   1.348  52.565  1.00  0.00    -0.259 OA
BRANCH  14  16
HETATM   16  O1  UNL     1      23.786   0.009  53.239  1.00  0.00    -0.318 OA
BRANCH  16  17
HETATM   17  C2  UNL     1      22.706  -0.861  53.502  1.00  0.00     0.174 C 
HETATM   18  C1  UNL     1      22.634  -1.208  54.971  1.00  0.00     0.034 C 
ENDBRANCH  16  17
ENDBRANCH  14  16
ENDBRANCH   1  14
BRANCH   7  19
HETATM   19  C9  UNL     1      27.251   4.494  48.946  1.00  0.00     0.016 C 
HETATM   20  C10 UNL     1      27.408   5.885  48.580  1.00  0.00     0.025 C 
BRANCH  20  21
HETATM   21  C11 UNL     1      28.516   6.314  48.032  1.00  0.00     0.131 C 
BRANCH  21  22
HETATM   22  O4  UNL     1      29.639   6.739  47.358  1.00  0.00    -0.373 OA
HETATM   23  H9  UNL     1      29.647   7.600  46.812  1.00  0.00     0.216 HD
ENDBRANCH  21  22
ENDBRANCH  20  21
ENDBRANCH   7  19
TORSDOF 6
ENDMDL
