MODEL 1
REMARK VINA RESULT:      -7.9      0.000      0.000
REMARK  4 active torsions:
REMARK  status: ('A' for Active; 'I' for Inactive)
REMARK    1  A    between atoms: C3_3  and  C5_5 
REMARK    2  A    between atoms: C5_5  and  C17_20 
REMARK    3  A    between atoms: C6_6  and  C7_7 
REMARK    4  A    between atoms: C17_20  and  S1_21 
ROOT
HETATM    1  C7  UNL     1      24.747   1.641  52.272  1.00  0.00     0.088 C 
HETATM    2  N1  UNL     1      25.158   2.816  51.984  1.00  0.00    -0.175 NA
HETATM    3  N2  UNL     1      24.552   4.064  51.888  1.00  0.00    -0.288 N 
HETATM    4  C8  UNL     1      23.230   4.128  51.315  1.00  0.00     0.116 C 
HETATM    5  C9  UNL     1      22.173   3.294  51.415  1.00  0.00    -0.034 C 
HETATM    6  C10 UNL     1      20.918   3.594  50.719  1.00  0.00     0.050 C 
HETATM    7  C11 UNL     1      22.220   2.060  52.237  1.00  0.00    -0.016 A 
HETATM    8  C12 UNL     1      20.950   1.703  52.618  1.00  0.00     0.014 A 
HETATM    9  C13 UNL     1      20.827   0.583  53.432  1.00  0.00     0.024 A 
HETATM   10  C14 UNL     1      21.946  -0.147  53.845  1.00  0.00     0.035 A 
HETATM   11 CL1  UNL     1      21.764  -1.557  54.875  1.00  0.00    -0.084 Cl
HETATM   12  C15 UNL     1      23.196   0.261  53.430  1.00  0.00     0.038 A 
HETATM   13  C16 UNL     1      23.370   1.359  52.625  1.00  0.00     0.007 A 
HETATM   14  H9  UNL     1      24.993   4.955  52.196  1.00  0.00     0.188 HD
ENDROOT
BRANCH   1  15
HETATM   15  C6  UNL     1      25.626   0.496  52.292  1.00  0.00     0.042 C 
HETATM   16  C5  UNL     1      26.685   0.289  53.095  1.00  0.00    -0.041 C 
BRANCH  16  17
HETATM   17  C3  UNL     1      27.498  -0.952  52.991  1.00  0.00    -0.059 C 
HETATM   18  C2  UNL     1      28.731  -1.098  53.424  1.00  0.00    -0.024 C 
HETATM   19  C1  UNL     1      29.346  -2.429  53.200  1.00  0.00     0.036 C 
HETATM   20  C4  UNL     1      26.822  -2.096  52.327  1.00  0.00     0.048 C 
ENDBRANCH  16  17
BRANCH  16  21
HETATM   21  C17 UNL     1      27.191   1.170  54.154  1.00  0.00     0.109 C 
BRANCH  21  22
HETATM   22  S1  UNL     1      28.465   2.340  53.548  1.00  0.00    -0.178 SA
HETATM   23  H19 UNL     1      28.389   3.486  54.362  1.00  0.00     0.101 HD
ENDBRANCH  21  22
ENDBRANCH  16  21
ENDBRANCH   1  15
TORSDOF 4
ENDMDL
MODEL 2
REMARK VINA RESULT:      -7.6      4.329      5.812
REMARK  4 active torsions:
REMARK  status: ('A' for Active; 'I' for Inactive)
REMARK    1  A    between atoms: C3_3  and  C5_5 
REMARK    2  A    between atoms: C5_5  and  C17_20 
REMARK    3  A    between atoms: C6_6  and  C7_7 
REMARK    4  A    between atoms: C17_20  and  S1_21 
ROOT
HETATM    1  C7  UNL     1      25.435   3.404  49.870  1.00  0.00     0.088 C 
HETATM    2  N1  UNL     1      24.211   3.066  49.724  1.00  0.00    -0.175 NA
HETATM    3  N2  UNL     1      23.127   3.607  49.042  1.00  0.00    -0.288 N 
HETATM    4  C8  UNL     1      22.978   5.041  49.044  1.00  0.00     0.116 C 
HETATM    5  C9  UNL     1      23.892   6.033  48.977  1.00  0.00    -0.034 C 
HETATM    6  C10 UNL     1      23.471   7.438  48.997  1.00  0.00     0.050 C 
HETATM    7  C11 UNL     1      25.344   5.758  48.861  1.00  0.00    -0.016 A 
HETATM    8  C12 UNL     1      25.979   6.826  48.276  1.00  0.00     0.014 A 
HETATM    9  C13 UNL     1      27.347   6.706  48.059  1.00  0.00     0.024 A 
HETATM   10  C14 UNL     1      28.046   5.549  48.420  1.00  0.00     0.035 A 
HETATM   11 CL1  UNL     1      29.773   5.423  48.133  1.00  0.00    -0.084 Cl
HETATM   12  C15 UNL     1      27.353   4.509  49.003  1.00  0.00     0.038 A 
HETATM   13  C16 UNL     1      26.003   4.579  49.239  1.00  0.00     0.007 A 
HETATM   14  H9  UNL     1      22.411   3.043  48.538  1.00  0.00     0.188 HD
ENDROOT
BRANCH   1  15
HETATM   15  C6  UNL     1      26.363   2.632  50.661  1.00  0.00     0.042 C 
HETATM   16  C5  UNL     1      26.240   2.272  51.951  1.00  0.00    -0.041 C 
BRANCH  16  17
HETATM   17  C3  UNL     1      27.292   1.470  52.630  1.00  0.00    -0.059 C 
HETATM   18  C2  UNL     1      27.370   0.157  52.636  1.00  0.00    -0.024 C 
HETATM   19  C1  UNL     1      28.507  -0.424  53.392  1.00  0.00     0.036 C 
HETATM   20  C4  UNL     1      28.317   2.261  53.358  1.00  0.00     0.048 C 
ENDBRANCH  16  17
BRANCH  16  21
HETATM   21  C17 UNL     1      25.124   2.566  52.859  1.00  0.00     0.109 C 
BRANCH  21  22
HETATM   22  S1  UNL     1      23.793   1.309  52.769  1.00  0.00    -0.178 SA
HETATM   23  H19 UNL     1      23.992   0.588  51.576  1.00  0.00     0.101 HD
ENDBRANCH  21  22
ENDBRANCH  16  21
ENDBRANCH   1  15
TORSDOF 4
ENDMDL
MODEL 3
REMARK VINA RESULT:      -7.5      3.170      4.326
REMARK  4 active torsions:
REMARK  status: ('A' for Active; 'I' for Inactive)
REMARK    1  A    between atoms: C3_3  and  C5_5 
REMARK    2  A    between atoms: C5_5  and  C17_20 
REMARK    3  A    between atoms: C6_6  and  C7_7 
REMARK    4  A    between atoms: C17_20  and  S1_21 
ROOT
HETATM    1  C7  UNL     1      25.109   1.766  51.519  1.00  0.00     0.088 C 
HETATM    2  N1  UNL     1      24.027   1.132  51.764  1.00  0.00    -0.175 NA
HETATM    3  N2  UNL     1      22.681   1.367  51.507  1.00  0.00    -0.288 N 
HETATM    4  C8  UNL     1      22.198   2.720  51.637  1.00  0.00     0.116 C 
HETATM    5  C9  UNL     1      22.767   3.904  51.329  1.00  0.00    -0.034 C 
HETATM    6  C10 UNL     1      22.049   5.161  51.564  1.00  0.00     0.050 C 
HETATM    7  C11 UNL     1      24.120   3.993  50.727  1.00  0.00    -0.016 A 
HETATM    8  C12 UNL     1      24.245   5.168  50.027  1.00  0.00     0.014 A 
HETATM    9  C13 UNL     1      25.449   5.384  49.367  1.00  0.00     0.024 A 
HETATM   10  C14 UNL     1      26.487   4.447  49.413  1.00  0.00     0.035 A 
HETATM   11 CL1  UNL     1      27.998   4.743  48.569  1.00  0.00    -0.084 Cl
HETATM   12  C15 UNL     1      26.302   3.285  50.133  1.00  0.00     0.038 A 
HETATM   13  C16 UNL     1      25.133   3.026  50.803  1.00  0.00     0.007 A 
HETATM   14  H9  UNL     1      21.999   0.630  51.235  1.00  0.00     0.188 HD
ENDROOT
BRANCH   1  15
HETATM   15  C6  UNL     1      26.405   1.270  51.917  1.00  0.00     0.042 C 
HETATM   16  C5  UNL     1      26.800   0.905  53.150  1.00  0.00    -0.041 C 
BRANCH  16  17
HETATM   17  C3  UNL     1      28.180   0.412  53.401  1.00  0.00    -0.059 C 
HETATM   18  C2  UNL     1      28.592  -0.828  53.245  1.00  0.00    -0.024 C 
HETATM   19  C1  UNL     1      30.016  -1.086  53.568  1.00  0.00     0.036 C 
HETATM   20  C4  UNL     1      29.141   1.441  53.875  1.00  0.00     0.048 C 
ENDBRANCH  16  17
BRANCH  16  21
HETATM   21  C17 UNL     1      26.002   0.907  54.383  1.00  0.00     0.109 C 
BRANCH  21  22
HETATM   22  S1  UNL     1      25.108  -0.671  54.645  1.00  0.00    -0.178 SA
HETATM   23  H19 UNL     1      25.148  -0.939  56.027  1.00  0.00     0.101 HD
ENDBRANCH  21  22
ENDBRANCH  16  21
ENDBRANCH   1  15
TORSDOF 4
ENDMDL
MODEL 4
REMARK VINA RESULT:      -7.5      3.247      4.865
REMARK  4 active torsions:
REMARK  status: ('A' for Active; 'I' for Inactive)
REMARK    1  A    between atoms: C3_3  and  C5_5 
REMARK    2  A    between atoms: C5_5  and  C17_20 
REMARK    3  A    between atoms: C6_6  and  C7_7 
REMARK    4  A    between atoms: C17_20  and  S1_21 
ROOT
HETATM    1  C7  UNL     1      22.704   2.989  51.806  1.00  0.00     0.088 C 
HETATM    2  N1  UNL     1      21.715   3.797  51.840  1.00  0.00    -0.175 NA
HETATM    3  N2  UNL     1      20.412   3.722  52.319  1.00  0.00    -0.288 N 
HETATM    4  C8  UNL     1      19.699   2.482  52.137  1.00  0.00     0.116 C 
HETATM    5  C9  UNL     1      20.111   1.198  52.202  1.00  0.00    -0.034 C 
HETATM    6  C10 UNL     1      19.168   0.099  51.972  1.00  0.00     0.050 C 
HETATM    7  C11 UNL     1      21.513   0.837  52.525  1.00  0.00    -0.016 A 
HETATM    8  C12 UNL     1      21.561  -0.427  53.057  1.00  0.00     0.014 A 
HETATM    9  C13 UNL     1      22.808  -0.900  53.451  1.00  0.00     0.024 A 
HETATM   10  C14 UNL     1      23.962  -0.121  53.312  1.00  0.00     0.035 A 
HETATM   11 CL1  UNL     1      25.524  -0.740  53.819  1.00  0.00    -0.084 Cl
HETATM   12  C15 UNL     1      23.850   1.142  52.770  1.00  0.00     0.038 A 
HETATM   13  C16 UNL     1      22.643   1.653  52.365  1.00  0.00     0.007 A 
HETATM   14  H9  UNL     1      19.916   4.505  52.793  1.00  0.00     0.188 HD
ENDROOT
BRANCH   1  15
HETATM   15  C6  UNL     1      23.977   3.346  51.227  1.00  0.00     0.042 C 
HETATM   16  C5  UNL     1      24.214   3.804  49.985  1.00  0.00    -0.041 C 
BRANCH  16  17
HETATM   17  C3  UNL     1      25.593   4.128  49.533  1.00  0.00    -0.059 C 
HETATM   18  C2  UNL     1      25.980   5.272  49.012  1.00  0.00    -0.024 C 
HETATM   19  C1  UNL     1      27.409   5.362  48.626  1.00  0.00     0.036 C 
HETATM   20  C4  UNL     1      26.584   3.034  49.697  1.00  0.00     0.048 C 
ENDBRANCH  16  17
BRANCH  16  21
HETATM   21  C17 UNL     1      23.231   4.066  48.926  1.00  0.00     0.109 C 
BRANCH  21  22
HETATM   22  S1  UNL     1      22.606   2.527  48.150  1.00  0.00    -0.178 SA
HETATM   23  H19 UNL     1      23.175   2.457  46.864  1.00  0.00     0.101 HD
ENDBRANCH  21  22
ENDBRANCH  16  21
ENDBRANCH   1  15
TORSDOF 4
ENDMDL
MODEL 5
REMARK VINA RESULT:      -7.3      1.952      2.391
REMARK  4 active torsions:
REMARK  status: ('A' for Active; 'I' for Inactive)
REMARK    1  A    between atoms: C3_3  and  C5_5 
REMARK    2  A    between atoms: C5_5  and  C17_20 
REMARK    3  A    between atoms: C6_6  and  C7_7 
REMARK    4  A    between atoms: C17_20  and  S1_21 
ROOT
HETATM    1  C7  UNL     1      23.732   2.723  52.433  1.00  0.00     0.088 C 
HETATM    2  N1  UNL     1      23.500   3.857  51.893  1.00  0.00    -0.175 NA
HETATM    3  N2  UNL     1      22.446   4.388  51.157  1.00  0.00    -0.288 N 
HETATM    4  C8  UNL     1      21.798   3.530  50.196  1.00  0.00     0.116 C 
HETATM    5  C9  UNL     1      21.497   2.214  50.234  1.00  0.00    -0.034 C 
HETATM    6  C10 UNL     1      20.823   1.570  49.102  1.00  0.00     0.050 C 
HETATM    7  C11 UNL     1      21.811   1.370  51.412  1.00  0.00    -0.016 A 
HETATM    8  C12 UNL     1      20.966   0.288  51.452  1.00  0.00     0.014 A 
HETATM    9  C13 UNL     1      21.107  -0.584  52.525  1.00  0.00     0.024 A 
HETATM   10  C14 UNL     1      22.065  -0.369  53.521  1.00  0.00     0.035 A 
HETATM   11 CL1  UNL     1      22.221  -1.484  54.868  1.00  0.00    -0.084 Cl
HETATM   12  C15 UNL     1      22.886   0.736  53.427  1.00  0.00     0.038 A 
HETATM   13  C16 UNL     1      22.787   1.625  52.386  1.00  0.00     0.007 A 
HETATM   14  H9  UNL     1      22.100   5.365  51.249  1.00  0.00     0.188 HD
ENDROOT
BRANCH   1  15
HETATM   15  C6  UNL     1      24.950   2.444  53.156  1.00  0.00     0.042 C 
HETATM   16  C5  UNL     1      26.121   2.011  52.655  1.00  0.00    -0.041 C 
BRANCH  16  17
HETATM   17  C3  UNL     1      27.293   1.767  53.537  1.00  0.00    -0.059 C 
HETATM   18  C2  UNL     1      28.421   2.442  53.517  1.00  0.00    -0.024 C 
HETATM   19  C1  UNL     1      29.456   2.010  54.488  1.00  0.00     0.036 C 
HETATM   20  C4  UNL     1      27.133   0.650  54.503  1.00  0.00     0.048 C 
ENDBRANCH  16  17
BRANCH  16  21
HETATM   21  C17 UNL     1      26.445   1.734  51.249  1.00  0.00     0.109 C 
BRANCH  21  22
HETATM   22  S1  UNL     1      26.550   3.259  50.238  1.00  0.00    -0.178 SA
HETATM   23  H19 UNL     1      27.851   3.771  50.405  1.00  0.00     0.101 HD
ENDBRANCH  21  22
ENDBRANCH  16  21
ENDBRANCH   1  15
TORSDOF 4
ENDMDL
MODEL 6
REMARK VINA RESULT:      -7.2      9.023     11.381
REMARK  4 active torsions:
REMARK  status: ('A' for Active; 'I' for Inactive)
REMARK    1  A    between atoms: C3_3  and  C5_5 
REMARK    2  A    between atoms: C5_5  and  C17_20 
REMARK    3  A    between atoms: C6_6  and  C7_7 
REMARK    4  A    between atoms: C17_20  and  S1_21 
ROOT
HETATM    1  C7  UNL     1      31.651   6.379  48.034  1.00  0.00     0.088 C 
HETATM    2  N1  UNL     1      32.033   7.598  47.983  1.00  0.00    -0.175 NA
HETATM    3  N2  UNL     1      33.258   8.227  47.792  1.00  0.00    -0.288 N 
HETATM    4  C8  UNL     1      34.420   7.640  48.411  1.00  0.00     0.116 C 
HETATM    5  C9  UNL     1      34.777   6.351  48.597  1.00  0.00    -0.034 C 
HETATM    6  C10 UNL     1      36.036   6.015  49.270  1.00  0.00     0.050 C 
HETATM    7  C11 UNL     1      33.937   5.226  48.118  1.00  0.00    -0.016 A 
HETATM    8  C12 UNL     1      34.714   4.111  47.923  1.00  0.00     0.014 A 
HETATM    9  C13 UNL     1      34.078   2.976  47.434  1.00  0.00     0.024 A 
HETATM   10  C14 UNL     1      32.708   2.969  47.154  1.00  0.00     0.035 A 
HETATM   11 CL1  UNL     1      31.928   1.523  46.536  1.00  0.00    -0.084 Cl
HETATM   12  C15 UNL     1      31.980   4.120  47.370  1.00  0.00     0.038 A 
HETATM   13  C16 UNL     1      32.561   5.266  47.853  1.00  0.00     0.007 A 
HETATM   14  H9  UNL     1      33.389   9.098  47.238  1.00  0.00     0.188 HD
ENDROOT
BRANCH   1  15
HETATM   15  C6  UNL     1      30.274   6.007  48.254  1.00  0.00     0.042 C 
HETATM   16  C5  UNL     1      29.178   6.757  48.041  1.00  0.00    -0.041 C 
BRANCH  16  17
HETATM   17  C3  UNL     1      27.817   6.228  48.321  1.00  0.00    -0.059 C 
HETATM   18  C2  UNL     1      26.704   6.929  48.306  1.00  0.00    -0.024 C 
HETATM   19  C1  UNL     1      25.462   6.185  48.628  1.00  0.00     0.036 C 
HETATM   20  C4  UNL     1      27.758   4.780  48.649  1.00  0.00     0.048 C 
ENDBRANCH  16  17
BRANCH  16  21
HETATM   21  C17 UNL     1      29.119   8.128  47.517  1.00  0.00     0.109 C 
BRANCH  21  22
HETATM   22  S1  UNL     1      29.124   8.181  45.684  1.00  0.00    -0.178 SA
HETATM   23  H19 UNL     1      27.777   8.176  45.272  1.00  0.00     0.101 HD
ENDBRANCH  21  22
ENDBRANCH  16  21
ENDBRANCH   1  15
TORSDOF 4
ENDMDL
MODEL 7
REMARK VINA RESULT:      -7.0      3.214      6.275
REMARK  4 active torsions:
REMARK  status: ('A' for Active; 'I' for Inactive)
REMARK    1  A    between atoms: C3_3  and  C5_5 
REMARK    2  A    between atoms: C5_5  and  C17_20 
REMARK    3  A    between atoms: C6_6  and  C7_7 
REMARK    4  A    between atoms: C17_20  and  S1_21 
ROOT
HETATM    1  C7  UNL     1      21.746   1.461  51.556  1.00  0.00     0.088 C 
HETATM    2  N1  UNL     1      20.637   1.596  52.177  1.00  0.00    -0.175 NA
HETATM    3  N2  UNL     1      20.215   1.353  53.480  1.00  0.00    -0.288 N 
HETATM    4  C8  UNL     1      20.715   0.171  54.139  1.00  0.00     0.116 C 
HETATM    5  C9  UNL     1      21.926  -0.425  54.106  1.00  0.00    -0.034 C 
HETATM    6  C10 UNL     1      22.180  -1.642  54.884  1.00  0.00     0.050 C 
HETATM    7  C11 UNL     1      23.050   0.123  53.309  1.00  0.00    -0.016 A 
HETATM    8  C12 UNL     1      24.247  -0.291  53.840  1.00  0.00     0.014 A 
HETATM    9  C13 UNL     1      25.404   0.173  53.227  1.00  0.00     0.024 A 
HETATM   10  C14 UNL     1      25.353   1.026  52.119  1.00  0.00     0.035 A 
HETATM   11 CL1  UNL     1      26.830   1.600  51.363  1.00  0.00    -0.084 Cl
HETATM   12  C15 UNL     1      24.121   1.408  51.631  1.00  0.00     0.038 A 
HETATM   13  C16 UNL     1      22.950   0.975  52.200  1.00  0.00     0.007 A 
HETATM   14  H9  UNL     1      19.557   1.963  54.006  1.00  0.00     0.188 HD
ENDROOT
BRANCH   1  15
HETATM   15  C6  UNL     1      21.898   1.801  50.162  1.00  0.00     0.042 C 
HETATM   16  C5  UNL     1      21.841   3.025  49.605  1.00  0.00    -0.041 C 
BRANCH  16  17
HETATM   17  C3  UNL     1      22.018   3.213  48.141  1.00  0.00    -0.059 C 
HETATM   18  C2  UNL     1      21.689   4.290  47.462  1.00  0.00    -0.024 C 
HETATM   19  C1  UNL     1      21.952   4.245  46.003  1.00  0.00     0.036 C 
HETATM   20  C4  UNL     1      22.615   2.057  47.424  1.00  0.00     0.048 C 
ENDBRANCH  16  17
BRANCH  16  21
HETATM   21  C17 UNL     1      21.625   4.308  50.286  1.00  0.00     0.109 C 
BRANCH  21  22
HETATM   22  S1  UNL     1      23.181   5.036  50.925  1.00  0.00    -0.178 SA
HETATM   23  H19 UNL     1      23.083   5.040  52.330  1.00  0.00     0.101 HD
ENDBRANCH  21  22
ENDBRANCH  16  21
ENDBRANCH   1  15
TORSDOF 4
ENDMDL
MODEL 8
REMARK VINA RESULT:      -6.9      3.942      5.862
REMARK  4 active torsions:
REMARK  status: ('A' for Active; 'I' for Inactive)
REMARK    1  A    between atoms: C3_3  and  C5_5 
REMARK    2  A    between atoms: C5_5  and  C17_20 
REMARK    3  A    between atoms: C6_6  and  C7_7 
REMARK    4  A    between atoms: C17_20  and  S1_21 
ROOT
HETATM    1  C7  UNL     1      23.947   3.880  49.955  1.00  0.00     0.088 C 
HETATM    2  N1  UNL     1      22.770   4.319  49.722  1.00  0.00    -0.175 NA
HETATM    3  N2  UNL     1      21.504   4.018  50.213  1.00  0.00    -0.288 N 
HETATM    4  C8  UNL     1      21.195   2.633  50.473  1.00  0.00     0.116 C 
HETATM    5  C9  UNL     1      21.948   1.628  50.967  1.00  0.00    -0.034 C 
HETATM    6  C10 UNL     1      21.384   0.285  51.136  1.00  0.00     0.050 C 
HETATM    7  C11 UNL     1      23.359   1.832  51.378  1.00  0.00    -0.016 A 
HETATM    8  C12 UNL     1      23.717   0.889  52.309  1.00  0.00     0.014 A 
HETATM    9  C13 UNL     1      25.005   0.969  52.827  1.00  0.00     0.024 A 
HETATM   10  C14 UNL     1      25.896   1.967  52.417  1.00  0.00     0.035 A 
HETATM   11 CL1  UNL     1      27.516   2.048  53.088  1.00  0.00    -0.084 Cl
HETATM   12  C15 UNL     1      25.478   2.887  51.479  1.00  0.00     0.038 A 
HETATM   13  C16 UNL     1      24.218   2.849  50.937  1.00  0.00     0.007 A 
HETATM   14  H9  UNL     1      20.763   4.725  50.397  1.00  0.00     0.188 HD
ENDROOT
BRANCH   1  15
HETATM   15  C6  UNL     1      25.113   4.392  49.275  1.00  0.00     0.042 C 
HETATM   16  C5  UNL     1      25.686   5.600  49.425  1.00  0.00    -0.041 C 
BRANCH  16  17
HETATM   17  C3  UNL     1      26.892   5.982  48.644  1.00  0.00    -0.059 C 
HETATM   18  C2  UNL     1      27.074   7.129  48.027  1.00  0.00    -0.024 C 
HETATM   19  C1  UNL     1      28.359   7.280  47.301  1.00  0.00     0.036 C 
HETATM   20  C4  UNL     1      27.954   4.945  48.576  1.00  0.00     0.048 C 
ENDBRANCH  16  17
BRANCH  16  21
HETATM   21  C17 UNL     1      25.272   6.680  50.329  1.00  0.00     0.109 C 
BRANCH  21  22
HETATM   22  S1  UNL     1      23.915   7.698  49.634  1.00  0.00    -0.178 SA
HETATM   23  H19 UNL     1      23.329   8.390  50.712  1.00  0.00     0.101 HD
ENDBRANCH  21  22
ENDBRANCH  16  21
ENDBRANCH   1  15
TORSDOF 4
ENDMDL
MODEL 9
REMARK VINA RESULT:      -6.8      2.509      6.134
REMARK  4 active torsions:
REMARK  status: ('A' for Active; 'I' for Inactive)
REMARK    1  A    between atoms: C3_3  and  C5_5 
REMARK    2  A    between atoms: C5_5  and  C17_20 
REMARK    3  A    between atoms: C6_6  and  C7_7 
REMARK    4  A    between atoms: C17_20  and  S1_21 
ROOT
HETATM    1  C7  UNL     1      24.276   2.342  51.727  1.00  0.00     0.088 C 
HETATM    2  N1  UNL     1      25.411   2.537  51.174  1.00  0.00    -0.175 NA
HETATM    3  N2  UNL     1      26.636   1.880  51.207  1.00  0.00    -0.288 N 
HETATM    4  C8  UNL     1      27.077   1.342  52.471  1.00  0.00     0.116 C 
HETATM    5  C9  UNL     1      26.396   0.747  53.474  1.00  0.00    -0.034 C 
HETATM    6  C10 UNL     1      27.094   0.282  54.676  1.00  0.00     0.050 C 
HETATM    7  C11 UNL     1      24.932   0.519  53.403  1.00  0.00    -0.016 A 
HETATM    8  C12 UNL     1      24.581  -0.530  54.216  1.00  0.00     0.014 A 
HETATM    9  C13 UNL     1      23.241  -0.897  54.231  1.00  0.00     0.024 A 
HETATM   10  C14 UNL     1      22.291  -0.228  53.451  1.00  0.00     0.035 A 
HETATM   11 CL1  UNL     1      20.604  -0.713  53.486  1.00  0.00    -0.084 Cl
HETATM   12  C15 UNL     1      22.704   0.818  52.653  1.00  0.00     0.038 A 
HETATM   13  C16 UNL     1      24.015   1.220  52.606  1.00  0.00     0.007 A 
HETATM   14  H9  UNL     1      27.259   1.757  50.382  1.00  0.00     0.188 HD
ENDROOT
BRANCH   1  15
HETATM   15  C6  UNL     1      23.147   3.214  51.506  1.00  0.00     0.042 C 
HETATM   16  C5  UNL     1      22.424   3.350  50.379  1.00  0.00    -0.041 C 
BRANCH  16  17
HETATM   17  C3  UNL     1      21.282   4.299  50.308  1.00  0.00    -0.059 C 
HETATM   18  C2  UNL     1      21.126   5.244  49.406  1.00  0.00    -0.024 C 
HETATM   19  C1  UNL     1      19.907   6.078  49.542  1.00  0.00     0.036 C 
HETATM   20  C4  UNL     1      20.257   4.135  51.371  1.00  0.00     0.048 C 
ENDBRANCH  16  17
BRANCH  16  21
HETATM   21  C17 UNL     1      22.600   2.632  49.111  1.00  0.00     0.109 C 
BRANCH  21  22
HETATM   22  S1  UNL     1      21.429   1.235  48.924  1.00  0.00    -0.178 SA
HETATM   23  H19 UNL     1      20.242   1.605  49.585  1.00  0.00     0.101 HD
ENDBRANCH  21  22
ENDBRANCH  16  21
ENDBRANCH   1  15
TORSDOF 4
ENDMDL
