MODEL 1
REMARK VINA RESULT:      -7.6      0.000      0.000
REMARK  4 active torsions:
REMARK  status: ('A' for Active; 'I' for Inactive)
REMARK    1  A    between atoms: S1_2  and  O1_3 
REMARK    2  A    between atoms: O1_3  and  C2_4 
REMARK    3  A    between atoms: C7_11  and  N3_12 
REMARK    4  A    between atoms: N3_12  and  C9_14 
ROOT
HETATM    1  C2  UNL     1      22.606   0.960  51.597  1.00  0.00     0.085 A 
HETATM    2  C3  UNL     1      21.426   0.328  51.981  1.00  0.00     0.040 A 
HETATM    3  C4  UNL     1      21.390  -0.472  53.115  1.00  0.00     0.035 A 
HETATM    4  C5  UNL     1      22.511  -0.667  53.894  1.00  0.00     0.072 A 
HETATM    5  N1  UNL     1      22.561  -1.423  55.002  1.00  0.00    -0.241 NA
HETATM    6  C6  UNL     1      23.680  -1.582  55.729  1.00  0.00     0.236 A 
HETATM    7  N2  UNL     1      24.791  -0.949  55.313  1.00  0.00    -0.223 NA
HETATM    8  C7  UNL     1      24.841  -0.171  54.214  1.00  0.00     0.144 A 
HETATM    9  C15 UNL     1      23.671  -0.033  53.497  1.00  0.00     0.042 A 
HETATM   10  C16 UNL     1      23.736   0.765  52.379  1.00  0.00     0.055 A 
ENDROOT
BRANCH   8  11
HETATM   11  N3  UNL     1      26.100   0.423  53.919  1.00  0.00    -0.335 N 
HETATM   12  C8  UNL     1      26.328   1.867  53.860  1.00  0.00     0.158 C 
BRANCH  11  13
HETATM   13  C9  UNL     1      27.210  -0.430  53.666  1.00  0.00     0.035 A 
HETATM   14  C10 UNL     1      27.107  -1.627  52.989  1.00  0.00     0.029 A 
HETATM   15  C11 UNL     1      28.165  -2.471  52.731  1.00  0.00     0.002 A 
HETATM   16  C12 UNL     1      29.412  -2.130  53.161  1.00  0.00     0.000 A 
HETATM   17  C13 UNL     1      29.571  -0.947  53.840  1.00  0.00     0.002 A 
HETATM   18  C14 UNL     1      28.484  -0.118  54.084  1.00  0.00     0.029 A 
ENDBRANCH  11  13
ENDBRANCH   8  11
BRANCH   1  19
HETATM   19  O1  UNL     1      22.692   1.767  50.473  1.00  0.00    -0.280 OA
BRANCH  19  20
HETATM   20  S1  UNL     1      23.413   3.323  50.409  1.00  0.00    -0.009 SA
HETATM   21  C1  UNL     1      25.192   3.207  50.043  1.00  0.00     0.123 C 
ENDBRANCH  19  20
ENDBRANCH   1  19
TORSDOF 4
ENDMDL
MODEL 2
REMARK VINA RESULT:      -7.2      1.074      2.036
REMARK  4 active torsions:
REMARK  status: ('A' for Active; 'I' for Inactive)
REMARK    1  A    between atoms: S1_2  and  O1_3 
REMARK    2  A    between atoms: O1_3  and  C2_4 
REMARK    3  A    between atoms: C7_11  and  N3_12 
REMARK    4  A    between atoms: N3_12  and  C9_14 
ROOT
HETATM    1  C2  UNL     1      22.750   1.025  51.728  1.00  0.00     0.085 A 
HETATM    2  C3  UNL     1      21.571   0.994  52.468  1.00  0.00     0.040 A 
HETATM    3  C4  UNL     1      21.526   0.353  53.698  1.00  0.00     0.035 A 
HETATM    4  C5  UNL     1      22.638  -0.268  54.227  1.00  0.00     0.072 A 
HETATM    5  N1  UNL     1      22.679  -0.908  55.406  1.00  0.00    -0.241 NA
HETATM    6  C6  UNL     1      23.789  -1.499  55.879  1.00  0.00     0.236 A 
HETATM    7  N2  UNL     1      24.900  -1.438  55.124  1.00  0.00    -0.223 NA
HETATM    8  C7  UNL     1      24.958  -0.820  53.927  1.00  0.00     0.144 A 
HETATM    9  C15 UNL     1      23.797  -0.226  53.479  1.00  0.00     0.042 A 
HETATM   10  C16 UNL     1      23.871   0.401  52.257  1.00  0.00     0.055 A 
ENDROOT
BRANCH   8  11
HETATM   11  N3  UNL     1      26.215  -0.852  53.262  1.00  0.00    -0.335 N 
HETATM   12  C8  UNL     1      26.616  -1.899  52.322  1.00  0.00     0.158 C 
BRANCH  11  13
HETATM   13  C9  UNL     1      27.146   0.193  53.521  1.00  0.00     0.035 A 
HETATM   14  C10 UNL     1      28.139   0.105  54.474  1.00  0.00     0.029 A 
HETATM   15  C11 UNL     1      29.051   1.101  54.744  1.00  0.00     0.002 A 
HETATM   16  C12 UNL     1      28.998   2.266  54.039  1.00  0.00     0.000 A 
HETATM   17  C13 UNL     1      28.029   2.405  53.077  1.00  0.00     0.002 A 
HETATM   18  C14 UNL     1      27.123   1.382  52.828  1.00  0.00     0.029 A 
ENDBRANCH  11  13
ENDBRANCH   8  11
BRANCH   1  19
HETATM   19  O1  UNL     1      22.844   1.651  50.495  1.00  0.00    -0.280 OA
BRANCH  19  20
HETATM   20  S1  UNL     1      23.268   3.293  50.233  1.00  0.00    -0.009 SA
HETATM   21  C1  UNL     1      24.974   3.441  49.617  1.00  0.00     0.123 C 
ENDBRANCH  19  20
ENDBRANCH   1  19
TORSDOF 4
ENDMDL
MODEL 3
REMARK VINA RESULT:      -7.1      2.767      5.587
REMARK  4 active torsions:
REMARK  status: ('A' for Active; 'I' for Inactive)
REMARK    1  A    between atoms: S1_2  and  O1_3 
REMARK    2  A    between atoms: O1_3  and  C2_4 
REMARK    3  A    between atoms: C7_11  and  N3_12 
REMARK    4  A    between atoms: N3_12  and  C9_14 
ROOT
HETATM    1  C2  UNL     1      25.611   0.603  52.963  1.00  0.00     0.085 A 
HETATM    2  C3  UNL     1      25.531  -0.486  53.826  1.00  0.00     0.040 A 
HETATM    3  C4  UNL     1      24.305  -0.896  54.333  1.00  0.00     0.035 A 
HETATM    4  C5  UNL     1      23.135  -0.245  54.001  1.00  0.00     0.072 A 
HETATM    5  N1  UNL     1      21.913  -0.577  54.446  1.00  0.00    -0.241 NA
HETATM    6  C6  UNL     1      20.801   0.089  54.092  1.00  0.00     0.236 A 
HETATM    7  N2  UNL     1      20.936   1.133  53.255  1.00  0.00    -0.223 NA
HETATM    8  C7  UNL     1      22.120   1.542  52.757  1.00  0.00     0.144 A 
HETATM    9  C15 UNL     1      23.236   0.831  53.144  1.00  0.00     0.042 A 
HETATM   10  C16 UNL     1      24.436   1.260  52.627  1.00  0.00     0.055 A 
ENDROOT
BRANCH   8  11
HETATM   11  N3  UNL     1      22.080   2.665  51.884  1.00  0.00    -0.335 N 
HETATM   12  C8  UNL     1      21.953   4.050  52.339  1.00  0.00     0.158 C 
BRANCH  11  13
HETATM   13  C9  UNL     1      22.169   2.438  50.481  1.00  0.00     0.035 A 
HETATM   14  C10 UNL     1      21.569   1.371  49.847  1.00  0.00     0.029 A 
HETATM   15  C11 UNL     1      21.639   1.129  48.492  1.00  0.00     0.002 A 
HETATM   16  C12 UNL     1      22.343   1.982  47.697  1.00  0.00     0.000 A 
HETATM   17  C13 UNL     1      22.960   3.062  48.278  1.00  0.00     0.002 A 
HETATM   18  C14 UNL     1      22.870   3.279  49.646  1.00  0.00     0.029 A 
ENDBRANCH  11  13
ENDBRANCH   8  11
BRANCH   1  19
HETATM   19  O1  UNL     1      26.812   1.050  52.431  1.00  0.00    -0.280 OA
BRANCH  19  20
HETATM   20  S1  UNL     1      28.015   1.934  53.277  1.00  0.00    -0.009 SA
HETATM   21  C1  UNL     1      28.965   0.852  54.389  1.00  0.00     0.123 C 
ENDBRANCH  19  20
ENDBRANCH   1  19
TORSDOF 4
ENDMDL
MODEL 4
REMARK VINA RESULT:      -7.0      2.787      5.734
REMARK  4 active torsions:
REMARK  status: ('A' for Active; 'I' for Inactive)
REMARK    1  A    between atoms: S1_2  and  O1_3 
REMARK    2  A    between atoms: O1_3  and  C2_4 
REMARK    3  A    between atoms: C7_11  and  N3_12 
REMARK    4  A    between atoms: N3_12  and  C9_14 
ROOT
HETATM    1  C2  UNL     1      26.345   2.086  51.495  1.00  0.00     0.085 A 
HETATM    2  C3  UNL     1      26.958   1.043  52.184  1.00  0.00     0.040 A 
HETATM    3  C4  UNL     1      26.200   0.141  52.919  1.00  0.00     0.035 A 
HETATM    4  C5  UNL     1      24.827   0.246  52.992  1.00  0.00     0.072 A 
HETATM    5  N1  UNL     1      24.024  -0.581  53.678  1.00  0.00    -0.241 NA
HETATM    6  C6  UNL     1      22.688  -0.436  53.718  1.00  0.00     0.236 A 
HETATM    7  N2  UNL     1      22.149   0.589  53.035  1.00  0.00    -0.223 NA
HETATM    8  C7  UNL     1      22.872   1.471  52.318  1.00  0.00     0.144 A 
HETATM    9  C15 UNL     1      24.239   1.287  52.303  1.00  0.00     0.042 A 
HETATM   10  C16 UNL     1      24.963   2.195  51.567  1.00  0.00     0.055 A 
ENDROOT
BRANCH   8  11
HETATM   11  N3  UNL     1      22.139   2.495  51.656  1.00  0.00    -0.335 N 
HETATM   12  C8  UNL     1      21.365   3.525  52.349  1.00  0.00     0.158 C 
BRANCH  11  13
HETATM   13  C9  UNL     1      22.154   2.529  50.233  1.00  0.00     0.035 A 
HETATM   14  C10 UNL     1      22.469   3.657  49.504  1.00  0.00     0.029 A 
HETATM   15  C11 UNL     1      22.490   3.715  48.128  1.00  0.00     0.002 A 
HETATM   16  C12 UNL     1      22.184   2.601  47.407  1.00  0.00     0.000 A 
HETATM   17  C13 UNL     1      21.863   1.450  48.083  1.00  0.00     0.002 A 
HETATM   18  C14 UNL     1      21.851   1.423  49.471  1.00  0.00     0.029 A 
ENDBRANCH  11  13
ENDBRANCH   8  11
BRANCH   1  19
HETATM   19  O1  UNL     1      27.059   3.011  50.748  1.00  0.00    -0.280 OA
BRANCH  19  20
HETATM   20  S1  UNL     1      26.411   4.029  49.528  1.00  0.00    -0.009 SA
HETATM   21  C1  UNL     1      27.732   4.909  48.638  1.00  0.00     0.123 C 
ENDBRANCH  19  20
ENDBRANCH   1  19
TORSDOF 4
ENDMDL
MODEL 5
REMARK VINA RESULT:      -7.0      3.027      5.850
REMARK  4 active torsions:
REMARK  status: ('A' for Active; 'I' for Inactive)
REMARK    1  A    between atoms: S1_2  and  O1_3 
REMARK    2  A    between atoms: O1_3  and  C2_4 
REMARK    3  A    between atoms: C7_11  and  N3_12 
REMARK    4  A    between atoms: N3_12  and  C9_14 
ROOT
HETATM    1  C2  UNL     1      20.643  -0.265  53.839  1.00  0.00     0.085 A 
HETATM    2  C3  UNL     1      21.306  -1.296  54.499  1.00  0.00     0.040 A 
HETATM    3  C4  UNL     1      22.692  -1.378  54.469  1.00  0.00     0.035 A 
HETATM    4  C5  UNL     1      23.453  -0.449  53.790  1.00  0.00     0.072 A 
HETATM    5  N1  UNL     1      24.793  -0.456  53.712  1.00  0.00    -0.241 NA
HETATM    6  C6  UNL     1      25.490   0.473  53.037  1.00  0.00     0.236 A 
HETATM    7  N2  UNL     1      24.800   1.447  52.418  1.00  0.00    -0.223 NA
HETATM    8  C7  UNL     1      23.455   1.538  52.439  1.00  0.00     0.144 A 
HETATM    9  C15 UNL     1      22.777   0.565  53.142  1.00  0.00     0.042 A 
HETATM   10  C16 UNL     1      21.407   0.672  53.155  1.00  0.00     0.055 A 
ENDROOT
BRANCH   8  11
HETATM   11  N3  UNL     1      22.888   2.634  51.730  1.00  0.00    -0.335 N 
HETATM   12  C8  UNL     1      22.501   3.899  52.354  1.00  0.00     0.158 C 
BRANCH  11  13
HETATM   13  C9  UNL     1      22.680   2.500  50.328  1.00  0.00     0.035 A 
HETATM   14  C10 UNL     1      21.996   1.446  49.760  1.00  0.00     0.029 A 
HETATM   15  C11 UNL     1      21.781   1.293  48.408  1.00  0.00     0.002 A 
HETATM   16  C12 UNL     1      22.264   2.230  47.545  1.00  0.00     0.000 A 
HETATM   17  C13 UNL     1      22.952   3.301  48.058  1.00  0.00     0.002 A 
HETATM   18  C14 UNL     1      23.152   3.427  49.426  1.00  0.00     0.029 A 
ENDBRANCH  11  13
ENDBRANCH   8  11
BRANCH   1  19
HETATM   19  O1  UNL     1      19.262  -0.141  53.840  1.00  0.00    -0.280 OA
BRANCH  19  20
HETATM   20  S1  UNL     1      18.172  -1.059  52.884  1.00  0.00    -0.009 SA
HETATM   21  C1  UNL     1      17.805  -2.661  53.663  1.00  0.00     0.123 C 
ENDBRANCH  19  20
ENDBRANCH   1  19
TORSDOF 4
ENDMDL
MODEL 6
REMARK VINA RESULT:      -6.9      3.223      6.505
REMARK  4 active torsions:
REMARK  status: ('A' for Active; 'I' for Inactive)
REMARK    1  A    between atoms: S1_2  and  O1_3 
REMARK    2  A    between atoms: O1_3  and  C2_4 
REMARK    3  A    between atoms: C7_11  and  N3_12 
REMARK    4  A    between atoms: N3_12  and  C9_14 
ROOT
HETATM    1  C2  UNL     1      24.647  -0.045  53.353  1.00  0.00     0.085 A 
HETATM    2  C3  UNL     1      25.986  -0.348  53.119  1.00  0.00     0.040 A 
HETATM    3  C4  UNL     1      26.760   0.462  52.300  1.00  0.00     0.035 A 
HETATM    4  C5  UNL     1      26.234   1.585  51.695  1.00  0.00     0.072 A 
HETATM    5  N1  UNL     1      26.912   2.418  50.890  1.00  0.00    -0.241 NA
HETATM    6  C6  UNL     1      26.355   3.502  50.323  1.00  0.00     0.236 A 
HETATM    7  N2  UNL     1      25.059   3.747  50.583  1.00  0.00    -0.223 NA
HETATM    8  C7  UNL     1      24.296   2.969  51.376  1.00  0.00     0.144 A 
HETATM    9  C15 UNL     1      24.906   1.867  51.939  1.00  0.00     0.042 A 
HETATM   10  C16 UNL     1      24.116   1.084  52.746  1.00  0.00     0.055 A 
ENDROOT
BRANCH   8  11
HETATM   11  N3  UNL     1      22.942   3.375  51.544  1.00  0.00    -0.335 N 
HETATM   12  C8  UNL     1      22.534   4.580  52.267  1.00  0.00     0.158 C 
BRANCH  11  13
HETATM   13  C9  UNL     1      21.916   2.568  50.976  1.00  0.00     0.035 A 
HETATM   14  C10 UNL     1      20.739   2.270  51.630  1.00  0.00     0.029 A 
HETATM   15  C11 UNL     1      19.730   1.492  51.104  1.00  0.00     0.002 A 
HETATM   16  C12 UNL     1      19.874   0.966  49.855  1.00  0.00     0.000 A 
HETATM   17  C13 UNL     1      21.028   1.233  49.161  1.00  0.00     0.002 A 
HETATM   18  C14 UNL     1      22.026   2.021  49.718  1.00  0.00     0.029 A 
ENDBRANCH  11  13
ENDBRANCH   8  11
BRANCH   1  19
HETATM   19  O1  UNL     1      23.834  -0.824  54.163  1.00  0.00    -0.280 OA
BRANCH  19  20
HETATM   20  S1  UNL     1      22.181  -1.183  53.876  1.00  0.00    -0.009 SA
HETATM   21  C1  UNL     1      21.095   0.043  54.668  1.00  0.00     0.123 C 
ENDBRANCH  19  20
ENDBRANCH   1  19
TORSDOF 4
ENDMDL
MODEL 7
REMARK VINA RESULT:      -6.8      3.381      5.684
REMARK  4 active torsions:
REMARK  status: ('A' for Active; 'I' for Inactive)
REMARK    1  A    between atoms: S1_2  and  O1_3 
REMARK    2  A    between atoms: O1_3  and  C2_4 
REMARK    3  A    between atoms: C7_11  and  N3_12 
REMARK    4  A    between atoms: N3_12  and  C9_14 
ROOT
HETATM    1  C2  UNL     1      23.378  -0.521  53.868  1.00  0.00     0.085 A 
HETATM    2  C3  UNL     1      22.614  -1.244  54.780  1.00  0.00     0.040 A 
HETATM    3  C4  UNL     1      21.238  -1.345  54.625  1.00  0.00     0.035 A 
HETATM    4  C5  UNL     1      20.586  -0.739  53.571  1.00  0.00     0.072 A 
HETATM    5  N1  UNL     1      19.263  -0.788  53.350  1.00  0.00    -0.241 NA
HETATM    6  C6  UNL     1      18.674  -0.179  52.307  1.00  0.00     0.236 A 
HETATM    7  N2  UNL     1      19.459   0.506  51.457  1.00  0.00    -0.223 NA
HETATM    8  C7  UNL     1      20.796   0.613  51.596  1.00  0.00     0.144 A 
HETATM    9  C15 UNL     1      21.361  -0.027  52.679  1.00  0.00     0.042 A 
HETATM   10  C16 UNL     1      22.725   0.090  52.807  1.00  0.00     0.055 A 
ENDROOT
BRANCH   8  11
HETATM   11  N3  UNL     1      21.473   1.376  50.604  1.00  0.00    -0.335 N 
HETATM   12  C8  UNL     1      21.533   1.007  49.189  1.00  0.00     0.158 C 
BRANCH  11  13
HETATM   13  C9  UNL     1      22.134   2.572  51.001  1.00  0.00     0.035 A 
HETATM   14  C10 UNL     1      23.434   2.871  50.653  1.00  0.00     0.029 A 
HETATM   15  C11 UNL     1      24.096   4.021  51.025  1.00  0.00     0.002 A 
HETATM   16  C12 UNL     1      23.451   4.946  51.789  1.00  0.00     0.000 A 
HETATM   17  C13 UNL     1      22.154   4.698  52.163  1.00  0.00     0.002 A 
HETATM   18  C14 UNL     1      21.514   3.530  51.772  1.00  0.00     0.029 A 
ENDBRANCH  11  13
ENDBRANCH   8  11
BRANCH   1  19
HETATM   19  O1  UNL     1      24.754  -0.391  53.981  1.00  0.00    -0.280 OA
BRANCH  19  20
HETATM   20  S1  UNL     1      25.773   0.464  52.897  1.00  0.00    -0.009 SA
HETATM   21  C1  UNL     1      26.291   2.059  53.603  1.00  0.00     0.123 C 
ENDBRANCH  19  20
ENDBRANCH   1  19
TORSDOF 4
ENDMDL
MODEL 8
REMARK VINA RESULT:      -6.7      3.131      6.187
REMARK  4 active torsions:
REMARK  status: ('A' for Active; 'I' for Inactive)
REMARK    1  A    between atoms: S1_2  and  O1_3 
REMARK    2  A    between atoms: O1_3  and  C2_4 
REMARK    3  A    between atoms: C7_11  and  N3_12 
REMARK    4  A    between atoms: N3_12  and  C9_14 
ROOT
HETATM    1  C2  UNL     1      22.274   0.575  53.458  1.00  0.00     0.085 A 
HETATM    2  C3  UNL     1      23.106  -0.473  53.842  1.00  0.00     0.040 A 
HETATM    3  C4  UNL     1      24.444  -0.485  53.472  1.00  0.00     0.035 A 
HETATM    4  C5  UNL     1      24.991   0.532  52.717  1.00  0.00     0.072 A 
HETATM    5  N1  UNL     1      26.271   0.595  52.318  1.00  0.00    -0.241 NA
HETATM    6  C6  UNL     1      26.757   1.610  51.583  1.00  0.00     0.236 A 
HETATM    7  N2  UNL     1      25.910   2.596  51.239  1.00  0.00    -0.223 NA
HETATM    8  C7  UNL     1      24.609   2.620  51.592  1.00  0.00     0.144 A 
HETATM    9  C15 UNL     1      24.150   1.561  52.346  1.00  0.00     0.042 A 
HETATM   10  C16 UNL     1      22.822   1.600  52.699  1.00  0.00     0.055 A 
ENDROOT
BRANCH   8  11
HETATM   11  N3  UNL     1      23.856   3.741  51.143  1.00  0.00    -0.335 N 
HETATM   12  C8  UNL     1      23.586   4.924  51.960  1.00  0.00     0.158 C 
BRANCH  11  13
HETATM   13  C9  UNL     1      23.330   3.719  49.820  1.00  0.00     0.035 A 
HETATM   14  C10 UNL     1      23.174   4.852  49.048  1.00  0.00     0.029 A 
HETATM   15  C11 UNL     1      22.668   4.858  47.767  1.00  0.00     0.002 A 
HETATM   16  C12 UNL     1      22.284   3.683  47.194  1.00  0.00     0.000 A 
HETATM   17  C13 UNL     1      22.419   2.525  47.920  1.00  0.00     0.002 A 
HETATM   18  C14 UNL     1      22.933   2.552  49.209  1.00  0.00     0.029 A 
ENDBRANCH  11  13
ENDBRANCH   8  11
BRANCH   1  19
HETATM   19  O1  UNL     1      20.933   0.631  53.803  1.00  0.00    -0.280 OA
BRANCH  19  20
HETATM   20  S1  UNL     1      19.757  -0.569  53.457  1.00  0.00    -0.009 SA
HETATM   21  C1  UNL     1      18.799  -0.142  51.971  1.00  0.00     0.123 C 
ENDBRANCH  19  20
ENDBRANCH   1  19
TORSDOF 4
ENDMDL
MODEL 9
REMARK VINA RESULT:      -6.7      3.395      6.895
REMARK  4 active torsions:
REMARK  status: ('A' for Active; 'I' for Inactive)
REMARK    1  A    between atoms: S1_2  and  O1_3 
REMARK    2  A    between atoms: O1_3  and  C2_4 
REMARK    3  A    between atoms: C7_11  and  N3_12 
REMARK    4  A    between atoms: N3_12  and  C9_14 
ROOT
HETATM    1  C2  UNL     1      24.719   1.075  52.694  1.00  0.00     0.085 A 
HETATM    2  C3  UNL     1      25.222   2.217  53.312  1.00  0.00     0.040 A 
HETATM    3  C4  UNL     1      24.535   3.421  53.239  1.00  0.00     0.035 A 
HETATM    4  C5  UNL     1      23.339   3.526  52.559  1.00  0.00     0.072 A 
HETATM    5  N1  UNL     1      22.614   4.649  52.441  1.00  0.00    -0.241 NA
HETATM    6  C6  UNL     1      21.453   4.702  51.767  1.00  0.00     0.236 A 
HETATM    7  N2  UNL     1      21.013   3.570  51.189  1.00  0.00    -0.223 NA
HETATM    8  C7  UNL     1      21.671   2.395  51.251  1.00  0.00     0.144 A 
HETATM    9  C15 UNL     1      22.858   2.384  51.953  1.00  0.00     0.042 A 
HETATM   10  C16 UNL     1      23.516   1.179  52.009  1.00  0.00     0.055 A 
ENDROOT
BRANCH   8  11
HETATM   11  N3  UNL     1      21.061   1.296  50.583  1.00  0.00    -0.335 N 
HETATM   12  C8  UNL     1      21.452   0.830  49.253  1.00  0.00     0.158 C 
BRANCH  11  13
HETATM   13  C9  UNL     1      20.006   0.603  51.241  1.00  0.00     0.035 A 
HETATM   14  C10 UNL     1      18.749   0.443  50.696  1.00  0.00     0.029 A 
HETATM   15  C11 UNL     1      17.712  -0.223  51.311  1.00  0.00     0.002 A 
HETATM   16  C12 UNL     1      17.907  -0.774  52.542  1.00  0.00     0.000 A 
HETATM   17  C13 UNL     1      19.141  -0.644  53.129  1.00  0.00     0.002 A 
HETATM   18  C14 UNL     1      20.167   0.033  52.483  1.00  0.00     0.029 A 
ENDBRANCH  11  13
ENDBRANCH   8  11
BRANCH   1  19
HETATM   19  O1  UNL     1      25.369  -0.149  52.738  1.00  0.00    -0.280 OA
BRANCH  19  20
HETATM   20  S1  UNL     1      27.069  -0.384  52.697  1.00  0.00    -0.009 SA
HETATM   21  C1  UNL     1      27.816  -0.060  54.324  1.00  0.00     0.123 C 
ENDBRANCH  19  20
ENDBRANCH   1  19
TORSDOF 4
ENDMDL
