MODEL 1
REMARK VINA RESULT:      -9.3      0.000      0.000
REMARK  4 active torsions:
REMARK  status: ('A' for Active; 'I' for Inactive)
REMARK    1  A    between atoms: O1_2  and  C2_3 
REMARK    2  A    between atoms: C5_6  and  C6_7 
REMARK    3  A    between atoms: C8_9  and  C9_10 
REMARK    4  A    between atoms: N2_19  and  C17_20 
ROOT
HETATM    1  C6  UNL     1      23.683   0.675  53.730  1.00  0.00     0.145 C 
HETATM    2  C7  UNL     1      22.689  -0.370  53.279  1.00  0.00     0.093 C 
HETATM    3  C8  UNL     1      21.553   0.470  52.830  1.00  0.00     0.067 C 
HETATM    4  N1  UNL     1      21.926   1.676  52.641  1.00  0.00    -0.178 NA
HETATM    5  N2  UNL     1      23.309   1.801  52.928  1.00  0.00    -0.268 N 
ENDROOT
BRANCH   1   6
HETATM    6  C5  UNL     1      25.081   0.218  53.543  1.00  0.00    -0.033 A 
HETATM    7  C4  UNL     1      26.036   0.547  54.481  1.00  0.00     0.012 A 
HETATM    8  C3  UNL     1      27.346   0.144  54.357  1.00  0.00     0.037 A 
HETATM    9  C2  UNL     1      27.663  -0.607  53.246  1.00  0.00     0.068 A 
HETATM   10  C25 UNL     1      26.708  -0.939  52.302  1.00  0.00     0.037 A 
HETATM   11  C24 UNL     1      25.383  -0.531  52.428  1.00  0.00     0.012 A 
BRANCH   9  12
HETATM   12  O1  UNL     1      28.986  -1.029  53.098  1.00  0.00    -0.356 OA
HETATM   13  C1  UNL     1      30.000  -0.285  53.741  1.00  0.00     0.210 C 
ENDBRANCH   9  12
ENDBRANCH   1   6
BRANCH   5  14
HETATM   14  C17 UNL     1      24.193   2.843  52.517  1.00  0.00     0.233 A 
HETATM   15  C18 UNL     1      23.894   4.138  53.181  1.00  0.00     0.024 A 
HETATM   16  C19 UNL     1      23.485   5.051  52.310  1.00  0.00     0.029 A 
HETATM   17  C20 UNL     1      23.482   4.421  50.990  1.00  0.00     0.036 A 
HETATM   18  C21 UNL     1      23.202   4.697  49.676  1.00  0.00     0.031 A 
HETATM   19  N3  UNL     1      23.891   3.148  51.113  1.00  0.00    -0.330 N 
HETATM   20  C22 UNL     1      23.456   3.528  48.964  1.00  0.00     0.020 A 
HETATM   21  C23 UNL     1      23.877   2.599  49.876  1.00  0.00     0.094 A 
ENDBRANCH   5  14
BRANCH   3  22
HETATM   22  C9  UNL     1      20.189  -0.016  52.630  1.00  0.00    -0.009 A 
HETATM   23  C10 UNL     1      19.545  -0.819  53.551  1.00  0.00     0.014 A 
HETATM   24  C11 UNL     1      18.245  -1.284  53.365  1.00  0.00     0.008 A 
HETATM   25  C12 UNL     1      17.554  -0.935  52.208  1.00  0.00    -0.056 A 
HETATM   26  C13 UNL     1      16.165  -1.385  51.927  1.00  0.00     0.049 C 
HETATM   27  C14 UNL     1      18.183  -0.140  51.290  1.00  0.00    -0.055 A 
HETATM   28  C15 UNL     1      17.471   0.245  50.055  1.00  0.00     0.049 C 
HETATM   29  C16 UNL     1      19.462   0.294  51.515  1.00  0.00     0.020 A 
ENDBRANCH   3  22
TORSDOF 4
ENDMDL
MODEL 2
REMARK VINA RESULT:      -9.1      1.141      1.610
REMARK  4 active torsions:
REMARK  status: ('A' for Active; 'I' for Inactive)
REMARK    1  A    between atoms: O1_2  and  C2_3 
REMARK    2  A    between atoms: C5_6  and  C6_7 
REMARK    3  A    between atoms: C8_9  and  C9_10 
REMARK    4  A    between atoms: N2_19  and  C17_20 
ROOT
HETATM    1  C6  UNL     1      23.547   1.691  52.819  1.00  0.00     0.145 C 
HETATM    2  C7  UNL     1      22.638   0.501  53.025  1.00  0.00     0.093 C 
HETATM    3  C8  UNL     1      21.498   0.837  52.139  1.00  0.00     0.067 C 
HETATM    4  N1  UNL     1      21.826   1.741  51.299  1.00  0.00    -0.178 NA
HETATM    5  N2  UNL     1      23.177   2.118  51.503  1.00  0.00    -0.268 N 
ENDROOT
BRANCH   1   6
HETATM    6  C5  UNL     1      24.974   1.322  52.973  1.00  0.00    -0.033 A 
HETATM    7  C4  UNL     1      25.418   0.107  52.497  1.00  0.00     0.012 A 
HETATM    8  C3  UNL     1      26.733  -0.282  52.611  1.00  0.00     0.037 A 
HETATM    9  C2  UNL     1      27.593   0.604  53.226  1.00  0.00     0.068 A 
HETATM   10  C25 UNL     1      27.152   1.824  53.705  1.00  0.00     0.037 A 
HETATM   11  C24 UNL     1      25.821   2.216  53.589  1.00  0.00     0.012 A 
BRANCH   9  12
HETATM   12  O1  UNL     1      28.933   0.232  53.352  1.00  0.00    -0.356 OA
HETATM   13  C1  UNL     1      29.246  -1.146  53.365  1.00  0.00     0.210 C 
ENDBRANCH   9  12
ENDBRANCH   1   6
BRANCH   5  14
HETATM   14  C17 UNL     1      24.037   2.801  50.593  1.00  0.00     0.233 A 
HETATM   15  C18 UNL     1      24.253   4.221  50.970  1.00  0.00     0.024 A 
HETATM   16  C19 UNL     1      23.743   5.050  50.069  1.00  0.00     0.029 A 
HETATM   17  C20 UNL     1      23.144   4.231  49.016  1.00  0.00     0.036 A 
HETATM   18  C21 UNL     1      22.470   4.345  47.827  1.00  0.00     0.031 A 
HETATM   19  N3  UNL     1      23.316   2.935  49.320  1.00  0.00    -0.330 N 
HETATM   20  C22 UNL     1      22.220   3.049  47.388  1.00  0.00     0.020 A 
HETATM   21  C23 UNL     1      22.753   2.209  48.327  1.00  0.00     0.094 A 
ENDBRANCH   5  14
BRANCH   3  22
HETATM   22  C9  UNL     1      20.176   0.218  52.215  1.00  0.00    -0.009 A 
HETATM   23  C10 UNL     1      19.760  -0.510  53.312  1.00  0.00     0.014 A 
HETATM   24  C11 UNL     1      18.501  -1.103  53.390  1.00  0.00     0.008 A 
HETATM   25  C12 UNL     1      17.616  -0.964  52.325  1.00  0.00    -0.056 A 
HETATM   26  C13 UNL     1      16.253  -1.561  52.321  1.00  0.00     0.049 C 
HETATM   27  C14 UNL     1      18.018  -0.245  51.233  1.00  0.00    -0.055 A 
HETATM   28  C15 UNL     1      17.096  -0.083  50.090  1.00  0.00     0.049 C 
HETATM   29  C16 UNL     1      19.265   0.320  51.201  1.00  0.00     0.020 A 
ENDBRANCH   3  22
TORSDOF 4
ENDMDL
MODEL 3
REMARK VINA RESULT:      -8.7      2.898      6.987
REMARK  4 active torsions:
REMARK  status: ('A' for Active; 'I' for Inactive)
REMARK    1  A    between atoms: O1_2  and  C2_3 
REMARK    2  A    between atoms: C5_6  and  C6_7 
REMARK    3  A    between atoms: C8_9  and  C9_10 
REMARK    4  A    between atoms: N2_19  and  C17_20 
ROOT
HETATM    1  C6  UNL     1      25.867   2.287  50.785  1.00  0.00     0.145 C 
HETATM    2  C7  UNL     1      26.658   3.439  50.210  1.00  0.00     0.093 C 
HETATM    3  C8  UNL     1      25.588   4.424  49.922  1.00  0.00     0.067 C 
HETATM    4  N1  UNL     1      24.519   4.133  50.557  1.00  0.00    -0.178 NA
HETATM    5  N2  UNL     1      24.722   2.958  51.324  1.00  0.00    -0.268 N 
ENDROOT
BRANCH   1   6
HETATM    6  C5  UNL     1      26.659   1.520  51.776  1.00  0.00    -0.033 A 
HETATM    7  C4  UNL     1      26.593   0.143  51.781  1.00  0.00     0.012 A 
HETATM    8  C3  UNL     1      27.311  -0.615  52.677  1.00  0.00     0.037 A 
HETATM    9  C2  UNL     1      28.104   0.067  53.575  1.00  0.00     0.068 A 
HETATM   10  C25 UNL     1      28.173   1.448  53.574  1.00  0.00     0.037 A 
HETATM   11  C24 UNL     1      27.446   2.215  52.667  1.00  0.00     0.012 A 
BRANCH   9  12
HETATM   12  O1  UNL     1      28.844  -0.681  54.494  1.00  0.00    -0.356 OA
HETATM   13  C1  UNL     1      29.990  -1.365  54.029  1.00  0.00     0.210 C 
ENDBRANCH   9  12
ENDBRANCH   1   6
BRANCH   5  14
HETATM   14  C17 UNL     1      23.947   2.495  52.429  1.00  0.00     0.233 A 
HETATM   15  C18 UNL     1      23.672   1.037  52.361  1.00  0.00     0.024 A 
HETATM   16  C19 UNL     1      22.378   0.790  52.207  1.00  0.00     0.029 A 
HETATM   17  C20 UNL     1      21.692   2.081  52.162  1.00  0.00     0.036 A 
HETATM   18  C21 UNL     1      20.437   2.619  52.032  1.00  0.00     0.031 A 
HETATM   19  N3  UNL     1      22.599   3.062  52.290  1.00  0.00    -0.330 N 
HETATM   20  C22 UNL     1      20.592   4.000  52.085  1.00  0.00     0.020 A 
HETATM   21  C23 UNL     1      21.930   4.237  52.244  1.00  0.00     0.094 A 
ENDBRANCH   5  14
BRANCH   3  22
HETATM   22  C9  UNL     1      25.735   5.575  49.032  1.00  0.00    -0.009 A 
HETATM   23  C10 UNL     1      24.654   6.303  48.576  1.00  0.00     0.014 A 
HETATM   24  C11 UNL     1      24.789   7.400  47.729  1.00  0.00     0.008 A 
HETATM   25  C12 UNL     1      26.059   7.790  47.315  1.00  0.00    -0.056 A 
HETATM   26  C13 UNL     1      26.298   8.949  46.412  1.00  0.00     0.049 C 
HETATM   27  C14 UNL     1      27.137   7.076  47.761  1.00  0.00    -0.055 A 
HETATM   28  C15 UNL     1      28.496   7.471  47.338  1.00  0.00     0.049 C 
HETATM   29  C16 UNL     1      26.956   6.004  48.594  1.00  0.00     0.020 A 
ENDBRANCH   3  22
TORSDOF 4
ENDMDL
MODEL 4
REMARK VINA RESULT:      -8.7      3.413      7.514
REMARK  4 active torsions:
REMARK  status: ('A' for Active; 'I' for Inactive)
REMARK    1  A    between atoms: O1_2  and  C2_3 
REMARK    2  A    between atoms: C5_6  and  C6_7 
REMARK    3  A    between atoms: C8_9  and  C9_10 
REMARK    4  A    between atoms: N2_19  and  C17_20 
ROOT
HETATM    1  C6  UNL     1      25.955   2.055  50.583  1.00  0.00     0.145 C 
HETATM    2  C7  UNL     1      26.879   3.249  50.516  1.00  0.00     0.093 C 
HETATM    3  C8  UNL     1      26.160   4.132  49.565  1.00  0.00     0.067 C 
HETATM    4  N1  UNL     1      24.941   3.774  49.446  1.00  0.00    -0.178 NA
HETATM    5  N2  UNL     1      24.689   2.646  50.267  1.00  0.00    -0.268 N 
ENDROOT
BRANCH   1   6
HETATM    6  C5  UNL     1      26.016   1.391  51.907  1.00  0.00    -0.033 A 
HETATM    7  C4  UNL     1      26.179   0.023  51.975  1.00  0.00     0.012 A 
HETATM    8  C3  UNL     1      26.246  -0.641  53.178  1.00  0.00     0.037 A 
HETATM    9  C2  UNL     1      26.142   0.125  54.319  1.00  0.00     0.068 A 
HETATM   10  C25 UNL     1      25.978   1.497  54.256  1.00  0.00     0.037 A 
HETATM   11  C24 UNL     1      25.910   2.169  53.038  1.00  0.00     0.012 A 
BRANCH   9  12
HETATM   12  O1  UNL     1      26.208  -0.527  55.553  1.00  0.00    -0.356 OA
HETATM   13  C1  UNL     1      25.015  -1.059  56.092  1.00  0.00     0.210 C 
ENDBRANCH   9  12
ENDBRANCH   1   6
BRANCH   5  14
HETATM   14  C17 UNL     1      23.425   2.157  50.712  1.00  0.00     0.233 A 
HETATM   15  C18 UNL     1      22.527   1.794  49.586  1.00  0.00     0.024 A 
HETATM   16  C19 UNL     1      21.458   2.579  49.540  1.00  0.00     0.029 A 
HETATM   17  C20 UNL     1      21.570   3.530  50.644  1.00  0.00     0.036 A 
HETATM   18  C21 UNL     1      20.905   4.585  51.217  1.00  0.00     0.031 A 
HETATM   19  N3  UNL     1      22.705   3.285  51.318  1.00  0.00    -0.330 N 
HETATM   20  C22 UNL     1      21.679   4.999  52.297  1.00  0.00     0.020 A 
HETATM   21  C23 UNL     1      22.774   4.181  52.330  1.00  0.00     0.094 A 
ENDBRANCH   5  14
BRANCH   3  22
HETATM   22  C9  UNL     1      26.765   5.260  48.860  1.00  0.00    -0.009 A 
HETATM   23  C10 UNL     1      26.034   6.360  48.455  1.00  0.00     0.014 A 
HETATM   24  C11 UNL     1      26.604   7.438  47.783  1.00  0.00     0.008 A 
HETATM   25  C12 UNL     1      27.967   7.420  47.499  1.00  0.00    -0.056 A 
HETATM   26  C13 UNL     1      28.661   8.527  46.787  1.00  0.00     0.049 C 
HETATM   27  C14 UNL     1      28.701   6.336  47.895  1.00  0.00    -0.055 A 
HETATM   28  C15 UNL     1      30.148   6.294  47.606  1.00  0.00     0.049 C 
HETATM   29  C16 UNL     1      28.096   5.299  48.554  1.00  0.00     0.020 A 
ENDBRANCH   3  22
TORSDOF 4
ENDMDL
MODEL 5
REMARK VINA RESULT:      -8.4      3.665      7.796
REMARK  4 active torsions:
REMARK  status: ('A' for Active; 'I' for Inactive)
REMARK    1  A    between atoms: O1_2  and  C2_3 
REMARK    2  A    between atoms: C5_6  and  C6_7 
REMARK    3  A    between atoms: C8_9  and  C9_10 
REMARK    4  A    between atoms: N2_19  and  C17_20 
ROOT
HETATM    1  C6  UNL     1      23.148   2.786  49.752  1.00  0.00     0.145 C 
HETATM    2  C7  UNL     1      24.618   3.106  49.906  1.00  0.00     0.093 C 
HETATM    3  C8  UNL     1      24.689   4.472  49.334  1.00  0.00     0.067 C 
HETATM    4  N1  UNL     1      23.528   4.999  49.270  1.00  0.00    -0.178 NA
HETATM    5  N2  UNL     1      22.560   4.091  49.770  1.00  0.00    -0.268 N 
ENDROOT
BRANCH   1   6
HETATM    6  C5  UNL     1      22.672   1.876  50.820  1.00  0.00    -0.033 A 
HETATM    7  C4  UNL     1      23.171   2.008  52.099  1.00  0.00     0.012 A 
HETATM    8  C3  UNL     1      22.759   1.192  53.127  1.00  0.00     0.037 A 
HETATM    9  C2  UNL     1      21.818   0.231  52.821  1.00  0.00     0.068 A 
HETATM   10  C25 UNL     1      21.315   0.095  51.540  1.00  0.00     0.037 A 
HETATM   11  C24 UNL     1      21.733   0.921  50.500  1.00  0.00     0.012 A 
BRANCH   9  12
HETATM   12  O1  UNL     1      21.383  -0.609  53.849  1.00  0.00    -0.356 OA
HETATM   13  C1  UNL     1      22.358  -1.252  54.644  1.00  0.00     0.210 C 
ENDBRANCH   9  12
ENDBRANCH   1   6
BRANCH   5  14
HETATM   14  C17 UNL     1      21.236   4.386  50.212  1.00  0.00     0.233 A 
HETATM   15  C18 UNL     1      20.205   4.015  49.209  1.00  0.00     0.024 A 
HETATM   16  C19 UNL     1      19.571   5.082  48.742  1.00  0.00     0.029 A 
HETATM   17  C20 UNL     1      20.142   6.252  49.408  1.00  0.00     0.036 A 
HETATM   18  C21 UNL     1      20.023   7.618  49.454  1.00  0.00     0.031 A 
HETATM   19  N3  UNL     1      21.101   5.848  50.255  1.00  0.00    -0.330 N 
HETATM   20  C22 UNL     1      20.961   8.065  50.380  1.00  0.00     0.020 A 
HETATM   21  C23 UNL     1      21.604   6.953  50.851  1.00  0.00     0.094 A 
ENDBRANCH   5  14
BRANCH   3  22
HETATM   22  C9  UNL     1      25.921   5.128  48.902  1.00  0.00    -0.009 A 
HETATM   23  C10 UNL     1      27.147   4.492  48.921  1.00  0.00     0.014 A 
HETATM   24  C11 UNL     1      28.324   5.113  48.511  1.00  0.00     0.008 A 
HETATM   25  C12 UNL     1      28.280   6.429  48.060  1.00  0.00    -0.056 A 
HETATM   26  C13 UNL     1      29.486   7.170  47.602  1.00  0.00     0.049 C 
HETATM   27  C14 UNL     1      27.071   7.069  48.037  1.00  0.00    -0.055 A 
HETATM   28  C15 UNL     1      26.997   8.465  47.562  1.00  0.00     0.049 C 
HETATM   29  C16 UNL     1      25.939   6.418  48.450  1.00  0.00     0.020 A 
ENDBRANCH   3  22
TORSDOF 4
ENDMDL
MODEL 6
REMARK VINA RESULT:      -8.3      3.336      5.484
REMARK  4 active torsions:
REMARK  status: ('A' for Active; 'I' for Inactive)
REMARK    1  A    between atoms: O1_2  and  C2_3 
REMARK    2  A    between atoms: C5_6  and  C6_7 
REMARK    3  A    between atoms: C8_9  and  C9_10 
REMARK    4  A    between atoms: N2_19  and  C17_20 
ROOT
HETATM    1  C6  UNL     1      24.539   4.653  50.678  1.00  0.00     0.145 C 
HETATM    2  C7  UNL     1      24.824   3.310  51.309  1.00  0.00     0.093 C 
HETATM    3  C8  UNL     1      23.469   2.711  51.365  1.00  0.00     0.067 C 
HETATM    4  N1  UNL     1      22.668   3.325  50.583  1.00  0.00    -0.178 NA
HETATM    5  N2  UNL     1      23.353   4.378  49.925  1.00  0.00    -0.268 N 
ENDROOT
BRANCH   1   6
HETATM    6  C5  UNL     1      25.687   5.133  49.872  1.00  0.00    -0.033 A 
HETATM    7  C4  UNL     1      25.841   6.485  49.644  1.00  0.00     0.012 A 
HETATM    8  C3  UNL     1      26.891   6.982  48.907  1.00  0.00     0.037 A 
HETATM    9  C2  UNL     1      27.787   6.064  48.402  1.00  0.00     0.068 A 
HETATM   10  C25 UNL     1      27.636   4.708  48.628  1.00  0.00     0.037 A 
HETATM   11  C24 UNL     1      26.574   4.206  49.374  1.00  0.00     0.012 A 
BRANCH   9  12
HETATM   12  O1  UNL     1      28.862   6.546  47.651  1.00  0.00    -0.356 OA
HETATM   13  C1  UNL     1      30.141   5.994  47.887  1.00  0.00     0.210 C 
ENDBRANCH   9  12
ENDBRANCH   1   6
BRANCH   5  14
HETATM   14  C17 UNL     1      22.960   5.062  48.736  1.00  0.00     0.233 A 
HETATM   15  C18 UNL     1      22.295   6.360  49.020  1.00  0.00     0.024 A 
HETATM   16  C19 UNL     1      21.024   6.352  48.638  1.00  0.00     0.029 A 
HETATM   17  C20 UNL     1      20.751   5.034  48.066  1.00  0.00     0.036 A 
HETATM   18  C21 UNL     1      19.738   4.307  47.494  1.00  0.00     0.031 A 
HETATM   19  N3  UNL     1      21.869   4.293  48.124  1.00  0.00    -0.330 N 
HETATM   20  C22 UNL     1      20.272   3.059  47.188  1.00  0.00     0.020 A 
HETATM   21  C23 UNL     1      21.580   3.085  47.588  1.00  0.00     0.094 A 
ENDBRANCH   5  14
BRANCH   3  22
HETATM   22  C9  UNL     1      23.098   1.571  52.202  1.00  0.00    -0.009 A 
HETATM   23  C10 UNL     1      24.037   0.757  52.804  1.00  0.00     0.014 A 
HETATM   24  C11 UNL     1      23.690  -0.331  53.602  1.00  0.00     0.008 A 
HETATM   25  C12 UNL     1      22.344  -0.621  53.810  1.00  0.00    -0.056 A 
HETATM   26  C13 UNL     1      21.881  -1.761  54.647  1.00  0.00     0.049 C 
HETATM   27  C14 UNL     1      21.406   0.179  53.218  1.00  0.00    -0.055 A 
HETATM   28  C15 UNL     1      19.972  -0.109  53.424  1.00  0.00     0.049 C 
HETATM   29  C16 UNL     1      21.795   1.237  52.441  1.00  0.00     0.020 A 
ENDBRANCH   3  22
TORSDOF 4
ENDMDL
MODEL 7
REMARK VINA RESULT:      -8.2      3.033      7.448
REMARK  4 active torsions:
REMARK  status: ('A' for Active; 'I' for Inactive)
REMARK    1  A    between atoms: O1_2  and  C2_3 
REMARK    2  A    between atoms: C5_6  and  C6_7 
REMARK    3  A    between atoms: C8_9  and  C9_10 
REMARK    4  A    between atoms: N2_19  and  C17_20 
ROOT
HETATM    1  C6  UNL     1      22.458   1.432  50.466  1.00  0.00     0.145 C 
HETATM    2  C7  UNL     1      23.235   0.814  51.606  1.00  0.00     0.093 C 
HETATM    3  C8  UNL     1      24.537   1.516  51.497  1.00  0.00     0.067 C 
HETATM    4  N1  UNL     1      24.426   2.572  50.788  1.00  0.00    -0.178 NA
HETATM    5  N2  UNL     1      23.087   2.712  50.342  1.00  0.00    -0.268 N 
ENDROOT
BRANCH   1   6
HETATM    6  C5  UNL     1      21.005   1.480  50.757  1.00  0.00    -0.033 A 
HETATM    7  C4  UNL     1      20.574   1.899  51.998  1.00  0.00     0.012 A 
HETATM    8  C3  UNL     1      19.237   1.966  52.318  1.00  0.00     0.037 A 
HETATM    9  C2  UNL     1      18.343   1.594  51.337  1.00  0.00     0.068 A 
HETATM   10  C25 UNL     1      18.771   1.174  50.091  1.00  0.00     0.037 A 
HETATM   11  C24 UNL     1      20.124   1.106  49.768  1.00  0.00     0.012 A 
BRANCH   9  12
HETATM   12  O1  UNL     1      16.980   1.655  51.637  1.00  0.00    -0.356 OA
HETATM   13  C1  UNL     1      16.231   2.737  51.123  1.00  0.00     0.210 C 
ENDBRANCH   9  12
ENDBRANCH   1   6
BRANCH   5  14
HETATM   14  C17 UNL     1      22.453   3.891  49.850  1.00  0.00     0.233 A 
HETATM   15  C18 UNL     1      22.641   4.071  48.388  1.00  0.00     0.024 A 
HETATM   16  C19 UNL     1      23.363   5.150  48.117  1.00  0.00     0.029 A 
HETATM   17  C20 UNL     1      23.711   5.772  49.394  1.00  0.00     0.036 A 
HETATM   18  C21 UNL     1      24.393   6.845  49.908  1.00  0.00     0.031 A 
HETATM   19  N3  UNL     1      23.185   5.044  50.391  1.00  0.00    -0.330 N 
HETATM   20  C22 UNL     1      24.272   6.763  51.292  1.00  0.00     0.020 A 
HETATM   21  C23 UNL     1      23.525   5.647  51.553  1.00  0.00     0.094 A 
ENDBRANCH   5  14
BRANCH   3  22
HETATM   22  C9  UNL     1      25.780   1.062  52.118  1.00  0.00    -0.009 A 
HETATM   23  C10 UNL     1      26.087  -0.276  52.272  1.00  0.00     0.014 A 
HETATM   24  C11 UNL     1      27.270  -0.714  52.862  1.00  0.00     0.008 A 
HETATM   25  C12 UNL     1      28.190   0.224  53.323  1.00  0.00    -0.056 A 
HETATM   26  C13 UNL     1      29.478  -0.152  53.966  1.00  0.00     0.049 C 
HETATM   27  C14 UNL     1      27.895   1.552  53.177  1.00  0.00    -0.055 A 
HETATM   28  C15 UNL     1      28.855   2.567  53.657  1.00  0.00     0.049 C 
HETATM   29  C16 UNL     1      26.719   1.936  52.589  1.00  0.00     0.020 A 
ENDBRANCH   3  22
TORSDOF 4
ENDMDL
MODEL 8
REMARK VINA RESULT:      -8.1      3.995      8.357
REMARK  4 active torsions:
REMARK  status: ('A' for Active; 'I' for Inactive)
REMARK    1  A    between atoms: O1_2  and  C2_3 
REMARK    2  A    between atoms: C5_6  and  C6_7 
REMARK    3  A    between atoms: C8_9  and  C9_10 
REMARK    4  A    between atoms: N2_19  and  C17_20 
ROOT
HETATM    1  C6  UNL     1      24.355   3.197  49.569  1.00  0.00     0.145 C 
HETATM    2  C7  UNL     1      25.678   3.830  49.936  1.00  0.00     0.093 C 
HETATM    3  C8  UNL     1      25.695   5.022  49.055  1.00  0.00     0.067 C 
HETATM    4  N1  UNL     1      24.524   5.280  48.616  1.00  0.00    -0.178 NA
HETATM    5  N2  UNL     1      23.602   4.330  49.123  1.00  0.00    -0.268 N 
ENDROOT
BRANCH   1   6
HETATM    6  C5  UNL     1      23.761   2.468  50.715  1.00  0.00    -0.033 A 
HETATM    7  C4  UNL     1      22.750   1.558  50.492  1.00  0.00     0.012 A 
HETATM    8  C3  UNL     1      22.167   0.853  51.520  1.00  0.00     0.037 A 
HETATM    9  C2  UNL     1      22.641   1.099  52.791  1.00  0.00     0.068 A 
HETATM   10  C25 UNL     1      23.655   2.011  53.019  1.00  0.00     0.037 A 
HETATM   11  C24 UNL     1      24.244   2.725  51.978  1.00  0.00     0.012 A 
BRANCH   9  12
HETATM   12  O1  UNL     1      22.066   0.394  53.851  1.00  0.00    -0.356 OA
HETATM   13  C1  UNL     1      22.543  -0.907  54.124  1.00  0.00     0.210 C 
ENDBRANCH   9  12
ENDBRANCH   1   6
BRANCH   5  14
HETATM   14  C17 UNL     1      22.181   4.445  49.188  1.00  0.00     0.233 A 
HETATM   15  C18 UNL     1      21.558   4.567  47.846  1.00  0.00     0.024 A 
HETATM   16  C19 UNL     1      20.979   5.749  47.682  1.00  0.00     0.029 A 
HETATM   17  C20 UNL     1      21.178   6.506  48.917  1.00  0.00     0.036 A 
HETATM   18  C21 UNL     1      20.894   7.723  49.481  1.00  0.00     0.031 A 
HETATM   19  N3  UNL     1      21.871   5.751  49.784  1.00  0.00    -0.330 N 
HETATM   20  C22 UNL     1      21.444   7.705  50.759  1.00  0.00     0.020 A 
HETATM   21  C23 UNL     1      22.035   6.480  50.911  1.00  0.00     0.094 A 
ENDBRANCH   5  14
BRANCH   3  22
HETATM   22  C9  UNL     1      26.890   5.800  48.732  1.00  0.00    -0.009 A 
HETATM   23  C10 UNL     1      26.889   7.180  48.694  1.00  0.00     0.014 A 
HETATM   24  C11 UNL     1      28.025   7.926  48.388  1.00  0.00     0.008 A 
HETATM   25  C12 UNL     1      29.217   7.266  48.104  1.00  0.00    -0.056 A 
HETATM   26  C13 UNL     1      30.478   7.981  47.767  1.00  0.00     0.049 C 
HETATM   27  C14 UNL     1      29.229   5.899  48.138  1.00  0.00    -0.055 A 
HETATM   28  C15 UNL     1      30.483   5.176  47.843  1.00  0.00     0.049 C 
HETATM   29  C16 UNL     1      28.088   5.208  48.446  1.00  0.00     0.020 A 
ENDBRANCH   3  22
TORSDOF 4
ENDMDL
MODEL 9
REMARK VINA RESULT:      -8.0      2.579      5.230
REMARK  4 active torsions:
REMARK  status: ('A' for Active; 'I' for Inactive)
REMARK    1  A    between atoms: O1_2  and  C2_3 
REMARK    2  A    between atoms: C5_6  and  C6_7 
REMARK    3  A    between atoms: C8_9  and  C9_10 
REMARK    4  A    between atoms: N2_19  and  C17_20 
ROOT
HETATM    1  C6  UNL     1      23.561   2.846  50.149  1.00  0.00     0.145 C 
HETATM    2  C7  UNL     1      22.054   2.938  50.210  1.00  0.00     0.093 C 
HETATM    3  C8  UNL     1      21.706   1.688  50.928  1.00  0.00     0.067 C 
HETATM    4  N1  UNL     1      22.727   1.208  51.525  1.00  0.00    -0.178 NA
HETATM    5  N2  UNL     1      23.853   2.038  51.295  1.00  0.00    -0.268 N 
ENDROOT
BRANCH   1   6
HETATM    6  C5  UNL     1      24.192   4.188  50.160  1.00  0.00    -0.033 A 
HETATM    7  C4  UNL     1      23.770   5.130  51.073  1.00  0.00     0.012 A 
HETATM    8  C3  UNL     1      24.325   6.388  51.128  1.00  0.00     0.037 A 
HETATM    9  C2  UNL     1      25.327   6.666  50.223  1.00  0.00     0.068 A 
HETATM   10  C25 UNL     1      25.753   5.724  49.305  1.00  0.00     0.037 A 
HETATM   11  C24 UNL     1      25.191   4.451  49.250  1.00  0.00     0.012 A 
BRANCH   9  12
HETATM   12  O1  UNL     1      25.907   7.936  50.260  1.00  0.00    -0.356 OA
HETATM   13  C1  UNL     1      27.052   8.171  49.465  1.00  0.00     0.210 C 
ENDBRANCH   9  12
ENDBRANCH   1   6
BRANCH   5  14
HETATM   14  C17 UNL     1      25.068   2.084  52.040  1.00  0.00     0.233 A 
HETATM   15  C18 UNL     1      26.262   1.807  51.201  1.00  0.00     0.024 A 
HETATM   16  C19 UNL     1      26.862   0.680  51.562  1.00  0.00     0.029 A 
HETATM   17  C20 UNL     1      26.102   0.122  52.679  1.00  0.00     0.036 A 
HETATM   18  C21 UNL     1      26.095  -0.949  53.536  1.00  0.00     0.031 A 
HETATM   19  N3  UNL     1      25.069   0.933  52.953  1.00  0.00    -0.330 N 
HETATM   20  C22 UNL     1      24.998  -0.777  54.374  1.00  0.00     0.020 A 
HETATM   21  C23 UNL     1      24.391   0.387  53.989  1.00  0.00     0.094 A 
ENDBRANCH   5  14
BRANCH   3  22
HETATM   22  C9  UNL     1      20.374   1.086  50.951  1.00  0.00    -0.009 A 
HETATM   23  C10 UNL     1      19.452   1.285  49.942  1.00  0.00     0.014 A 
HETATM   24  C11 UNL     1      18.182   0.714  49.959  1.00  0.00     0.008 A 
HETATM   25  C12 UNL     1      17.811  -0.092  51.031  1.00  0.00    -0.056 A 
HETATM   26  C13 UNL     1      16.477  -0.742  51.133  1.00  0.00     0.049 C 
HETATM   27  C14 UNL     1      18.716  -0.295  52.037  1.00  0.00    -0.055 A 
HETATM   28  C15 UNL     1      18.346  -1.147  53.185  1.00  0.00     0.049 C 
HETATM   29  C16 UNL     1      19.954   0.287  51.977  1.00  0.00     0.020 A 
ENDBRANCH   3  22
TORSDOF 4
ENDMDL
