MODEL 1
REMARK VINA RESULT:      -8.1      0.000      0.000
REMARK  3 active torsions:
REMARK  status: ('A' for Active; 'I' for Inactive)
REMARK    1  A    between atoms: C5_5  and  C6_6 
REMARK       I    between atoms: C6_6  and  N1_8 
REMARK    2  A    between atoms: N1_8  and  S1_9 
REMARK    3  A    between atoms: S1_9  and  C7_11 
ROOT
HETATM    1  C6  UNL     1      24.431   0.262  52.700  1.00  0.00     0.266 C 
HETATM    2  O1  UNL     1      24.104   1.067  51.764  1.00  0.00    -0.267 OA
HETATM    3  N1  UNL     1      23.443  -0.242  53.604  1.00  0.00    -0.268 N 
HETATM    4  H6  UNL     1      23.751  -0.909  54.371  1.00  0.00     0.180 HD
ENDROOT
BRANCH   3   5
HETATM    5  S1  UNL     1      21.932  -0.539  54.388  1.00  0.00     0.153 S 
HETATM    6  O2  UNL     1      21.945  -1.798  55.241  1.00  0.00    -0.230 OA
BRANCH   5   7
HETATM    7  C7  UNL     1      20.537  -0.447  53.335  1.00  0.00     0.052 A 
HETATM    8  C8  UNL     1      19.298  -1.003  53.601  1.00  0.00     0.024 A 
HETATM    9  C9  UNL     1      18.272  -0.861  52.685  1.00  0.00     0.020 A 
HETATM   10  C10 UNL     1      18.441  -0.177  51.500  1.00  0.00     0.011 A 
HETATM   11 BR1  UNL     1      17.023   0.016  50.239  1.00  0.00    -0.051 Br
HETATM   12  C11 UNL     1      19.677   0.387  51.217  1.00  0.00     0.020 A 
HETATM   13  C12 UNL     1      20.692   0.244  52.128  1.00  0.00     0.024 A 
ENDBRANCH   5   7
ENDBRANCH   3   5
BRANCH   1  14
HETATM   14  C5  UNL     1      25.812  -0.186  52.901  1.00  0.00     0.073 A 
HETATM   15  C4  UNL     1      26.369  -1.396  52.568  1.00  0.00     0.022 A 
HETATM   16  C3  UNL     1      27.709  -1.596  52.855  1.00  0.00     0.028 A 
HETATM   17  C2  UNL     1      28.485  -0.649  53.448  1.00  0.00     0.032 A 
HETATM   18  C1  UNL     1      29.922  -0.921  53.734  1.00  0.00     0.070 C 
HETATM   19  N2  UNL     1      27.896   0.528  53.758  1.00  0.00    -0.241 NA
HETATM   20  C13 UNL     1      26.595   0.772  53.499  1.00  0.00     0.142 A 
HETATM   21 CL1  UNL     1      26.063   2.365  53.992  1.00  0.00    -0.061 Cl
ENDBRANCH   1  14
TORSDOF 3
ENDMDL
MODEL 2
REMARK VINA RESULT:      -7.8      4.437      5.871
REMARK  3 active torsions:
REMARK  status: ('A' for Active; 'I' for Inactive)
REMARK    1  A    between atoms: C5_5  and  C6_6 
REMARK       I    between atoms: C6_6  and  N1_8 
REMARK    2  A    between atoms: N1_8  and  S1_9 
REMARK    3  A    between atoms: S1_9  and  C7_11 
ROOT
HETATM    1  C6  UNL     1      24.492   0.307  52.717  1.00  0.00     0.266 C 
HETATM    2  O1  UNL     1      23.505  -0.132  53.400  1.00  0.00    -0.267 OA
HETATM    3  N1  UNL     1      24.294   1.312  51.718  1.00  0.00    -0.268 N 
HETATM    4  H6  UNL     1      25.137   1.653  51.169  1.00  0.00     0.180 HD
ENDROOT
BRANCH   3   5
HETATM    5  S1  UNL     1      23.545   2.474  50.681  1.00  0.00     0.153 S 
HETATM    6  O2  UNL     1      22.626   1.841  49.648  1.00  0.00    -0.230 OA
BRANCH   5   7
HETATM    7  C7  UNL     1      24.645   3.643  49.985  1.00  0.00     0.052 A 
HETATM    8  C8  UNL     1      24.299   4.918  49.572  1.00  0.00     0.024 A 
HETATM    9  C9  UNL     1      25.263   5.750  49.034  1.00  0.00     0.020 A 
HETATM   10  C10 UNL     1      26.575   5.351  48.893  1.00  0.00     0.011 A 
HETATM   11 BR1  UNL     1      27.902   6.502  48.150  1.00  0.00    -0.051 Br
HETATM   12  C11 UNL     1      26.940   4.076  49.301  1.00  0.00     0.020 A 
HETATM   13  C12 UNL     1      25.980   3.253  49.834  1.00  0.00     0.024 A 
ENDBRANCH   5   7
ENDBRANCH   3   5
BRANCH   1  14
HETATM   14  C5  UNL     1      25.859  -0.183  52.912  1.00  0.00     0.073 A 
HETATM   15  C4  UNL     1      26.368  -1.422  52.610  1.00  0.00     0.022 A 
HETATM   16  C3  UNL     1      27.704  -1.660  52.884  1.00  0.00     0.028 A 
HETATM   17  C2  UNL     1      28.522  -0.725  53.436  1.00  0.00     0.032 A 
HETATM   18  C1  UNL     1      29.952  -1.039  53.710  1.00  0.00     0.070 C 
HETATM   19  N2  UNL     1      27.980   0.482  53.718  1.00  0.00    -0.241 NA
HETATM   20  C13 UNL     1      26.684   0.764  53.469  1.00  0.00     0.142 A 
HETATM   21 CL1  UNL     1      26.217   2.390  53.919  1.00  0.00    -0.061 Cl
ENDBRANCH   1  14
TORSDOF 3
ENDMDL
MODEL 3
REMARK VINA RESULT:      -7.6      5.607      7.253
REMARK  3 active torsions:
REMARK  status: ('A' for Active; 'I' for Inactive)
REMARK    1  A    between atoms: C5_5  and  C6_6 
REMARK       I    between atoms: C6_6  and  N1_8 
REMARK    2  A    between atoms: N1_8  and  S1_9 
REMARK    3  A    between atoms: S1_9  and  C7_11 
ROOT
HETATM    1  C6  UNL     1      25.647   2.538  52.924  1.00  0.00     0.266 C 
HETATM    2  O1  UNL     1      24.792   2.790  53.839  1.00  0.00    -0.267 OA
HETATM    3  N1  UNL     1      25.472   3.057  51.602  1.00  0.00    -0.268 N 
HETATM    4  H6  UNL     1      26.203   2.827  50.866  1.00  0.00     0.180 HD
ENDROOT
BRANCH   3   5
HETATM    5  S1  UNL     1      24.817   3.890  50.237  1.00  0.00     0.153 S 
HETATM    6  O2  UNL     1      24.054   2.973  49.294  1.00  0.00    -0.230 OA
BRANCH   5   7
HETATM    7  C7  UNL     1      25.954   4.926  49.403  1.00  0.00     0.052 A 
HETATM    8  C8  UNL     1      25.712   6.235  49.024  1.00  0.00     0.024 A 
HETATM    9  C9  UNL     1      26.695   6.952  48.368  1.00  0.00     0.020 A 
HETATM   10  C10 UNL     1      27.925   6.402  48.073  1.00  0.00     0.011 A 
HETATM   11 BR1  UNL     1      29.278   7.395  47.166  1.00  0.00    -0.051 Br
HETATM   12  C11 UNL     1      28.185   5.091  48.444  1.00  0.00     0.020 A 
HETATM   13  C12 UNL     1      27.206   4.383  49.096  1.00  0.00     0.024 A 
ENDBRANCH   5   7
ENDBRANCH   3   5
BRANCH   1  14
HETATM   14  C5  UNL     1      26.836   1.717  53.168  1.00  0.00     0.073 A 
HETATM   15  C4  UNL     1      28.138   2.128  53.307  1.00  0.00     0.022 A 
HETATM   16  C3  UNL     1      29.104   1.163  53.536  1.00  0.00     0.028 A 
HETATM   17  C2  UNL     1      28.815  -0.163  53.628  1.00  0.00     0.032 A 
HETATM   18  C1  UNL     1      29.896  -1.157  53.875  1.00  0.00     0.070 C 
HETATM   19  N2  UNL     1      27.519  -0.525  53.485  1.00  0.00    -0.241 NA
HETATM   20  C13 UNL     1      26.541   0.377  53.261  1.00  0.00     0.142 A 
HETATM   21 CL1  UNL     1      24.948  -0.332  53.111  1.00  0.00    -0.061 Cl
ENDBRANCH   1  14
TORSDOF 3
ENDMDL
MODEL 4
REMARK VINA RESULT:      -7.5      5.470      6.699
REMARK  3 active torsions:
REMARK  status: ('A' for Active; 'I' for Inactive)
REMARK    1  A    between atoms: C5_5  and  C6_6 
REMARK       I    between atoms: C6_6  and  N1_8 
REMARK    2  A    between atoms: N1_8  and  S1_9 
REMARK    3  A    between atoms: S1_9  and  C7_11 
ROOT
HETATM    1  C6  UNL     1      25.928   3.793  49.923  1.00  0.00     0.266 C 
HETATM    2  O1  UNL     1      24.892   3.284  49.375  1.00  0.00    -0.267 OA
HETATM    3  N1  UNL     1      26.461   3.235  51.129  1.00  0.00    -0.268 N 
HETATM    4  H6  UNL     1      27.323   3.684  51.556  1.00  0.00     0.180 HD
ENDROOT
BRANCH   3   5
HETATM    5  S1  UNL     1      26.686   2.226  52.513  1.00  0.00     0.153 S 
HETATM    6  O2  UNL     1      27.970   1.414  52.452  1.00  0.00    -0.230 OA
BRANCH   5   7
HETATM    7  C7  UNL     1      25.292   1.259  52.942  1.00  0.00     0.052 A 
HETATM    8  C8  UNL     1      24.007   1.453  52.464  1.00  0.00     0.024 A 
HETATM    9  C9  UNL     1      22.987   0.619  52.882  1.00  0.00     0.020 A 
HETATM   10  C10 UNL     1      23.206  -0.413  53.769  1.00  0.00     0.011 A 
HETATM   11 BR1  UNL     1      21.795  -1.562  54.343  1.00  0.00    -0.051 Br
HETATM   12  C11 UNL     1      24.487  -0.622  54.260  1.00  0.00     0.020 A 
HETATM   13  C12 UNL     1      25.497   0.208  53.842  1.00  0.00     0.024 A 
ENDBRANCH   5   7
ENDBRANCH   3   5
BRANCH   1  14
HETATM   14  C5  UNL     1      26.621   4.955  49.360  1.00  0.00     0.073 A 
HETATM   15  C4  UNL     1      27.742   4.974  48.570  1.00  0.00     0.022 A 
HETATM   16  C3  UNL     1      28.222   6.204  48.151  1.00  0.00     0.028 A 
HETATM   17  C2  UNL     1      27.630   7.380  48.490  1.00  0.00     0.032 A 
HETATM   18  C1  UNL     1      28.191   8.675  48.010  1.00  0.00     0.070 C 
HETATM   19  N2  UNL     1      26.526   7.316  49.270  1.00  0.00    -0.241 NA
HETATM   20  C13 UNL     1      26.020   6.143  49.703  1.00  0.00     0.142 A 
HETATM   21 CL1  UNL     1      24.590   6.316  50.698  1.00  0.00    -0.061 Cl
ENDBRANCH   1  14
TORSDOF 3
ENDMDL
MODEL 5
REMARK VINA RESULT:      -7.2      2.264      2.710
REMARK  3 active torsions:
REMARK  status: ('A' for Active; 'I' for Inactive)
REMARK    1  A    between atoms: C5_5  and  C6_6 
REMARK       I    between atoms: C6_6  and  N1_8 
REMARK    2  A    between atoms: N1_8  and  S1_9 
REMARK    3  A    between atoms: S1_9  and  C7_11 
ROOT
HETATM    1  C6  UNL     1      24.888   2.062  52.904  1.00  0.00     0.266 C 
HETATM    2  O1  UNL     1      24.530   3.038  53.647  1.00  0.00    -0.267 OA
HETATM    3  N1  UNL     1      24.032   1.596  51.856  1.00  0.00    -0.268 N 
HETATM    4  H6  UNL     1      24.361   0.782  51.257  1.00  0.00     0.180 HD
ENDROOT
BRANCH   3   5
HETATM    5  S1  UNL     1      22.688   1.430  50.783  1.00  0.00     0.153 S 
HETATM    6  O2  UNL     1      22.363   2.715  50.038  1.00  0.00    -0.230 OA
BRANCH   5   7
HETATM    7  C7  UNL     1      21.275   0.685  51.498  1.00  0.00     0.052 A 
HETATM    8  C8  UNL     1      21.246   0.035  52.720  1.00  0.00     0.024 A 
HETATM    9  C9  UNL     1      20.063  -0.515  53.176  1.00  0.00     0.020 A 
HETATM   10  C10 UNL     1      18.895  -0.439  52.449  1.00  0.00     0.011 A 
HETATM   11 BR1  UNL     1      17.265  -1.201  53.083  1.00  0.00    -0.051 Br
HETATM   12  C11 UNL     1      18.904   0.207  51.221  1.00  0.00     0.020 A 
HETATM   13  C12 UNL     1      20.081   0.752  50.772  1.00  0.00     0.024 A 
ENDBRANCH   5   7
ENDBRANCH   3   5
BRANCH   1  14
HETATM   14  C5  UNL     1      26.171   1.375  53.076  1.00  0.00     0.073 A 
HETATM   15  C4  UNL     1      27.423   1.817  52.729  1.00  0.00     0.022 A 
HETATM   16  C3  UNL     1      28.501   0.988  52.992  1.00  0.00     0.028 A 
HETATM   17  C2  UNL     1      28.366  -0.233  53.574  1.00  0.00     0.032 A 
HETATM   18  C1  UNL     1      29.563  -1.083  53.832  1.00  0.00     0.070 C 
HETATM   19  N2  UNL     1      27.115  -0.630  53.899  1.00  0.00    -0.241 NA
HETATM   20  C13 UNL     1      26.033   0.141  53.665  1.00  0.00     0.142 A 
HETATM   21 CL1  UNL     1      24.524  -0.586  54.172  1.00  0.00    -0.061 Cl
ENDBRANCH   1  14
TORSDOF 3
ENDMDL
MODEL 6
REMARK VINA RESULT:      -7.1      3.984      7.547
REMARK  3 active torsions:
REMARK  status: ('A' for Active; 'I' for Inactive)
REMARK    1  A    between atoms: C5_5  and  C6_6 
REMARK       I    between atoms: C6_6  and  N1_8 
REMARK    2  A    between atoms: N1_8  and  S1_9 
REMARK    3  A    between atoms: S1_9  and  C7_11 
ROOT
HETATM    1  C6  UNL     1      20.317   1.994  52.403  1.00  0.00     0.266 C 
HETATM    2  O1  UNL     1      19.936   3.128  52.853  1.00  0.00    -0.267 OA
HETATM    3  N1  UNL     1      21.567   1.867  51.720  1.00  0.00    -0.268 N 
HETATM    4  H6  UNL     1      21.852   0.910  51.359  1.00  0.00     0.180 HD
ENDROOT
BRANCH   3   5
HETATM    5  S1  UNL     1      23.093   2.243  51.002  1.00  0.00     0.153 S 
HETATM    6  O2  UNL     1      23.086   2.104  49.488  1.00  0.00    -0.230 OA
BRANCH   5   7
HETATM    7  C7  UNL     1      24.463   1.450  51.749  1.00  0.00     0.052 A 
HETATM    8  C8  UNL     1      24.387   0.385  52.630  1.00  0.00     0.024 A 
HETATM    9  C9  UNL     1      25.546  -0.155  53.155  1.00  0.00     0.020 A 
HETATM   10  C10 UNL     1      26.792   0.336  52.829  1.00  0.00     0.011 A 
HETATM   11 BR1  UNL     1      28.389  -0.412  53.557  1.00  0.00    -0.051 Br
HETATM   12  C11 UNL     1      26.888   1.404  51.949  1.00  0.00     0.020 A 
HETATM   13  C12 UNL     1      25.735   1.937  51.430  1.00  0.00     0.024 A 
ENDBRANCH   5   7
ENDBRANCH   3   5
BRANCH   1  14
HETATM   14  C5  UNL     1      19.511   0.780  52.557  1.00  0.00     0.073 A 
HETATM   15  C4  UNL     1      18.394   0.408  51.853  1.00  0.00     0.022 A 
HETATM   16  C3  UNL     1      17.793  -0.797  52.175  1.00  0.00     0.028 A 
HETATM   17  C2  UNL     1      18.263  -1.617  53.153  1.00  0.00     0.032 A 
HETATM   18  C1  UNL     1      17.574  -2.902  53.458  1.00  0.00     0.070 C 
HETATM   19  N2  UNL     1      19.366  -1.211  53.823  1.00  0.00    -0.241 NA
HETATM   20  C13 UNL     1      19.988  -0.047  53.546  1.00  0.00     0.142 A 
HETATM   21 CL1  UNL     1      21.392   0.259  54.545  1.00  0.00    -0.061 Cl
ENDBRANCH   1  14
TORSDOF 3
ENDMDL
MODEL 7
REMARK VINA RESULT:      -6.9      5.627      7.708
REMARK  3 active torsions:
REMARK  status: ('A' for Active; 'I' for Inactive)
REMARK    1  A    between atoms: C5_5  and  C6_6 
REMARK       I    between atoms: C6_6  and  N1_8 
REMARK    2  A    between atoms: N1_8  and  S1_9 
REMARK    3  A    between atoms: S1_9  and  C7_11 
ROOT
HETATM    1  C6  UNL     1      23.089   2.410  50.863  1.00  0.00     0.266 C 
HETATM    2  O1  UNL     1      22.982   2.057  49.639  1.00  0.00    -0.267 OA
HETATM    3  N1  UNL     1      23.459   3.751  51.202  1.00  0.00    -0.268 N 
HETATM    4  H6  UNL     1      23.539   4.010  52.229  1.00  0.00     0.180 HD
ENDROOT
BRANCH   3   5
HETATM    5  S1  UNL     1      23.913   5.413  51.072  1.00  0.00     0.153 S 
HETATM    6  O2  UNL     1      22.746   6.320  50.714  1.00  0.00    -0.230 OA
BRANCH   5   7
HETATM    7  C7  UNL     1      25.328   5.705  50.084  1.00  0.00     0.052 A 
HETATM    8  C8  UNL     1      26.090   4.726  49.471  1.00  0.00     0.024 A 
HETATM    9  C9  UNL     1      27.189   5.086  48.714  1.00  0.00     0.020 A 
HETATM   10  C10 UNL     1      27.559   6.403  48.546  1.00  0.00     0.011 A 
HETATM   11 BR1  UNL     1      29.077   6.896  47.501  1.00  0.00    -0.051 Br
HETATM   12  C11 UNL     1      26.807   7.399  49.154  1.00  0.00     0.020 A 
HETATM   13  C12 UNL     1      25.717   7.036  49.904  1.00  0.00     0.024 A 
ENDBRANCH   5   7
ENDBRANCH   3   5
BRANCH   1  14
HETATM   14  C5  UNL     1      22.845   1.483  51.970  1.00  0.00     0.073 A 
HETATM   15  C4  UNL     1      21.650   1.173  52.571  1.00  0.00     0.022 A 
HETATM   16  C3  UNL     1      21.663   0.258  53.609  1.00  0.00     0.028 A 
HETATM   17  C2  UNL     1      22.801  -0.340  54.052  1.00  0.00     0.032 A 
HETATM   18  C1  UNL     1      22.754  -1.317  55.176  1.00  0.00     0.070 C 
HETATM   19  N2  UNL     1      23.956  -0.006  53.433  1.00  0.00    -0.241 NA
HETATM   20  C13 UNL     1      23.997   0.880  52.416  1.00  0.00     0.142 A 
HETATM   21 CL1  UNL     1      25.604   1.148  51.778  1.00  0.00    -0.061 Cl
ENDBRANCH   1  14
TORSDOF 3
ENDMDL
MODEL 8
REMARK VINA RESULT:      -6.9      5.855      7.994
REMARK  3 active torsions:
REMARK  status: ('A' for Active; 'I' for Inactive)
REMARK    1  A    between atoms: C5_5  and  C6_6 
REMARK       I    between atoms: C6_6  and  N1_8 
REMARK    2  A    between atoms: N1_8  and  S1_9 
REMARK    3  A    between atoms: S1_9  and  C7_11 
ROOT
HETATM    1  C6  UNL     1      23.570   3.594  52.325  1.00  0.00     0.266 C 
HETATM    2  O1  UNL     1      23.790   4.526  53.172  1.00  0.00    -0.267 OA
HETATM    3  N1  UNL     1      23.612   3.864  50.920  1.00  0.00    -0.268 N 
HETATM    4  H6  UNL     1      23.424   3.065  50.245  1.00  0.00     0.180 HD
ENDROOT
BRANCH   3   5
HETATM    5  S1  UNL     1      23.775   4.685  49.409  1.00  0.00     0.153 S 
HETATM    6  O2  UNL     1      23.063   3.974  48.269  1.00  0.00    -0.230 OA
BRANCH   5   7
HETATM    7  C7  UNL     1      25.414   5.145  49.004  1.00  0.00     0.052 A 
HETATM    8  C8  UNL     1      26.520   4.318  49.092  1.00  0.00     0.024 A 
HETATM    9  C9  UNL     1      27.767   4.802  48.743  1.00  0.00     0.020 A 
HETATM   10  C10 UNL     1      27.951   6.096  48.305  1.00  0.00     0.011 A 
HETATM   11 BR1  UNL     1      29.674   6.759  47.825  1.00  0.00    -0.051 Br
HETATM   12  C11 UNL     1      26.854   6.940  48.212  1.00  0.00     0.020 A 
HETATM   13  C12 UNL     1      25.618   6.455  48.559  1.00  0.00     0.024 A 
ENDBRANCH   5   7
ENDBRANCH   3   5
BRANCH   1  14
HETATM   14  C5  UNL     1      23.268   2.220  52.734  1.00  0.00     0.073 A 
HETATM   15  C4  UNL     1      24.148   1.207  53.024  1.00  0.00     0.022 A 
HETATM   16  C3  UNL     1      23.628  -0.021  53.394  1.00  0.00     0.028 A 
HETATM   17  C2  UNL     1      22.292  -0.260  53.480  1.00  0.00     0.032 A 
HETATM   18  C1  UNL     1      21.789  -1.603  53.882  1.00  0.00     0.070 C 
HETATM   19  N2  UNL     1      21.460   0.765  53.186  1.00  0.00    -0.241 NA
HETATM   20  C13 UNL     1      21.918   1.981  52.821  1.00  0.00     0.142 A 
HETATM   21 CL1  UNL     1      20.651   3.142  52.492  1.00  0.00    -0.061 Cl
ENDBRANCH   1  14
TORSDOF 3
ENDMDL
MODEL 9
REMARK VINA RESULT:      -6.8      4.038      6.994
REMARK  3 active torsions:
REMARK  status: ('A' for Active; 'I' for Inactive)
REMARK    1  A    between atoms: C5_5  and  C6_6 
REMARK       I    between atoms: C6_6  and  N1_8 
REMARK    2  A    between atoms: N1_8  and  S1_9 
REMARK    3  A    between atoms: S1_9  and  C7_11 
ROOT
HETATM    1  C6  UNL     1      21.414   0.826  52.323  1.00  0.00     0.266 C 
HETATM    2  O1  UNL     1      20.398   1.113  53.043  1.00  0.00    -0.267 OA
HETATM    3  N1  UNL     1      22.475   0.024  52.852  1.00  0.00    -0.268 N 
HETATM    4  H6  UNL     1      23.305  -0.195  52.226  1.00  0.00     0.180 HD
ENDROOT
BRANCH   3   5
HETATM    5  S1  UNL     1      23.433  -0.934  53.924  1.00  0.00     0.153 S 
HETATM    6  O2  UNL     1      22.961  -0.861  55.367  1.00  0.00    -0.230 OA
BRANCH   5   7
HETATM    7  C7  UNL     1      25.160  -0.698  53.763  1.00  0.00     0.052 A 
HETATM    8  C8  UNL     1      25.918  -1.068  52.665  1.00  0.00     0.024 A 
HETATM    9  C9  UNL     1      27.279  -0.828  52.660  1.00  0.00     0.020 A 
HETATM   10  C10 UNL     1      27.918  -0.224  53.721  1.00  0.00     0.011 A 
HETATM   11 BR1  UNL     1      29.797   0.105  53.709  1.00  0.00    -0.051 Br
HETATM   12  C11 UNL     1      27.174   0.153  54.831  1.00  0.00     0.020 A 
HETATM   13  C12 UNL     1      25.823  -0.088  54.832  1.00  0.00     0.024 A 
ENDBRANCH   5   7
ENDBRANCH   3   5
BRANCH   1  14
HETATM   14  C5  UNL     1      21.552   1.292  50.941  1.00  0.00     0.073 A 
HETATM   15  C4  UNL     1      21.206   0.637  49.786  1.00  0.00     0.022 A 
HETATM   16  C3  UNL     1      21.430   1.281  48.581  1.00  0.00     0.028 A 
HETATM   17  C2  UNL     1      21.974   2.525  48.500  1.00  0.00     0.032 A 
HETATM   18  C1  UNL     1      22.194   3.169  47.174  1.00  0.00     0.070 C 
HETATM   19  N2  UNL     1      22.301   3.135  49.662  1.00  0.00    -0.241 NA
HETATM   20  C13 UNL     1      22.102   2.549  50.862  1.00  0.00     0.142 A 
HETATM   21 CL1  UNL     1      22.603   3.534  52.219  1.00  0.00    -0.061 Cl
ENDBRANCH   1  14
TORSDOF 3
ENDMDL
