MODEL 1
REMARK VINA RESULT:      -8.6      0.000      0.000
REMARK  5 active torsions:
REMARK  status: ('A' for Active; 'I' for Inactive)
REMARK    1  A    between atoms: N1_2  and  C1_3 
REMARK    2  A    between atoms: C1_3  and  C2_4 
REMARK    3  A    between atoms: C2_4  and  C3_5 
REMARK    4  A    between atoms: C10_16  and  N3_17 
REMARK    5  A    between atoms: N3_17  and  C11_18 
ROOT
HETATM    1  C3  UNL     1      25.945   0.334  53.487  1.00  0.00     0.173 C 
HETATM    2  C4  UNL     1      25.342  -0.472  54.572  1.00  0.00     0.174 C 
HETATM    3  O2  UNL     1      25.708  -0.662  55.741  1.00  0.00    -0.293 OA
HETATM    4  C5  UNL     1      24.089  -1.144  54.136  1.00  0.00     0.258 C 
HETATM    5  O3  UNL     1      23.152  -0.121  53.853  1.00  0.00    -0.328 OA
HETATM    6  C6  UNL     1      23.527   1.000  53.130  1.00  0.00     0.153 A 
HETATM    7  C7  UNL     1      22.558   1.752  52.680  1.00  0.00     0.087 A 
HETATM    8  C8  UNL     1      22.845   2.944  51.915  1.00  0.00     0.055 A 
HETATM    9  C9  UNL     1      24.013   3.443  51.566  1.00  0.00     0.070 A 
HETATM   10  S1  UNL     1      25.504   2.596  52.064  1.00  0.00    -0.008 SA
HETATM   11  N2  UNL     1      24.918   1.201  52.966  1.00  0.00    -0.285 N 
HETATM   12  C10 UNL     1      24.282   4.645  50.796  1.00  0.00     0.251 A 
HETATM   13  N4  UNL     1      23.082   5.348  50.383  1.00  0.00    -0.254 NA
HETATM   14  C17 UNL     1      21.896   4.929  50.683  1.00  0.00     0.204 A 
HETATM   15  N5  UNL     1      21.761   3.734  51.444  1.00  0.00    -0.350 N 
HETATM   16  H16 UNL     1      20.766   3.484  51.631  1.00  0.00     0.166 HD
ENDROOT
BRANCH  12  17
HETATM   17  N3  UNL     1      24.960   4.268  49.571  1.00  0.00    -0.363 N 
HETATM   18  H10 UNL     1      24.665   3.412  49.017  1.00  0.00     0.162 HD
BRANCH  17  19
HETATM   19  C11 UNL     1      26.043   5.014  49.055  1.00  0.00     0.032 A 
HETATM   20  C12 UNL     1      27.308   4.488  48.920  1.00  0.00     0.029 A 
HETATM   21  C13 UNL     1      28.400   5.165  48.428  1.00  0.00     0.005 A 
HETATM   22  C14 UNL     1      28.216   6.487  48.033  1.00  0.00     0.042 A 
HETATM   23  C15 UNL     1      26.959   7.092  48.140  1.00  0.00     0.118 A 
HETATM   24  F1  UNL     1      26.774   8.376  47.758  1.00  0.00    -0.206 F 
HETATM   25  C16 UNL     1      25.932   6.308  48.652  1.00  0.00     0.071 A 
ENDBRANCH  17  19
ENDBRANCH  12  17
BRANCH   1  26
HETATM   26  C2  UNL     1      26.570  -0.523  52.406  1.00  0.00     0.058 C 
BRANCH  26  27
HETATM   27  C1  UNL     1      27.835  -1.125  52.988  1.00  0.00     0.184 C 
BRANCH  27  28
HETATM   28  N1  UNL     1      27.785  -2.558  53.063  1.00  0.00    -0.141 NA
HETATM   29  O1  UNL     1      28.745  -3.124  53.466  1.00  0.00    -0.067 OA
ENDBRANCH  27  28
ENDBRANCH  26  27
ENDBRANCH   1  26
TORSDOF 5
ENDMDL
MODEL 2
REMARK VINA RESULT:      -8.3      3.800      6.477
REMARK  5 active torsions:
REMARK  status: ('A' for Active; 'I' for Inactive)
REMARK    1  A    between atoms: N1_2  and  C1_3 
REMARK    2  A    between atoms: C1_3  and  C2_4 
REMARK    3  A    between atoms: C2_4  and  C3_5 
REMARK    4  A    between atoms: C10_16  and  N3_17 
REMARK    5  A    between atoms: N3_17  and  C11_18 
ROOT
HETATM    1  C3  UNL     1      20.531   1.767  52.275  1.00  0.00     0.173 C 
HETATM    2  C4  UNL     1      19.388   2.482  51.663  1.00  0.00     0.174 C 
HETATM    3  O2  UNL     1      18.491   3.165  52.176  1.00  0.00    -0.293 OA
HETATM    4  C5  UNL     1      19.358   2.321  50.185  1.00  0.00     0.258 C 
HETATM    5  O3  UNL     1      20.520   2.954  49.681  1.00  0.00    -0.328 OA
HETATM    6  C6  UNL     1      21.749   2.765  50.291  1.00  0.00     0.153 A 
HETATM    7  C7  UNL     1      22.798   3.151  49.615  1.00  0.00     0.087 A 
HETATM    8  C8  UNL     1      24.126   2.997  50.165  1.00  0.00     0.055 A 
HETATM    9  C9  UNL     1      24.489   2.492  51.326  1.00  0.00     0.070 A 
HETATM   10  S1  UNL     1      23.231   1.889  52.442  1.00  0.00    -0.008 SA
HETATM   11  N2  UNL     1      21.724   2.175  51.576  1.00  0.00    -0.285 N 
HETATM   12  C10 UNL     1      25.830   2.345  51.862  1.00  0.00     0.251 A 
HETATM   13  N4  UNL     1      26.866   2.831  50.969  1.00  0.00    -0.254 NA
HETATM   14  C17 UNL     1      26.599   3.342  49.812  1.00  0.00     0.204 A 
HETATM   15  N5  UNL     1      25.241   3.432  49.397  1.00  0.00    -0.350 N 
HETATM   16  H16 UNL     1      25.135   3.857  48.450  1.00  0.00     0.166 HD
ENDROOT
BRANCH  12  17
HETATM   17  N3  UNL     1      26.102   0.933  52.051  1.00  0.00    -0.363 N 
HETATM   18  H10 UNL     1      25.442   0.190  51.680  1.00  0.00     0.162 HD
BRANCH  17  19
HETATM   19  C11 UNL     1      27.250   0.478  52.737  1.00  0.00     0.032 A 
HETATM   20  C12 UNL     1      28.023   1.306  53.520  1.00  0.00     0.029 A 
HETATM   21  C13 UNL     1      29.151   0.921  54.208  1.00  0.00     0.005 A 
HETATM   22  C14 UNL     1      29.544  -0.410  54.109  1.00  0.00     0.042 A 
HETATM   23  C15 UNL     1      28.810  -1.313  53.332  1.00  0.00     0.118 A 
HETATM   24  F1  UNL     1      29.189  -2.607  53.231  1.00  0.00    -0.206 F 
HETATM   25  C16 UNL     1      27.690  -0.808  52.682  1.00  0.00     0.071 A 
ENDBRANCH  17  19
ENDBRANCH  12  17
BRANCH   1  26
HETATM   26  C2  UNL     1      20.350   0.264  52.263  1.00  0.00     0.058 C 
BRANCH  26  27
HETATM   27  C1  UNL     1      20.060  -0.164  53.689  1.00  0.00     0.184 C 
BRANCH  27  28
HETATM   28  N1  UNL     1      21.241  -0.563  54.400  1.00  0.00    -0.141 NA
HETATM   29  O1  UNL     1      21.245  -1.634  54.909  1.00  0.00    -0.067 OA
ENDBRANCH  27  28
ENDBRANCH  26  27
ENDBRANCH   1  26
TORSDOF 5
ENDMDL
MODEL 3
REMARK VINA RESULT:      -8.1      3.727      6.303
REMARK  5 active torsions:
REMARK  status: ('A' for Active; 'I' for Inactive)
REMARK    1  A    between atoms: N1_2  and  C1_3 
REMARK    2  A    between atoms: C1_3  and  C2_4 
REMARK    3  A    between atoms: C2_4  and  C3_5 
REMARK    4  A    between atoms: C10_16  and  N3_17 
REMARK    5  A    between atoms: N3_17  and  C11_18 
ROOT
HETATM    1  C3  UNL     1      26.369   2.076  52.779  1.00  0.00     0.173 C 
HETATM    2  C4  UNL     1      27.570   1.864  53.619  1.00  0.00     0.174 C 
HETATM    3  O2  UNL     1      28.267   2.667  54.255  1.00  0.00    -0.293 OA
HETATM    4  C5  UNL     1      27.963   0.430  53.675  1.00  0.00     0.258 C 
HETATM    5  O3  UNL     1      26.912  -0.257  54.329  1.00  0.00    -0.328 OA
HETATM    6  C6  UNL     1      25.590   0.001  54.006  1.00  0.00     0.153 A 
HETATM    7  C7  UNL     1      24.707  -0.856  54.445  1.00  0.00     0.087 A 
HETATM    8  C8  UNL     1      23.301  -0.676  54.162  1.00  0.00     0.055 A 
HETATM    9  C9  UNL     1      22.710   0.284  53.480  1.00  0.00     0.070 A 
HETATM   10  S1  UNL     1      23.705   1.587  52.772  1.00  0.00    -0.008 SA
HETATM   11  N2  UNL     1      25.351   1.164  53.238  1.00  0.00    -0.285 N 
HETATM   12  C10 UNL     1      21.293   0.449  53.206  1.00  0.00     0.251 A 
HETATM   13  N4  UNL     1      20.468  -0.600  53.775  1.00  0.00    -0.254 NA
HETATM   14  C17 UNL     1      20.965  -1.579  54.458  1.00  0.00     0.204 A 
HETATM   15  N5  UNL     1      22.373  -1.631  54.659  1.00  0.00    -0.350 N 
HETATM   16  H16 UNL     1      22.671  -2.458  55.221  1.00  0.00     0.166 HD
ENDROOT
BRANCH  12  17
HETATM   17  N3  UNL     1      21.088   0.379  51.772  1.00  0.00    -0.363 N 
HETATM   18  H10 UNL     1      21.514  -0.400  51.190  1.00  0.00     0.162 HD
BRANCH  17  19
HETATM   19  C11 UNL     1      20.317   1.339  51.079  1.00  0.00     0.032 A 
HETATM   20  C12 UNL     1      20.334   1.454  49.707  1.00  0.00     0.029 A 
HETATM   21  C13 UNL     1      19.609   2.368  48.979  1.00  0.00     0.005 A 
HETATM   22  C14 UNL     1      18.791   3.248  49.680  1.00  0.00     0.042 A 
HETATM   23  C15 UNL     1      18.720   3.195  51.076  1.00  0.00     0.118 A 
HETATM   24  F1  UNL     1      17.927   4.048  51.762  1.00  0.00    -0.206 F 
HETATM   25  C16 UNL     1      19.499   2.228  51.702  1.00  0.00     0.071 A 
ENDBRANCH  17  19
ENDBRANCH  12  17
BRANCH   1  26
HETATM   26  C2  UNL     1      26.657   1.912  51.302  1.00  0.00     0.058 C 
BRANCH  26  27
HETATM   27  C1  UNL     1      26.347   3.240  50.636  1.00  0.00     0.184 C 
BRANCH  27  28
HETATM   28  N1  UNL     1      26.908   3.344  49.318  1.00  0.00    -0.141 NA
HETATM   29  O1  UNL     1      27.524   4.322  49.056  1.00  0.00    -0.067 OA
ENDBRANCH  27  28
ENDBRANCH  26  27
ENDBRANCH   1  26
TORSDOF 5
ENDMDL
MODEL 4
REMARK VINA RESULT:      -8.0      3.691      6.900
REMARK  5 active torsions:
REMARK  status: ('A' for Active; 'I' for Inactive)
REMARK    1  A    between atoms: N1_2  and  C1_3 
REMARK    2  A    between atoms: C1_3  and  C2_4 
REMARK    3  A    between atoms: C2_4  and  C3_5 
REMARK    4  A    between atoms: C10_16  and  N3_17 
REMARK    5  A    between atoms: N3_17  and  C11_18 
ROOT
HETATM    1  C3  UNL     1      23.202   4.025  50.177  1.00  0.00     0.173 C 
HETATM    2  C4  UNL     1      22.079   4.726  49.515  1.00  0.00     0.174 C 
HETATM    3  O2  UNL     1      21.821   4.893  48.315  1.00  0.00    -0.293 OA
HETATM    4  C5  UNL     1      21.130   5.310  50.501  1.00  0.00     0.258 C 
HETATM    5  O3  UNL     1      20.545   4.225  51.199  1.00  0.00    -0.328 OA
HETATM    6  C6  UNL     1      21.326   3.174  51.652  1.00  0.00     0.153 A 
HETATM    7  C7  UNL     1      20.767   2.365  52.512  1.00  0.00     0.087 A 
HETATM    8  C8  UNL     1      21.498   1.237  53.045  1.00  0.00     0.055 A 
HETATM    9  C9  UNL     1      22.733   0.855  52.790  1.00  0.00     0.070 A 
HETATM   10  S1  UNL     1      23.715   1.801  51.637  1.00  0.00    -0.008 SA
HETATM   11  N2  UNL     1      22.638   3.099  51.128  1.00  0.00    -0.285 N 
HETATM   12  C10 UNL     1      23.451  -0.283  53.335  1.00  0.00     0.251 A 
HETATM   13  N4  UNL     1      22.668  -1.065  54.274  1.00  0.00    -0.254 NA
HETATM   14  C17 UNL     1      21.449  -0.762  54.581  1.00  0.00     0.204 A 
HETATM   15  N5  UNL     1      20.853   0.381  53.978  1.00  0.00    -0.350 N 
HETATM   16  H16 UNL     1      19.871   0.538  54.293  1.00  0.00     0.166 HD
ENDROOT
BRANCH  12  17
HETATM   17  N3  UNL     1      24.593   0.205  54.084  1.00  0.00    -0.363 N 
HETATM   18  H10 UNL     1      24.480   0.923  54.858  1.00  0.00     0.162 HD
BRANCH  17  19
HETATM   19  C11 UNL     1      25.907  -0.243  53.822  1.00  0.00     0.032 A 
HETATM   20  C12 UNL     1      26.182  -1.241  52.914  1.00  0.00     0.029 A 
HETATM   21  C13 UNL     1      27.437  -1.721  52.619  1.00  0.00     0.005 A 
HETATM   22  C14 UNL     1      28.518  -1.154  53.288  1.00  0.00     0.042 A 
HETATM   23  C15 UNL     1      28.319  -0.135  54.226  1.00  0.00     0.118 A 
HETATM   24  F1  UNL     1      29.366   0.419  54.879  1.00  0.00    -0.206 F 
HETATM   25  C16 UNL     1      27.005   0.266  54.440  1.00  0.00     0.071 A 
ENDBRANCH  17  19
ENDBRANCH  12  17
BRANCH   1  26
HETATM   26  C2  UNL     1      24.182   4.979  50.825  1.00  0.00     0.058 C 
BRANCH  26  27
HETATM   27  C1  UNL     1      25.326   5.178  49.848  1.00  0.00     0.184 C 
BRANCH  27  28
HETATM   28  N1  UNL     1      25.943   3.942  49.458  1.00  0.00    -0.141 NA
HETATM   29  O1  UNL     1      27.109   3.824  49.639  1.00  0.00    -0.067 OA
ENDBRANCH  27  28
ENDBRANCH  26  27
ENDBRANCH   1  26
TORSDOF 5
ENDMDL
MODEL 5
REMARK VINA RESULT:      -8.0      2.073      2.755
REMARK  5 active torsions:
REMARK  status: ('A' for Active; 'I' for Inactive)
REMARK    1  A    between atoms: N1_2  and  C1_3 
REMARK    2  A    between atoms: C1_3  and  C2_4 
REMARK    3  A    between atoms: C2_4  and  C3_5 
REMARK    4  A    between atoms: C10_16  and  N3_17 
REMARK    5  A    between atoms: N3_17  and  C11_18 
ROOT
HETATM    1  C3  UNL     1      25.967   1.212  53.640  1.00  0.00     0.173 C 
HETATM    2  C4  UNL     1      25.951   0.015  54.512  1.00  0.00     0.174 C 
HETATM    3  O2  UNL     1      26.415  -0.169  55.646  1.00  0.00    -0.293 OA
HETATM    4  C5  UNL     1      25.248  -1.129  53.872  1.00  0.00     0.258 C 
HETATM    5  O3  UNL     1      23.893  -0.746  53.724  1.00  0.00    -0.328 OA
HETATM    6  C6  UNL     1      23.563   0.515  53.252  1.00  0.00     0.153 A 
HETATM    7  C7  UNL     1      22.321   0.690  52.886  1.00  0.00     0.087 A 
HETATM    8  C8  UNL     1      21.877   1.969  52.380  1.00  0.00     0.055 A 
HETATM    9  C9  UNL     1      22.567   3.079  52.211  1.00  0.00     0.070 A 
HETATM   10  S1  UNL     1      24.300   3.098  52.641  1.00  0.00    -0.008 SA
HETATM   11  N2  UNL     1      24.610   1.464  53.223  1.00  0.00    -0.285 N 
HETATM   12  C10 UNL     1      22.102   4.356  51.701  1.00  0.00     0.251 A 
HETATM   13  N4  UNL     1      20.694   4.360  51.347  1.00  0.00    -0.254 NA
HETATM   14  C17 UNL     1      19.943   3.316  51.481  1.00  0.00     0.204 A 
HETATM   15  N5  UNL     1      20.517   2.119  51.993  1.00  0.00    -0.350 N 
HETATM   16  H16 UNL     1      19.828   1.338  52.061  1.00  0.00     0.166 HD
ENDROOT
BRANCH  12  17
HETATM   17  N3  UNL     1      22.818   4.654  50.475  1.00  0.00    -0.363 N 
HETATM   18  H10 UNL     1      22.741   4.025  49.624  1.00  0.00     0.162 HD
BRANCH  17  19
HETATM   19  C11 UNL     1      23.652   5.788  50.353  1.00  0.00     0.032 A 
HETATM   20  C12 UNL     1      23.239   7.053  50.704  1.00  0.00     0.029 A 
HETATM   21  C13 UNL     1      24.003   8.193  50.605  1.00  0.00     0.005 A 
HETATM   22  C14 UNL     1      25.298   8.061  50.114  1.00  0.00     0.042 A 
HETATM   23  C15 UNL     1      25.791   6.807  49.736  1.00  0.00     0.118 A 
HETATM   24  F1  UNL     1      27.049   6.673  49.258  1.00  0.00    -0.206 F 
HETATM   25  C16 UNL     1      24.926   5.729  49.881  1.00  0.00     0.071 A 
ENDBRANCH  17  19
ENDBRANCH  12  17
BRANCH   1  26
HETATM   26  C2  UNL     1      26.907   1.061  52.463  1.00  0.00     0.058 C 
BRANCH  26  27
HETATM   27  C1  UNL     1      28.316   1.273  52.985  1.00  0.00     0.184 C 
BRANCH  27  28
HETATM   28  N1  UNL     1      28.426   2.427  53.832  1.00  0.00    -0.141 NA
HETATM   29  O1  UNL     1      29.207   2.386  54.723  1.00  0.00    -0.067 OA
ENDBRANCH  27  28
ENDBRANCH  26  27
ENDBRANCH   1  26
TORSDOF 5
ENDMDL
MODEL 6
REMARK VINA RESULT:      -7.8      4.820      7.937
REMARK  5 active torsions:
REMARK  status: ('A' for Active; 'I' for Inactive)
REMARK    1  A    between atoms: N1_2  and  C1_3 
REMARK    2  A    between atoms: C1_3  and  C2_4 
REMARK    3  A    between atoms: C2_4  and  C3_5 
REMARK    4  A    between atoms: C10_16  and  N3_17 
REMARK    5  A    between atoms: N3_17  and  C11_18 
ROOT
HETATM    1  C3  UNL     1      28.541   6.747  47.567  1.00  0.00     0.173 C 
HETATM    2  C4  UNL     1      28.265   8.025  46.872  1.00  0.00     0.174 C 
HETATM    3  O2  UNL     1      28.269   8.310  45.666  1.00  0.00    -0.293 OA
HETATM    4  C5  UNL     1      27.934   9.116  47.827  1.00  0.00     0.258 C 
HETATM    5  O3  UNL     1      26.719   8.754  48.457  1.00  0.00    -0.328 OA
HETATM    6  C6  UNL     1      26.518   7.461  48.914  1.00  0.00     0.153 A 
HETATM    7  C7  UNL     1      25.504   7.281  49.718  1.00  0.00     0.087 A 
HETATM    8  C8  UNL     1      25.209   5.969  50.248  1.00  0.00     0.055 A 
HETATM    9  C9  UNL     1      25.842   4.831  50.044  1.00  0.00     0.070 A 
HETATM   10  S1  UNL     1      27.272   4.812  48.975  1.00  0.00    -0.008 SA
HETATM   11  N2  UNL     1      27.436   6.488  48.456  1.00  0.00    -0.285 N 
HETATM   12  C10 UNL     1      25.530   3.521  50.587  1.00  0.00     0.251 A 
HETATM   13  N4  UNL     1      24.369   3.517  51.457  1.00  0.00    -0.254 NA
HETATM   14  C17 UNL     1      23.691   4.587  51.712  1.00  0.00     0.204 A 
HETATM   15  N5  UNL     1      24.096   5.815  51.119  1.00  0.00    -0.350 N 
HETATM   16  H16 UNL     1      23.484   6.616  51.388  1.00  0.00     0.166 HD
ENDROOT
BRANCH  12  17
HETATM   17  N3  UNL     1      26.643   3.084  51.409  1.00  0.00    -0.363 N 
HETATM   18  H10 UNL     1      27.526   3.665  51.496  1.00  0.00     0.162 HD
BRANCH  17  19
HETATM   19  C11 UNL     1      26.608   1.869  52.129  1.00  0.00     0.032 A 
HETATM   20  C12 UNL     1      26.660   0.640  51.512  1.00  0.00     0.029 A 
HETATM   21  C13 UNL     1      26.628  -0.574  52.158  1.00  0.00     0.005 A 
HETATM   22  C14 UNL     1      26.537  -0.564  53.547  1.00  0.00     0.042 A 
HETATM   23  C15 UNL     1      26.480   0.647  54.246  1.00  0.00     0.118 A 
HETATM   24  F1  UNL     1      26.391   0.663  55.595  1.00  0.00    -0.206 F 
HETATM   25  C16 UNL     1      26.520   1.809  53.484  1.00  0.00     0.071 A 
ENDBRANCH  17  19
ENDBRANCH  12  17
BRANCH   1  26
HETATM   26  C2  UNL     1      29.868   6.756  48.295  1.00  0.00     0.058 C 
BRANCH  26  27
HETATM   27  C1  UNL     1      30.726   5.669  47.675  1.00  0.00     0.184 C 
BRANCH  27  28
HETATM   28  N1  UNL     1      31.478   4.931  48.651  1.00  0.00    -0.141 NA
HETATM   29  O1  UNL     1      31.483   5.335  49.765  1.00  0.00    -0.067 OA
ENDBRANCH  27  28
ENDBRANCH  26  27
ENDBRANCH   1  26
TORSDOF 5
ENDMDL
MODEL 7
REMARK VINA RESULT:      -7.8      3.475      6.113
REMARK  5 active torsions:
REMARK  status: ('A' for Active; 'I' for Inactive)
REMARK    1  A    between atoms: N1_2  and  C1_3 
REMARK    2  A    between atoms: C1_3  and  C2_4 
REMARK    3  A    between atoms: C2_4  and  C3_5 
REMARK    4  A    between atoms: C10_16  and  N3_17 
REMARK    5  A    between atoms: N3_17  and  C11_18 
ROOT
HETATM    1  C3  UNL     1      26.521  -0.379  53.802  1.00  0.00     0.173 C 
HETATM    2  C4  UNL     1      27.997  -0.485  53.790  1.00  0.00     0.174 C 
HETATM    3  O2  UNL     1      28.739  -1.468  53.653  1.00  0.00    -0.293 OA
HETATM    4  C5  UNL     1      28.652   0.838  53.976  1.00  0.00     0.258 C 
HETATM    5  O3  UNL     1      28.316   1.624  52.848  1.00  0.00    -0.328 OA
HETATM    6  C6  UNL     1      27.017   1.648  52.365  1.00  0.00     0.153 A 
HETATM    7  C7  UNL     1      26.733   2.594  51.510  1.00  0.00     0.087 A 
HETATM    8  C8  UNL     1      25.406   2.704  50.947  1.00  0.00     0.055 A 
HETATM    9  C9  UNL     1      24.347   1.952  51.168  1.00  0.00     0.070 A 
HETATM   10  S1  UNL     1      24.477   0.581  52.306  1.00  0.00    -0.008 SA
HETATM   11  N2  UNL     1      26.150   0.643  52.855  1.00  0.00    -0.285 N 
HETATM   12  C10 UNL     1      23.020   2.078  50.593  1.00  0.00     0.251 A 
HETATM   13  N4  UNL     1      22.896   3.187  49.664  1.00  0.00    -0.254 NA
HETATM   14  C17 UNL     1      23.884   3.974  49.389  1.00  0.00     0.204 A 
HETATM   15  N5  UNL     1      25.139   3.747  50.020  1.00  0.00    -0.350 N 
HETATM   16  H16 UNL     1      25.867   4.437  49.730  1.00  0.00     0.166 HD
ENDROOT
BRANCH  12  17
HETATM   17  N3  UNL     1      22.076   2.349  51.660  1.00  0.00    -0.363 N 
HETATM   18  H10 UNL     1      22.111   3.255  52.211  1.00  0.00     0.162 HD
BRANCH  17  19
HETATM   19  C11 UNL     1      21.070   1.425  52.020  1.00  0.00     0.032 A 
HETATM   20  C12 UNL     1      21.015   0.836  53.263  1.00  0.00     0.029 A 
HETATM   21  C13 UNL     1      20.063  -0.070  53.670  1.00  0.00     0.005 A 
HETATM   22  C14 UNL     1      19.074  -0.421  52.757  1.00  0.00     0.042 A 
HETATM   23  C15 UNL     1      19.062   0.135  51.473  1.00  0.00     0.118 A 
HETATM   24  F1  UNL     1      18.104  -0.203  50.581  1.00  0.00    -0.206 F 
HETATM   25  C16 UNL     1      20.076   1.039  51.177  1.00  0.00     0.071 A 
ENDBRANCH  17  19
ENDBRANCH  12  17
BRANCH   1  26
HETATM   26  C2  UNL     1      25.970  -0.101  55.184  1.00  0.00     0.058 C 
BRANCH  26  27
HETATM   27  C1  UNL     1      25.063  -1.262  55.547  1.00  0.00     0.184 C 
BRANCH  27  28
HETATM   28  N1  UNL     1      23.675  -0.974  55.320  1.00  0.00    -0.141 NA
HETATM   29  O1  UNL     1      22.880  -1.788  55.651  1.00  0.00    -0.067 OA
ENDBRANCH  27  28
ENDBRANCH  26  27
ENDBRANCH   1  26
TORSDOF 5
ENDMDL
MODEL 8
REMARK VINA RESULT:      -7.7      3.212      3.549
REMARK  5 active torsions:
REMARK  status: ('A' for Active; 'I' for Inactive)
REMARK    1  A    between atoms: N1_2  and  C1_3 
REMARK    2  A    between atoms: C1_3  and  C2_4 
REMARK    3  A    between atoms: C2_4  and  C3_5 
REMARK    4  A    between atoms: C10_16  and  N3_17 
REMARK    5  A    between atoms: N3_17  and  C11_18 
ROOT
HETATM    1  C3  UNL     1      25.964   1.296  53.631  1.00  0.00     0.173 C 
HETATM    2  C4  UNL     1      25.954   0.043  54.420  1.00  0.00     0.174 C 
HETATM    3  O2  UNL     1      26.396  -0.208  55.550  1.00  0.00    -0.293 OA
HETATM    4  C5  UNL     1      25.291  -1.070  53.688  1.00  0.00     0.258 C 
HETATM    5  O3  UNL     1      23.932  -0.705  53.532  1.00  0.00    -0.328 OA
HETATM    6  C6  UNL     1      23.585   0.578  53.138  1.00  0.00     0.153 A 
HETATM    7  C7  UNL     1      22.349   0.753  52.754  1.00  0.00     0.087 A 
HETATM    8  C8  UNL     1      21.888   2.054  52.325  1.00  0.00     0.055 A 
HETATM    9  C9  UNL     1      22.558   3.186  52.248  1.00  0.00     0.070 A 
HETATM   10  S1  UNL     1      24.280   3.211  52.720  1.00  0.00    -0.008 SA
HETATM   11  N2  UNL     1      24.612   1.548  53.198  1.00  0.00    -0.285 N 
HETATM   12  C10 UNL     1      22.077   4.486  51.814  1.00  0.00     0.251 A 
HETATM   13  N4  UNL     1      20.679   4.486  51.426  1.00  0.00    -0.254 NA
HETATM   14  C17 UNL     1      19.948   3.420  51.472  1.00  0.00     0.204 A 
HETATM   15  N5  UNL     1      20.535   2.202  51.916  1.00  0.00    -0.350 N 
HETATM   16  H16 UNL     1      19.862   1.405  51.915  1.00  0.00     0.166 HD
ENDROOT
BRANCH  12  17
HETATM   17  N3  UNL     1      22.815   4.880  50.629  1.00  0.00    -0.363 N 
HETATM   18  H10 UNL     1      23.615   5.576  50.683  1.00  0.00     0.162 HD
BRANCH  17  19
HETATM   19  C11 UNL     1      22.508   4.365  49.350  1.00  0.00     0.032 A 
HETATM   20  C12 UNL     1      22.776   3.063  48.992  1.00  0.00     0.029 A 
HETATM   21  C13 UNL     1      22.502   2.506  47.764  1.00  0.00     0.005 A 
HETATM   22  C14 UNL     1      21.906   3.319  46.805  1.00  0.00     0.042 A 
HETATM   23  C15 UNL     1      21.603   4.655  47.093  1.00  0.00     0.118 A 
HETATM   24  F1  UNL     1      21.025   5.449  46.165  1.00  0.00    -0.206 F 
HETATM   25  C16 UNL     1      21.927   5.105  48.368  1.00  0.00     0.071 A 
ENDBRANCH  17  19
ENDBRANCH  12  17
BRANCH   1  26
HETATM   26  C2  UNL     1      26.934   1.243  52.470  1.00  0.00     0.058 C 
BRANCH  26  27
HETATM   27  C1  UNL     1      28.328   1.419  53.042  1.00  0.00     0.184 C 
BRANCH  27  28
HETATM   28  N1  UNL     1      28.409   2.501  53.984  1.00  0.00    -0.141 NA
HETATM   29  O1  UNL     1      29.209   2.416  54.855  1.00  0.00    -0.067 OA
ENDBRANCH  27  28
ENDBRANCH  26  27
ENDBRANCH   1  26
TORSDOF 5
ENDMDL
MODEL 9
REMARK VINA RESULT:      -7.7      2.797      5.378
REMARK  5 active torsions:
REMARK  status: ('A' for Active; 'I' for Inactive)
REMARK    1  A    between atoms: N1_2  and  C1_3 
REMARK    2  A    between atoms: C1_3  and  C2_4 
REMARK    3  A    between atoms: C2_4  and  C3_5 
REMARK    4  A    between atoms: C10_16  and  N3_17 
REMARK    5  A    between atoms: N3_17  and  C11_18 
ROOT
HETATM    1  C3  UNL     1      25.416  -0.688  53.026  1.00  0.00     0.173 C 
HETATM    2  C4  UNL     1      26.741  -1.350  53.036  1.00  0.00     0.174 C 
HETATM    3  O2  UNL     1      27.084  -2.483  52.671  1.00  0.00    -0.293 OA
HETATM    4  C5  UNL     1      27.802  -0.464  53.585  1.00  0.00     0.258 C 
HETATM    5  O3  UNL     1      27.927   0.628  52.692  1.00  0.00    -0.328 OA
HETATM    6  C6  UNL     1      26.801   1.261  52.189  1.00  0.00     0.153 A 
HETATM    7  C7  UNL     1      26.997   2.412  51.603  1.00  0.00     0.087 A 
HETATM    8  C8  UNL     1      25.888   3.152  51.045  1.00  0.00     0.055 A 
HETATM    9  C9  UNL     1      24.608   2.838  51.025  1.00  0.00     0.070 A 
HETATM   10  S1  UNL     1      24.079   1.302  51.767  1.00  0.00    -0.008 SA
HETATM   11  N2  UNL     1      25.572   0.586  52.368  1.00  0.00    -0.285 N 
HETATM   12  C10 UNL     1      23.507   3.596  50.459  1.00  0.00     0.251 A 
HETATM   13  N4  UNL     1      23.918   4.847  49.850  1.00  0.00    -0.254 NA
HETATM   14  C17 UNL     1      25.152   5.233  49.825  1.00  0.00     0.204 A 
HETATM   15  N5  UNL     1      26.144   4.401  50.416  1.00  0.00    -0.350 N 
HETATM   16  H16 UNL     1      27.104   4.803  50.342  1.00  0.00     0.166 HD
ENDROOT
BRANCH  12  17
HETATM   17  N3  UNL     1      22.594   3.956  51.527  1.00  0.00    -0.363 N 
HETATM   18  H10 UNL     1      22.945   4.395  52.428  1.00  0.00     0.162 HD
BRANCH  17  19
HETATM   19  C11 UNL     1      21.202   3.742  51.426  1.00  0.00     0.032 A 
HETATM   20  C12 UNL     1      20.575   2.658  51.999  1.00  0.00     0.029 A 
HETATM   21  C13 UNL     1      19.226   2.396  51.933  1.00  0.00     0.005 A 
HETATM   22  C14 UNL     1      18.428   3.294  51.233  1.00  0.00     0.042 A 
HETATM   23  C15 UNL     1      18.991   4.420  50.622  1.00  0.00     0.118 A 
HETATM   24  F1  UNL     1      18.220   5.297  49.940  1.00  0.00    -0.206 F 
HETATM   25  C16 UNL     1      20.365   4.580  50.757  1.00  0.00     0.071 A 
ENDBRANCH  17  19
ENDBRANCH  12  17
BRANCH   1  26
HETATM   26  C2  UNL     1      24.828  -0.545  54.413  1.00  0.00     0.058 C 
BRANCH  26  27
HETATM   27  C1  UNL     1      23.330  -0.743  54.287  1.00  0.00     0.184 C 
BRANCH  27  28
HETATM   28  N1  UNL     1      22.783  -1.539  55.350  1.00  0.00    -0.141 NA
HETATM   29  O1  UNL     1      21.679  -1.951  55.220  1.00  0.00    -0.067 OA
ENDBRANCH  27  28
ENDBRANCH  26  27
ENDBRANCH   1  26
TORSDOF 5
ENDMDL
