MODEL 1
REMARK VINA RESULT:      -8.0      0.000      0.000
REMARK  4 active torsions:
REMARK  status: ('A' for Active; 'I' for Inactive)
REMARK    1  A    between atoms: C3_3  and  C4_4 
REMARK    2  A    between atoms: C5_5  and  C6_6 
REMARK    3  A    between atoms: C9_9  and  C10_10 
REMARK    4  A    between atoms: C10_10  and  N1_11 
ROOT
HETATM    1  C1  UNL     1      24.056   3.276  52.491  1.00  0.00     0.020 C 
HETATM    2  C2  UNL     1      23.964   2.190  51.451  1.00  0.00     0.058 A 
HETATM    3  C3  UNL     1      23.786   2.763  50.106  1.00  0.00     0.019 A 
HETATM    4  C15 UNL     1      22.803   2.523  49.268  1.00  0.00     0.105 A 
HETATM    5  N2  UNL     1      21.812   1.608  49.726  1.00  0.00    -0.365 N 
HETATM    6  C16 UNL     1      21.850   0.975  51.000  1.00  0.00     0.036 A 
HETATM    7  C17 UNL     1      22.874   1.254  51.818  1.00  0.00    -0.022 A 
HETATM    8  C18 UNL     1      22.713   0.493  53.074  1.00  0.00     0.137 A 
HETATM    9 CL1  UNL     1      24.090  -0.580  53.394  1.00  0.00    -0.116 Cl
HETATM   10  C19 UNL     1      21.451  -0.260  52.858  1.00  0.00     0.000 A 
HETATM   11  C20 UNL     1      20.942   0.013  51.655  1.00  0.00     0.027 A 
HETATM   12  H18 UNL     1      21.015   1.400  49.073  1.00  0.00     0.165 HD
ENDROOT
BRANCH   3  13
HETATM   13  C4  UNL     1      24.811   3.681  49.689  1.00  0.00    -0.064 C 
HETATM   14  C5  UNL     1      25.679   4.479  49.348  1.00  0.00    -0.062 C 
BRANCH  14  15
HETATM   15  C6  UNL     1      26.712   5.402  48.961  1.00  0.00     0.018 A 
HETATM   16  C7  UNL     1      27.916   4.829  48.588  1.00  0.00     0.021 A 
HETATM   17  C8  UNL     1      28.933   5.683  48.210  1.00  0.00     0.010 A 
HETATM   18  C9  UNL     1      28.742   7.069  48.209  1.00  0.00    -0.030 A 
HETATM   19  C13 UNL     1      27.526   7.599  48.588  1.00  0.00     0.010 A 
HETATM   20  C14 UNL     1      26.495   6.768  48.969  1.00  0.00     0.021 A 
BRANCH  18  21
HETATM   21  C10 UNL     1      29.933   7.881  47.774  1.00  0.00     0.309 C 
BRANCH  21  22
HETATM   22  N1  UNL     1      30.499   8.493  48.957  1.00  0.00     0.084 N 
HETATM   23  C11 UNL     1      31.702   7.880  49.409  1.00  0.00     0.309 C 
HETATM   24  C12 UNL     1      30.484   9.917  48.925  1.00  0.00     0.309 C 
ENDBRANCH  21  22
ENDBRANCH  18  21
ENDBRANCH  14  15
ENDBRANCH   3  13
TORSDOF 4
ENDMDL
MODEL 2
REMARK VINA RESULT:      -7.7      2.049      3.030
REMARK  4 active torsions:
REMARK  status: ('A' for Active; 'I' for Inactive)
REMARK    1  A    between atoms: C3_3  and  C4_4 
REMARK    2  A    between atoms: C5_5  and  C6_6 
REMARK    3  A    between atoms: C9_9  and  C10_10 
REMARK    4  A    between atoms: C10_10  and  N1_11 
ROOT
HETATM    1  C1  UNL     1      22.442   1.049  50.829  1.00  0.00     0.020 C 
HETATM    2  C2  UNL     1      22.966   1.217  52.231  1.00  0.00     0.058 A 
HETATM    3  C3  UNL     1      24.438   1.288  52.237  1.00  0.00     0.019 A 
HETATM    4  C15 UNL     1      25.264   0.505  52.893  1.00  0.00     0.105 A 
HETATM    5  N2  UNL     1      24.656  -0.516  53.677  1.00  0.00    -0.365 N 
HETATM    6  C16 UNL     1      23.249  -0.708  53.769  1.00  0.00     0.036 A 
HETATM    7  C17 UNL     1      22.448   0.117  53.081  1.00  0.00    -0.022 A 
HETATM    8  C18 UNL     1      21.040  -0.261  53.321  1.00  0.00     0.137 A 
HETATM    9 CL1  UNL     1      20.096   1.069  54.021  1.00  0.00    -0.116 Cl
HETATM   10  C19 UNL     1      21.150  -1.419  54.244  1.00  0.00     0.000 A 
HETATM   11  C20 UNL     1      22.430  -1.687  54.511  1.00  0.00     0.027 A 
HETATM   12  H18 UNL     1      25.297  -1.155  54.211  1.00  0.00     0.165 HD
ENDROOT
BRANCH   3  13
HETATM   13  C4  UNL     1      25.004   2.335  51.431  1.00  0.00    -0.064 C 
HETATM   14  C5  UNL     1      25.468   3.233  50.735  1.00  0.00    -0.062 C 
BRANCH  14  15
HETATM   15  C6  UNL     1      26.012   4.300  49.938  1.00  0.00     0.018 A 
HETATM   16  C7  UNL     1      25.300   5.488  49.964  1.00  0.00     0.021 A 
HETATM   17  C8  UNL     1      25.791   6.535  49.211  1.00  0.00     0.010 A 
HETATM   18  C9  UNL     1      26.960   6.390  48.457  1.00  0.00    -0.030 A 
HETATM   19  C13 UNL     1      27.640   5.190  48.459  1.00  0.00     0.010 A 
HETATM   20  C14 UNL     1      27.170   4.128  49.202  1.00  0.00     0.021 A 
BRANCH  18  21
HETATM   21  C10 UNL     1      27.382   7.613  47.684  1.00  0.00     0.309 C 
BRANCH  21  22
HETATM   22  N1  UNL     1      27.621   8.672  48.640  1.00  0.00     0.084 N 
HETATM   23  C11 UNL     1      28.980   8.788  49.050  1.00  0.00     0.309 C 
HETATM   24  C12 UNL     1      26.946   9.886  48.327  1.00  0.00     0.309 C 
ENDBRANCH  21  22
ENDBRANCH  18  21
ENDBRANCH  14  15
ENDBRANCH   3  13
TORSDOF 4
ENDMDL
MODEL 3
REMARK VINA RESULT:      -7.6      1.713      2.111
REMARK  4 active torsions:
REMARK  status: ('A' for Active; 'I' for Inactive)
REMARK    1  A    between atoms: C3_3  and  C4_4 
REMARK    2  A    between atoms: C5_5  and  C6_6 
REMARK    3  A    between atoms: C9_9  and  C10_10 
REMARK    4  A    between atoms: C10_10  and  N1_11 
ROOT
HETATM    1  C1  UNL     1      22.684   2.068  49.720  1.00  0.00     0.020 C 
HETATM    2  C2  UNL     1      23.131   2.215  51.151  1.00  0.00     0.058 A 
HETATM    3  C3  UNL     1      24.600   2.201  51.247  1.00  0.00     0.019 A 
HETATM    4  C15 UNL     1      25.339   1.377  51.955  1.00  0.00     0.105 A 
HETATM    5  N2  UNL     1      24.626   0.398  52.704  1.00  0.00    -0.365 N 
HETATM    6  C16 UNL     1      23.207   0.288  52.710  1.00  0.00     0.036 A 
HETATM    7  C17 UNL     1      22.499   1.153  51.971  1.00  0.00    -0.022 A 
HETATM    8  C18 UNL     1      21.059   0.859  52.126  1.00  0.00     0.137 A 
HETATM    9 CL1  UNL     1      20.152   2.246  52.761  1.00  0.00    -0.116 Cl
HETATM   10  C19 UNL     1      21.045  -0.297  53.058  1.00  0.00     0.000 A 
HETATM   11  C20 UNL     1      22.288  -0.636  53.404  1.00  0.00     0.027 A 
HETATM   12  H18 UNL     1      25.195  -0.273  53.278  1.00  0.00     0.165 HD
ENDROOT
BRANCH   3  13
HETATM   13  C4  UNL     1      25.275   3.209  50.473  1.00  0.00    -0.064 C 
HETATM   14  C5  UNL     1      25.838   4.083  49.822  1.00  0.00    -0.062 C 
BRANCH  14  15
HETATM   15  C6  UNL     1      26.516   5.108  49.074  1.00  0.00     0.018 A 
HETATM   16  C7  UNL     1      27.846   4.855  48.784  1.00  0.00     0.021 A 
HETATM   17  C8  UNL     1      28.530   5.816  48.068  1.00  0.00     0.010 A 
HETATM   18  C9  UNL     1      27.895   6.992  47.657  1.00  0.00    -0.030 A 
HETATM   19  C13 UNL     1      26.568   7.206  47.966  1.00  0.00     0.010 A 
HETATM   20  C14 UNL     1      25.862   6.262  48.681  1.00  0.00     0.021 A 
BRANCH  18  21
HETATM   21  C10 UNL     1      28.760   7.953  46.883  1.00  0.00     0.309 C 
BRANCH  21  22
HETATM   22  N1  UNL     1      29.892   8.291  47.718  1.00  0.00     0.084 N 
HETATM   23  C11 UNL     1      31.129   8.368  47.016  1.00  0.00     0.309 C 
HETATM   24  C12 UNL     1      29.624   9.334  48.649  1.00  0.00     0.309 C 
ENDBRANCH  21  22
ENDBRANCH  18  21
ENDBRANCH  14  15
ENDBRANCH   3  13
TORSDOF 4
ENDMDL
MODEL 4
REMARK VINA RESULT:      -7.5      5.512     10.732
REMARK  4 active torsions:
REMARK  status: ('A' for Active; 'I' for Inactive)
REMARK    1  A    between atoms: C3_3  and  C4_4 
REMARK    2  A    between atoms: C5_5  and  C6_6 
REMARK    3  A    between atoms: C9_9  and  C10_10 
REMARK    4  A    between atoms: C10_10  and  N1_11 
ROOT
HETATM    1  C1  UNL     1      23.543   2.399  53.050  1.00  0.00     0.020 C 
HETATM    2  C2  UNL     1      24.237   1.093  52.763  1.00  0.00     0.058 A 
HETATM    3  C3  UNL     1      23.603  -0.013  53.501  1.00  0.00     0.019 A 
HETATM    4  C15 UNL     1      24.181  -0.829  54.353  1.00  0.00     0.105 A 
HETATM    5  N2  UNL     1      25.569  -0.606  54.575  1.00  0.00    -0.365 N 
HETATM    6  C16 UNL     1      26.316   0.423  53.936  1.00  0.00     0.036 A 
HETATM    7  C17 UNL     1      25.680   1.229  53.075  1.00  0.00    -0.022 A 
HETATM    8  C18 UNL     1      26.640   2.215  52.534  1.00  0.00     0.137 A 
HETATM    9 CL1  UNL     1      26.767   2.129  50.766  1.00  0.00    -0.116 Cl
HETATM   10  C19 UNL     1      27.913   1.857  53.208  1.00  0.00     0.000 A 
HETATM   11  C20 UNL     1      27.737   0.817  54.025  1.00  0.00     0.027 A 
HETATM   12  H18 UNL     1      26.054  -1.246  55.254  1.00  0.00     0.165 HD
ENDROOT
BRANCH   3  13
HETATM   13  C4  UNL     1      22.201  -0.198  53.242  1.00  0.00    -0.064 C 
HETATM   14  C5  UNL     1      21.006  -0.344  53.003  1.00  0.00    -0.062 C 
BRANCH  14  15
HETATM   15  C6  UNL     1      19.610  -0.538  52.715  1.00  0.00     0.018 A 
HETATM   16  C7  UNL     1      19.129   0.139  51.606  1.00  0.00     0.021 A 
HETATM   17  C8  UNL     1      17.793  -0.022  51.298  1.00  0.00     0.010 A 
HETATM   18  C9  UNL     1      16.970  -0.838  52.081  1.00  0.00    -0.030 A 
HETATM   19  C13 UNL     1      17.488  -1.495  53.177  1.00  0.00     0.010 A 
HETATM   20  C14 UNL     1      18.819  -1.351  53.507  1.00  0.00     0.021 A 
BRANCH  18  21
HETATM   21  C10 UNL     1      15.535  -0.923  51.630  1.00  0.00     0.309 C 
BRANCH  21  22
HETATM   22  N1  UNL     1      14.964   0.402  51.739  1.00  0.00     0.084 N 
HETATM   23  C11 UNL     1      14.170   0.786  50.620  1.00  0.00     0.309 C 
HETATM   24  C12 UNL     1      14.427   0.688  53.027  1.00  0.00     0.309 C 
ENDBRANCH  21  22
ENDBRANCH  18  21
ENDBRANCH  14  15
ENDBRANCH   3  13
TORSDOF 4
ENDMDL
MODEL 5
REMARK VINA RESULT:      -7.4      6.229      9.994
REMARK  4 active torsions:
REMARK  status: ('A' for Active; 'I' for Inactive)
REMARK    1  A    between atoms: C3_3  and  C4_4 
REMARK    2  A    between atoms: C5_5  and  C6_6 
REMARK    3  A    between atoms: C9_9  and  C10_10 
REMARK    4  A    between atoms: C10_10  and  N1_11 
ROOT
HETATM    1  C1  UNL     1      26.413  -0.677  51.461  1.00  0.00     0.020 C 
HETATM    2  C2  UNL     1      26.539  -0.640  52.962  1.00  0.00     0.058 A 
HETATM    3  C3  UNL     1      25.661   0.393  53.538  1.00  0.00     0.019 A 
HETATM    4  C15 UNL     1      26.020   1.403  54.296  1.00  0.00     0.105 A 
HETATM    5  N2  UNL     1      27.412   1.494  54.584  1.00  0.00    -0.365 N 
HETATM    6  C16 UNL     1      28.380   0.572  54.098  1.00  0.00     0.036 A 
HETATM    7  C17 UNL     1      27.963  -0.442  53.328  1.00  0.00    -0.022 A 
HETATM    8  C18 UNL     1      29.125  -1.268  52.941  1.00  0.00     0.137 A 
HETATM    9 CL1  UNL     1      28.958  -2.955  53.468  1.00  0.00    -0.116 Cl
HETATM   10  C19 UNL     1      30.266  -0.583  53.600  1.00  0.00     0.000 A 
HETATM   11  C20 UNL     1      29.844   0.487  54.275  1.00  0.00     0.027 A 
HETATM   12  H18 UNL     1      27.724   2.295  55.189  1.00  0.00     0.165 HD
ENDROOT
BRANCH   3  13
HETATM   13  C4  UNL     1      24.265   0.257  53.220  1.00  0.00    -0.064 C 
HETATM   14  C5  UNL     1      23.070   0.133  52.968  1.00  0.00    -0.062 C 
BRANCH  14  15
HETATM   15  C6  UNL     1      21.666   0.012  52.676  1.00  0.00     0.018 A 
HETATM   16  C7  UNL     1      20.899  -0.575  53.668  1.00  0.00     0.021 A 
HETATM   17  C8  UNL     1      19.547  -0.709  53.425  1.00  0.00     0.010 A 
HETATM   18  C9  UNL     1      18.987  -0.267  52.222  1.00  0.00    -0.030 A 
HETATM   19  C13 UNL     1      19.787   0.313  51.259  1.00  0.00     0.010 A 
HETATM   20  C14 UNL     1      21.140   0.458  51.478  1.00  0.00     0.021 A 
BRANCH  18  21
HETATM   21  C10 UNL     1      17.501  -0.475  52.090  1.00  0.00     0.309 C 
BRANCH  21  22
HETATM   22  N1  UNL     1      17.034   0.380  51.021  1.00  0.00     0.084 N 
HETATM   23  C11 UNL     1      16.480  -0.324  49.914  1.00  0.00     0.309 C 
HETATM   24  C12 UNL     1      16.312   1.520  51.475  1.00  0.00     0.309 C 
ENDBRANCH  21  22
ENDBRANCH  18  21
ENDBRANCH  14  15
ENDBRANCH   3  13
TORSDOF 4
ENDMDL
MODEL 6
REMARK VINA RESULT:      -7.4      6.277      8.640
REMARK  4 active torsions:
REMARK  status: ('A' for Active; 'I' for Inactive)
REMARK    1  A    between atoms: C3_3  and  C4_4 
REMARK    2  A    between atoms: C5_5  and  C6_6 
REMARK    3  A    between atoms: C9_9  and  C10_10 
REMARK    4  A    between atoms: C10_10  and  N1_11 
ROOT
HETATM    1  C1  UNL     1      18.700   0.080  51.072  1.00  0.00     0.020 C 
HETATM    2  C2  UNL     1      17.969  -0.113  52.375  1.00  0.00     0.058 A 
HETATM    3  C3  UNL     1      18.598  -1.176  53.179  1.00  0.00     0.019 A 
HETATM    4  C15 UNL     1      18.025  -2.267  53.633  1.00  0.00     0.105 A 
HETATM    5  N2  UNL     1      16.649  -2.424  53.305  1.00  0.00    -0.365 N 
HETATM    6  C16 UNL     1      15.908  -1.482  52.537  1.00  0.00     0.036 A 
HETATM    7  C17 UNL     1      16.538  -0.385  52.097  1.00  0.00    -0.022 A 
HETATM    8  C18 UNL     1      15.587   0.446  51.329  1.00  0.00     0.137 A 
HETATM    9 CL1  UNL     1      15.409   2.073  52.014  1.00  0.00    -0.116 Cl
HETATM   10  C19 UNL     1      14.324  -0.333  51.394  1.00  0.00     0.000 A 
HETATM   11  C20 UNL     1      14.500  -1.455  52.094  1.00  0.00     0.027 A 
HETATM   12  H18 UNL     1      16.168  -3.290  53.658  1.00  0.00     0.165 HD
ENDROOT
BRANCH   3  13
HETATM   13  C4  UNL     1      19.988  -0.972  53.484  1.00  0.00    -0.064 C 
HETATM   14  C5  UNL     1      21.172  -0.806  53.764  1.00  0.00    -0.062 C 
BRANCH  14  15
HETATM   15  C6  UNL     1      22.564  -0.631  54.080  1.00  0.00     0.018 A 
HETATM   16  C7  UNL     1      23.261   0.234  53.252  1.00  0.00     0.021 A 
HETATM   17  C8  UNL     1      24.600   0.427  53.524  1.00  0.00     0.010 A 
HETATM   18  C9  UNL     1      25.217  -0.229  54.594  1.00  0.00    -0.030 A 
HETATM   19  C13 UNL     1      24.486  -1.083  55.395  1.00  0.00     0.010 A 
HETATM   20  C14 UNL     1      23.148  -1.293  55.145  1.00  0.00     0.021 A 
BRANCH  18  21
HETATM   21  C10 UNL     1      26.681   0.074  54.776  1.00  0.00     0.309 C 
BRANCH  21  22
HETATM   22  N1  UNL     1      27.292   0.078  53.465  1.00  0.00     0.084 N 
HETATM   23  C11 UNL     1      28.156   1.185  53.230  1.00  0.00     0.309 C 
HETATM   24  C12 UNL     1      27.769  -1.199  53.053  1.00  0.00     0.309 C 
ENDBRANCH  21  22
ENDBRANCH  18  21
ENDBRANCH  14  15
ENDBRANCH   3  13
TORSDOF 4
ENDMDL
MODEL 7
REMARK VINA RESULT:      -7.4      2.097      2.816
REMARK  4 active torsions:
REMARK  status: ('A' for Active; 'I' for Inactive)
REMARK    1  A    between atoms: C3_3  and  C4_4 
REMARK    2  A    between atoms: C5_5  and  C6_6 
REMARK    3  A    between atoms: C9_9  and  C10_10 
REMARK    4  A    between atoms: C10_10  and  N1_11 
ROOT
HETATM    1  C1  UNL     1      23.743   3.051  49.164  1.00  0.00     0.020 C 
HETATM    2  C2  UNL     1      24.264   3.108  50.576  1.00  0.00     0.058 A 
HETATM    3  C3  UNL     1      25.727   2.934  50.604  1.00  0.00     0.019 A 
HETATM    4  C15 UNL     1      26.401   2.015  51.257  1.00  0.00     0.105 A 
HETATM    5  N2  UNL     1      25.619   1.097  52.014  1.00  0.00    -0.365 N 
HETATM    6  C16 UNL     1      24.198   1.140  52.083  1.00  0.00     0.036 A 
HETATM    7  C17 UNL     1      23.557   2.097  51.399  1.00  0.00    -0.022 A 
HETATM    8  C18 UNL     1      22.102   1.954  51.612  1.00  0.00     0.137 A 
HETATM    9 CL1  UNL     1      21.379   3.411  52.322  1.00  0.00    -0.116 Cl
HETATM   10  C19 UNL     1      22.003   0.780  52.516  1.00  0.00     0.000 A 
HETATM   11  C20 UNL     1      23.216   0.299  52.796  1.00  0.00     0.027 A 
HETATM   12  H18 UNL     1      26.137   0.353  52.545  1.00  0.00     0.165 HD
ENDROOT
BRANCH   3  13
HETATM   13  C4  UNL     1      26.472   3.885  49.824  1.00  0.00    -0.064 C 
HETATM   14  C5  UNL     1      27.106   4.711  49.175  1.00  0.00    -0.062 C 
BRANCH  14  15
HETATM   15  C6  UNL     1      27.869   5.669  48.420  1.00  0.00     0.018 A 
HETATM   16  C7  UNL     1      27.170   6.784  47.990  1.00  0.00     0.021 A 
HETATM   17  C8  UNL     1      27.869   7.726  47.262  1.00  0.00     0.010 A 
HETATM   18  C9  UNL     1      29.227   7.549  46.977  1.00  0.00    -0.030 A 
HETATM   19  C13 UNL     1      29.886   6.423  47.424  1.00  0.00     0.010 A 
HETATM   20  C14 UNL     1      29.211   5.468  48.153  1.00  0.00     0.021 A 
BRANCH  18  21
HETATM   21  C10 UNL     1      29.865   8.654  46.175  1.00  0.00     0.309 C 
BRANCH  21  22
HETATM   22  N1  UNL     1      31.239   8.275  45.926  1.00  0.00     0.084 N 
HETATM   23  C11 UNL     1      31.511   7.941  44.569  1.00  0.00     0.309 C 
HETATM   24  C12 UNL     1      32.188   9.112  46.578  1.00  0.00     0.309 C 
ENDBRANCH  21  22
ENDBRANCH  18  21
ENDBRANCH  14  15
ENDBRANCH   3  13
TORSDOF 4
ENDMDL
MODEL 8
REMARK VINA RESULT:      -7.2      3.011      9.383
REMARK  4 active torsions:
REMARK  status: ('A' for Active; 'I' for Inactive)
REMARK    1  A    between atoms: C3_3  and  C4_4 
REMARK    2  A    between atoms: C5_5  and  C6_6 
REMARK    3  A    between atoms: C9_9  and  C10_10 
REMARK    4  A    between atoms: C10_10  and  N1_11 
ROOT
HETATM    1  C1  UNL     1      25.679   7.120  49.880  1.00  0.00     0.020 C 
HETATM    2  C2  UNL     1      26.188   6.473  48.618  1.00  0.00     0.058 A 
HETATM    3  C3  UNL     1      26.779   5.155  48.905  1.00  0.00     0.019 A 
HETATM    4  C15 UNL     1      28.001   4.760  48.631  1.00  0.00     0.105 A 
HETATM    5  N2  UNL     1      28.831   5.723  47.989  1.00  0.00    -0.365 N 
HETATM    6  C16 UNL     1      28.401   7.036  47.651  1.00  0.00     0.036 A 
HETATM    7  C17 UNL     1      27.143   7.390  47.950  1.00  0.00    -0.022 A 
HETATM    8  C18 UNL     1      26.914   8.783  47.512  1.00  0.00     0.137 A 
HETATM    9 CL1  UNL     1      25.581   8.911  46.348  1.00  0.00    -0.116 Cl
HETATM   10  C19 UNL     1      28.218   9.174  46.920  1.00  0.00     0.000 A 
HETATM   11  C20 UNL     1      29.089   8.166  46.995  1.00  0.00     0.027 A 
HETATM   12  H18 UNL     1      29.815   5.430  47.761  1.00  0.00     0.165 HD
ENDROOT
BRANCH   3  13
HETATM   13  C4  UNL     1      25.901   4.218  49.553  1.00  0.00    -0.064 C 
HETATM   14  C5  UNL     1      25.139   3.434  50.110  1.00  0.00    -0.062 C 
BRANCH  14  15
HETATM   15  C6  UNL     1      24.238   2.508  50.742  1.00  0.00     0.018 A 
HETATM   16  C7  UNL     1      23.030   2.313  50.093  1.00  0.00     0.021 A 
HETATM   17  C8  UNL     1      22.139   1.431  50.670  1.00  0.00     0.010 A 
HETATM   18  C9  UNL     1      22.453   0.769  51.861  1.00  0.00    -0.030 A 
HETATM   19  C13 UNL     1      23.668   0.992  52.476  1.00  0.00     0.010 A 
HETATM   20  C14 UNL     1      24.576   1.867  51.921  1.00  0.00     0.021 A 
BRANCH  18  21
HETATM   21  C10 UNL     1      21.389  -0.164  52.378  1.00  0.00     0.309 C 
BRANCH  21  22
HETATM   22  N1  UNL     1      21.625  -0.353  53.793  1.00  0.00     0.084 N 
HETATM   23  C11 UNL     1      20.781   0.432  54.631  1.00  0.00     0.309 C 
HETATM   24  C12 UNL     1      21.801  -1.716  54.166  1.00  0.00     0.309 C 
ENDBRANCH  21  22
ENDBRANCH  18  21
ENDBRANCH  14  15
ENDBRANCH   3  13
TORSDOF 4
ENDMDL
MODEL 9
REMARK VINA RESULT:      -7.0      6.863      9.659
REMARK  4 active torsions:
REMARK  status: ('A' for Active; 'I' for Inactive)
REMARK    1  A    between atoms: C3_3  and  C4_4 
REMARK    2  A    between atoms: C5_5  and  C6_6 
REMARK    3  A    between atoms: C9_9  and  C10_10 
REMARK    4  A    between atoms: C10_10  and  N1_11 
ROOT
HETATM    1  C1  UNL     1      17.071  -3.625  53.715  1.00  0.00     0.020 C 
HETATM    2  C2  UNL     1      16.477  -2.798  52.605  1.00  0.00     0.058 A 
HETATM    3  C3  UNL     1      16.769  -1.368  52.800  1.00  0.00     0.019 A 
HETATM    4  C15 UNL     1      15.899  -0.389  52.896  1.00  0.00     0.105 A 
HETATM    5  N2  UNL     1      14.530  -0.768  52.797  1.00  0.00    -0.365 N 
HETATM    6  C16 UNL     1      14.094  -2.110  52.609  1.00  0.00     0.036 A 
HETATM    7  C17 UNL     1      15.022  -3.073  52.517  1.00  0.00    -0.022 A 
HETATM    8  C18 UNL     1      14.351  -4.375  52.325  1.00  0.00     0.137 A 
HETATM    9 CL1  UNL     1      14.853  -5.175  50.822  1.00  0.00    -0.116 Cl
HETATM   10  C19 UNL     1      12.910  -4.020  52.319  1.00  0.00     0.000 A 
HETATM   11  C20 UNL     1      12.749  -2.706  52.482  1.00  0.00     0.027 A 
HETATM   12  H18 UNL     1      13.815  -0.002  52.871  1.00  0.00     0.165 HD
ENDROOT
BRANCH   3  13
HETATM   13  C4  UNL     1      18.165  -1.035  52.893  1.00  0.00    -0.064 C 
HETATM   14  C5  UNL     1      19.351  -0.734  52.985  1.00  0.00    -0.062 C 
BRANCH  14  15
HETATM   15  C6  UNL     1      20.745  -0.398  53.108  1.00  0.00     0.018 A 
HETATM   16  C7  UNL     1      21.244   0.448  52.133  1.00  0.00     0.021 A 
HETATM   17  C8  UNL     1      22.578   0.793  52.218  1.00  0.00     0.010 A 
HETATM   18  C9  UNL     1      23.382   0.301  53.252  1.00  0.00    -0.030 A 
HETATM   19  C13 UNL     1      22.845  -0.540  54.204  1.00  0.00     0.010 A 
HETATM   20  C14 UNL     1      21.516  -0.900  54.142  1.00  0.00     0.021 A 
BRANCH  18  21
HETATM   21  C10 UNL     1      24.817   0.758  53.223  1.00  0.00     0.309 C 
BRANCH  21  22
HETATM   22  N1  UNL     1      25.622  -0.297  53.798  1.00  0.00     0.084 N 
HETATM   23  C11 UNL     1      26.274  -1.119  52.834  1.00  0.00     0.309 C 
HETATM   24  C12 UNL     1      26.406   0.123  54.909  1.00  0.00     0.309 C 
ENDBRANCH  21  22
ENDBRANCH  18  21
ENDBRANCH  14  15
ENDBRANCH   3  13
TORSDOF 4
ENDMDL
