MODEL 1
REMARK VINA RESULT:      -8.8      0.000      0.000
REMARK  3 active torsions:
REMARK  status: ('A' for Active; 'I' for Inactive)
REMARK    1  A    between atoms: C3_3  and  O1_4 
REMARK    2  A    between atoms: O1_4  and  C4_5 
REMARK    3  A    between atoms: C7_8  and  O2_9 
ROOT
HETATM    1  C1  UNL     1      29.841  -1.166  53.701  1.00  0.00     0.014 C 
HETATM    2  C2  UNL     1      29.297  -0.143  53.558  1.00  0.00    -0.091 C 
HETATM    3  C3  UNL     1      28.611   1.140  53.355  1.00  0.00     0.268 C 
ENDROOT
BRANCH   3   4
HETATM    4  O1  UNL     1      27.897   1.132  52.185  1.00  0.00    -0.339 OA
BRANCH   4   5
HETATM    5  C4  UNL     1      26.647   1.540  51.864  1.00  0.00     0.075 A 
HETATM    6  C5  UNL     1      26.598   2.714  51.223  1.00  0.00     0.052 A 
HETATM    7  C6  UNL     1      25.563   3.462  50.750  1.00  0.00     0.013 A 
HETATM    8  C7  UNL     1      24.702   4.300  50.249  1.00  0.00     0.144 C 
HETATM    9  C8  UNL     1      24.399   2.697  51.093  1.00  0.00     0.053 A 
HETATM   10  C9  UNL     1      24.412   1.467  51.758  1.00  0.00     0.173 A 
HETATM   11  N3  UNL     1      23.240   2.502  51.180  1.00  0.00    -0.327 N 
HETATM   12  C10 UNL     1      25.533   0.822  52.180  1.00  0.00    -0.016 A 
HETATM   13  C11 UNL     1      25.633  -0.461  52.914  1.00  0.00     0.064 C 
HETATM   14  C12 UNL     1      24.412  -0.669  53.729  1.00  0.00     0.119 A 
HETATM   15  C13 UNL     1      23.524  -0.865  54.665  1.00  0.00     0.014 A 
HETATM   16 CL1  UNL     1      24.905  -0.904  55.725  1.00  0.00    -0.176 Cl
HETATM   17  C14 UNL     1      22.112  -0.945  54.905  1.00  0.00     0.017 C 
HETATM   18  C15 UNL     1      21.015  -0.796  54.224  1.00  0.00     0.004 C 
HETATM   19  C16 UNL     1      20.939  -0.412  52.808  1.00  0.00     0.301 C 
HETATM   20  N1  UNL     1      19.776   0.447  52.547  1.00  0.00     0.106 N 
HETATM   21  C17 UNL     1      18.603  -0.468  52.528  1.00  0.00     0.312 C 
HETATM   22  C18 UNL     1      19.876   1.122  51.299  1.00  0.00     0.421 C 
HETATM   23  N2  UNL     1      20.763   2.260  51.319  1.00  0.00    -0.255 NA
HETATM   24  C19 UNL     1      21.983   2.348  51.248  1.00  0.00     0.206 C 
BRANCH   8  25
HETATM   25  O2  UNL     1      23.505   4.807  49.882  1.00  0.00    -0.372 OA
HETATM   26  H6  UNL     1      22.703   4.546  50.485  1.00  0.00     0.216 HD
ENDBRANCH   8  25
ENDBRANCH   4   5
ENDBRANCH   3   4
TORSDOF 3
ENDMDL
MODEL 2
REMARK VINA RESULT:      -8.7      2.587      4.831
REMARK  3 active torsions:
REMARK  status: ('A' for Active; 'I' for Inactive)
REMARK    1  A    between atoms: C3_3  and  O1_4 
REMARK    2  A    between atoms: O1_4  and  C4_5 
REMARK    3  A    between atoms: C7_8  and  O2_9 
ROOT
HETATM    1  C1  UNL     1      27.120   6.303  48.504  1.00  0.00     0.014 C 
HETATM    2  C2  UNL     1      27.046   5.168  48.766  1.00  0.00    -0.091 C 
HETATM    3  C3  UNL     1      26.960   3.744  49.117  1.00  0.00     0.268 C 
ENDROOT
BRANCH   3   4
HETATM    4  O1  UNL     1      26.899   3.580  50.477  1.00  0.00    -0.339 OA
BRANCH   4   5
HETATM    5  C4  UNL     1      26.285   2.670  51.269  1.00  0.00     0.075 A 
HETATM    6  C5  UNL     1      27.116   1.963  52.044  1.00  0.00     0.052 A 
HETATM    7  C6  UNL     1      26.908   0.968  52.949  1.00  0.00     0.013 A 
HETATM    8  C7  UNL     1      26.893   0.012  53.832  1.00  0.00     0.144 C 
HETATM    9  C8  UNL     1      25.487   0.777  52.933  1.00  0.00     0.053 A 
HETATM   10  C9  UNL     1      24.588   1.498  52.141  1.00  0.00     0.173 A 
HETATM   11  N3  UNL     1      24.481   0.242  53.232  1.00  0.00    -0.327 N 
HETATM   12  C10 UNL     1      24.935   2.481  51.267  1.00  0.00    -0.016 A 
HETATM   13  C11 UNL     1      24.055   3.269  50.373  1.00  0.00     0.064 C 
HETATM   14  C12 UNL     1      22.857   2.469  50.017  1.00  0.00     0.119 A 
HETATM   15  C13 UNL     1      21.894   1.810  49.434  1.00  0.00     0.014 A 
HETATM   16 CL1  UNL     1      22.703   2.271  47.963  1.00  0.00    -0.176 Cl
HETATM   17  C14 UNL     1      20.743   0.995  49.696  1.00  0.00     0.017 C 
HETATM   18  C15 UNL     1      20.146   0.486  50.733  1.00  0.00     0.004 C 
HETATM   19  C16 UNL     1      20.599   0.617  52.124  1.00  0.00     0.301 C 
HETATM   20  N1  UNL     1      20.326  -0.605  52.893  1.00  0.00     0.106 N 
HETATM   21  C17 UNL     1      18.870  -0.568  53.195  1.00  0.00     0.312 C 
HETATM   22  C18 UNL     1      21.064  -0.651  54.109  1.00  0.00     0.421 C 
HETATM   23  N2  UNL     1      22.449  -1.018  53.938  1.00  0.00    -0.255 NA
HETATM   24  C19 UNL     1      23.430  -0.373  53.588  1.00  0.00     0.206 C 
BRANCH   8  25
HETATM   25  O2  UNL     1      26.391  -0.929  54.663  1.00  0.00    -0.372 OA
HETATM   26  H6  UNL     1      26.817  -1.871  54.585  1.00  0.00     0.216 HD
ENDBRANCH   8  25
ENDBRANCH   4   5
ENDBRANCH   3   4
TORSDOF 3
ENDMDL
MODEL 3
REMARK VINA RESULT:      -8.7      2.061      2.649
REMARK  3 active torsions:
REMARK  status: ('A' for Active; 'I' for Inactive)
REMARK    1  A    between atoms: C3_3  and  O1_4 
REMARK    2  A    between atoms: O1_4  and  C4_5 
REMARK    3  A    between atoms: C7_8  and  O2_9 
ROOT
HETATM    1  C1  UNL     1      26.814  -1.850  52.383  1.00  0.00     0.014 C 
HETATM    2  C2  UNL     1      26.793  -0.708  52.622  1.00  0.00    -0.091 C 
HETATM    3  C3  UNL     1      26.743   0.728  52.924  1.00  0.00     0.268 C 
ENDROOT
BRANCH   3   4
HETATM    4  O1  UNL     1      25.558   1.059  53.529  1.00  0.00    -0.339 OA
BRANCH   4   5
HETATM    5  C4  UNL     1      24.453   1.712  53.099  1.00  0.00     0.075 A 
HETATM    6  C5  UNL     1      24.597   3.040  53.008  1.00  0.00     0.052 A 
HETATM    7  C6  UNL     1      23.745   4.035  52.640  1.00  0.00     0.013 A 
HETATM    8  C7  UNL     1      23.069   5.102  52.327  1.00  0.00     0.144 C 
HETATM    9  C8  UNL     1      22.524   3.348  52.330  1.00  0.00     0.053 A 
HETATM   10  C9  UNL     1      22.338   1.965  52.410  1.00  0.00     0.173 A 
HETATM   11  N3  UNL     1      21.387   3.281  52.032  1.00  0.00    -0.327 N 
HETATM   12  C10 UNL     1      23.288   1.072  52.799  1.00  0.00    -0.016 A 
HETATM   13  C11 UNL     1      23.166  -0.397  52.939  1.00  0.00     0.064 C 
HETATM   14  C12 UNL     1      21.762  -0.755  53.258  1.00  0.00     0.119 A 
HETATM   15  C13 UNL     1      20.644  -1.191  53.772  1.00  0.00     0.014 A 
HETATM   16 CL1  UNL     1      21.669  -1.813  55.034  1.00  0.00    -0.176 Cl
HETATM   17  C14 UNL     1      19.221  -1.183  53.591  1.00  0.00     0.017 C 
HETATM   18  C15 UNL     1      18.362  -0.643  52.777  1.00  0.00     0.004 C 
HETATM   19  C16 UNL     1      18.693   0.271  51.676  1.00  0.00     0.301 C 
HETATM   20  N1  UNL     1      17.659   1.301  51.507  1.00  0.00     0.106 N 
HETATM   21  C17 UNL     1      16.530   0.620  50.816  1.00  0.00     0.312 C 
HETATM   22  C18 UNL     1      18.113   2.393  50.716  1.00  0.00     0.421 C 
HETATM   23  N2  UNL     1      18.969   3.312  51.426  1.00  0.00    -0.255 NA
HETATM   24  C19 UNL     1      20.160   3.269  51.710  1.00  0.00     0.206 C 
BRANCH   8  25
HETATM   25  O2  UNL     1      22.028   5.858  51.911  1.00  0.00    -0.372 OA
HETATM   26  H6  UNL     1      21.302   5.359  51.364  1.00  0.00     0.216 HD
ENDBRANCH   8  25
ENDBRANCH   4   5
ENDBRANCH   3   4
TORSDOF 3
ENDMDL
MODEL 4
REMARK VINA RESULT:      -8.6      2.710      4.797
REMARK  3 active torsions:
REMARK  status: ('A' for Active; 'I' for Inactive)
REMARK    1  A    between atoms: C3_3  and  O1_4 
REMARK    2  A    between atoms: O1_4  and  C4_5 
REMARK    3  A    between atoms: C7_8  and  O2_9 
ROOT
HETATM    1  C1  UNL     1      29.637  -0.262  53.718  1.00  0.00     0.014 C 
HETATM    2  C2  UNL     1      28.543  -0.586  53.475  1.00  0.00    -0.091 C 
HETATM    3  C3  UNL     1      27.158  -0.982  53.189  1.00  0.00     0.268 C 
ENDROOT
BRANCH   3   4
HETATM    4  O1  UNL     1      26.271  -0.171  53.847  1.00  0.00    -0.339 OA
BRANCH   4   5
HETATM    5  C4  UNL     1      24.982   0.170  53.612  1.00  0.00     0.075 A 
HETATM    6  C5  UNL     1      24.085  -0.703  54.087  1.00  0.00     0.052 A 
HETATM    7  C6  UNL     1      22.725  -0.737  54.050  1.00  0.00     0.013 A 
HETATM    8  C7  UNL     1      21.439  -0.932  54.101  1.00  0.00     0.144 C 
HETATM    9  C8  UNL     1      22.369   0.454  53.333  1.00  0.00     0.053 A 
HETATM   10  C9  UNL     1      23.276   1.389  52.826  1.00  0.00     0.173 A 
HETATM   11  N3  UNL     1      21.621   1.197  52.809  1.00  0.00    -0.327 N 
HETATM   12  C10 UNL     1      24.630   1.300  52.936  1.00  0.00    -0.016 A 
HETATM   13  C11 UNL     1      25.657   2.224  52.405  1.00  0.00     0.064 C 
HETATM   14  C12 UNL     1      25.142   2.903  51.190  1.00  0.00     0.119 A 
HETATM   15  C13 UNL     1      24.921   3.381  49.997  1.00  0.00     0.014 A 
HETATM   16 CL1  UNL     1      26.393   2.551  49.579  1.00  0.00    -0.176 Cl
HETATM   17  C14 UNL     1      23.977   4.135  49.223  1.00  0.00     0.017 C 
HETATM   18  C15 UNL     1      22.805   4.670  49.398  1.00  0.00     0.004 C 
HETATM   19  C16 UNL     1      22.013   4.596  50.633  1.00  0.00     0.301 C 
HETATM   20  N1  UNL     1      20.576   4.502  50.342  1.00  0.00     0.106 N 
HETATM   21  C17 UNL     1      20.156   5.878  49.965  1.00  0.00     0.312 C 
HETATM   22  C18 UNL     1      19.827   4.066  51.471  1.00  0.00     0.421 C 
HETATM   23  N2  UNL     1      19.912   2.647  51.716  1.00  0.00    -0.255 NA
HETATM   24  C19 UNL     1      20.769   1.960  52.259  1.00  0.00     0.206 C 
BRANCH   8  25
HETATM   25  O2  UNL     1      20.121  -0.695  53.921  1.00  0.00    -0.372 OA
HETATM   26  H6  UNL     1      19.886   0.179  53.415  1.00  0.00     0.216 HD
ENDBRANCH   8  25
ENDBRANCH   4   5
ENDBRANCH   3   4
TORSDOF 3
ENDMDL
MODEL 5
REMARK VINA RESULT:      -8.2      2.377      4.090
REMARK  3 active torsions:
REMARK  status: ('A' for Active; 'I' for Inactive)
REMARK    1  A    between atoms: C3_3  and  O1_4 
REMARK    2  A    between atoms: O1_4  and  C4_5 
REMARK    3  A    between atoms: C7_8  and  O2_9 
ROOT
HETATM    1  C1  UNL     1      29.669   5.746  47.955  1.00  0.00     0.014 C 
HETATM    2  C2  UNL     1      28.538   5.824  48.232  1.00  0.00    -0.091 C 
HETATM    3  C3  UNL     1      27.114   5.897  48.583  1.00  0.00     0.268 C 
ENDROOT
BRANCH   3   4
HETATM    4  O1  UNL     1      26.697   4.736  49.181  1.00  0.00    -0.339 OA
BRANCH   4   5
HETATM    5  C4  UNL     1      25.525   4.356  49.741  1.00  0.00     0.075 A 
HETATM    6  C5  UNL     1      24.528   5.236  49.583  1.00  0.00     0.052 A 
HETATM    7  C6  UNL     1      23.231   5.239  49.995  1.00  0.00     0.013 A 
HETATM    8  C7  UNL     1      21.980   5.410  50.312  1.00  0.00     0.144 C 
HETATM    9  C8  UNL     1      23.091   4.004  50.711  1.00  0.00     0.053 A 
HETATM   10  C9  UNL     1      24.108   3.061  50.893  1.00  0.00     0.173 A 
HETATM   11  N3  UNL     1      22.520   3.218  51.376  1.00  0.00    -0.327 N 
HETATM   12  C10 UNL     1      25.378   3.184  50.420  1.00  0.00    -0.016 A 
HETATM   13  C11 UNL     1      26.516   2.253  50.593  1.00  0.00     0.064 C 
HETATM   14  C12 UNL     1      26.360   1.498  51.861  1.00  0.00     0.119 A 
HETATM   15  C13 UNL     1      26.478   0.950  53.039  1.00  0.00     0.014 A 
HETATM   16 CL1  UNL     1      28.004   1.786  53.083  1.00  0.00    -0.176 Cl
HETATM   17  C14 UNL     1      25.788   0.136  53.997  1.00  0.00     0.017 C 
HETATM   18  C15 UNL     1      24.615  -0.413  54.119  1.00  0.00     0.004 C 
HETATM   19  C16 UNL     1      23.513  -0.287  53.157  1.00  0.00     0.301 C 
HETATM   20  N1  UNL     1      22.212  -0.239  53.837  1.00  0.00     0.106 N 
HETATM   21  C17 UNL     1      21.918  -1.642  54.234  1.00  0.00     0.312 C 
HETATM   22  C18 UNL     1      21.178   0.243  52.986  1.00  0.00     0.421 C 
HETATM   23  N2  UNL     1      21.186   1.675  52.810  1.00  0.00    -0.255 NA
HETATM   24  C19 UNL     1      21.857   2.408  52.094  1.00  0.00     0.206 C 
BRANCH   8  25
HETATM   25  O2  UNL     1      20.763   5.137  50.833  1.00  0.00    -0.372 OA
HETATM   26  H6  UNL     1      19.957   5.306  50.204  1.00  0.00     0.216 HD
ENDBRANCH   8  25
ENDBRANCH   4   5
ENDBRANCH   3   4
TORSDOF 3
ENDMDL
MODEL 6
REMARK VINA RESULT:      -8.1      3.321      7.345
REMARK  3 active torsions:
REMARK  status: ('A' for Active; 'I' for Inactive)
REMARK    1  A    between atoms: C3_3  and  O1_4 
REMARK    2  A    between atoms: O1_4  and  C4_5 
REMARK    3  A    between atoms: C7_8  and  O2_9 
ROOT
HETATM    1  C1  UNL     1      19.625   3.501  46.884  1.00  0.00     0.014 C 
HETATM    2  C2  UNL     1      19.333   3.171  47.965  1.00  0.00    -0.091 C 
HETATM    3  C3  UNL     1      18.970   2.734  49.319  1.00  0.00     0.268 C 
ENDROOT
BRANCH   3   4
HETATM    4  O1  UNL     1      19.449   1.474  49.570  1.00  0.00    -0.339 OA
BRANCH   4   5
HETATM    5  C4  UNL     1      20.225   0.961  50.553  1.00  0.00     0.075 A 
HETATM    6  C5  UNL     1      19.544   0.371  51.543  1.00  0.00     0.052 A 
HETATM    7  C6  UNL     1      19.937  -0.240  52.694  1.00  0.00     0.013 A 
HETATM    8  C7  UNL     1      20.133  -0.846  53.829  1.00  0.00     0.144 C 
HETATM    9  C8  UNL     1      21.368  -0.134  52.670  1.00  0.00     0.053 A 
HETATM   10  C9  UNL     1      22.112   0.471  51.654  1.00  0.00     0.173 A 
HETATM   11  N3  UNL     1      22.452  -0.256  53.115  1.00  0.00    -0.327 N 
HETATM   12  C10 UNL     1      21.585   1.052  50.542  1.00  0.00    -0.016 A 
HETATM   13  C11 UNL     1      22.296   1.737  49.438  1.00  0.00     0.064 C 
HETATM   14  C12 UNL     1      23.562   2.322  49.944  1.00  0.00     0.119 A 
HETATM   15  C13 UNL     1      24.563   3.084  50.293  1.00  0.00     0.014 A 
HETATM   16 CL1  UNL     1      23.608   4.362  49.596  1.00  0.00    -0.176 Cl
HETATM   17  C14 UNL     1      25.824   3.074  50.976  1.00  0.00     0.017 C 
HETATM   18  C15 UNL     1      26.548   2.222  51.639  1.00  0.00     0.004 C 
HETATM   19  C16 UNL     1      26.173   0.831  51.927  1.00  0.00     0.301 C 
HETATM   20  N1  UNL     1      26.651   0.412  53.251  1.00  0.00     0.106 N 
HETATM   21  C17 UNL     1      28.106   0.153  53.085  1.00  0.00     0.312 C 
HETATM   22  C18 UNL     1      26.005  -0.772  53.705  1.00  0.00     0.421 C 
HETATM   23  N2  UNL     1      24.671  -0.553  54.211  1.00  0.00    -0.255 NA
HETATM   24  C19 UNL     1      23.594  -0.410  53.644  1.00  0.00     0.206 C 
BRANCH   8  25
HETATM   25  O2  UNL     1      20.806  -1.392  54.867  1.00  0.00    -0.372 OA
HETATM   26  H6  UNL     1      21.662  -1.922  54.618  1.00  0.00     0.216 HD
ENDBRANCH   8  25
ENDBRANCH   4   5
ENDBRANCH   3   4
TORSDOF 3
ENDMDL
MODEL 7
REMARK VINA RESULT:      -8.0      3.052      6.003
REMARK  3 active torsions:
REMARK  status: ('A' for Active; 'I' for Inactive)
REMARK    1  A    between atoms: C3_3  and  O1_4 
REMARK    2  A    between atoms: O1_4  and  C4_5 
REMARK    3  A    between atoms: C7_8  and  O2_9 
ROOT
HETATM    1  C1  UNL     1      21.604   2.282  47.533  1.00  0.00     0.014 C 
HETATM    2  C2  UNL     1      21.369   3.397  47.788  1.00  0.00    -0.091 C 
HETATM    3  C3  UNL     1      21.085   4.796  48.129  1.00  0.00     0.268 C 
ENDROOT
BRANCH   3   4
HETATM    4  O1  UNL     1      21.926   5.238  49.118  1.00  0.00    -0.339 OA
BRANCH   4   5
HETATM    5  C4  UNL     1      23.137   4.821  49.554  1.00  0.00     0.075 A 
HETATM    6  C5  UNL     1      24.173   5.326  48.872  1.00  0.00     0.052 A 
HETATM    7  C6  UNL     1      25.518   5.152  48.980  1.00  0.00     0.013 A 
HETATM    8  C7  UNL     1      26.818   5.097  48.937  1.00  0.00     0.144 C 
HETATM    9  C8  UNL     1      25.662   4.230  50.070  1.00  0.00     0.053 A 
HETATM   10  C9  UNL     1      24.606   3.686  50.807  1.00  0.00     0.173 A 
HETATM   11  N3  UNL     1      26.265   3.525  50.795  1.00  0.00    -0.327 N 
HETATM   12  C10 UNL     1      23.288   3.949  50.590  1.00  0.00    -0.016 A 
HETATM   13  C11 UNL     1      22.112   3.395  51.300  1.00  0.00     0.064 C 
HETATM   14  C12 UNL     1      22.433   2.044  51.823  1.00  0.00     0.119 A 
HETATM   15  C13 UNL     1      22.490   0.776  52.123  1.00  0.00     0.014 A 
HETATM   16 CL1  UNL     1      21.101   0.645  51.082  1.00  0.00    -0.176 Cl
HETATM   17  C14 UNL     1      23.263  -0.198  52.839  1.00  0.00     0.017 C 
HETATM   18  C15 UNL     1      24.371  -0.229  53.520  1.00  0.00     0.004 C 
HETATM   19  C16 UNL     1      25.270   0.913  53.733  1.00  0.00     0.301 C 
HETATM   20  N1  UNL     1      26.676   0.491  53.749  1.00  0.00     0.106 N 
HETATM   21  C17 UNL     1      26.889  -0.132  55.083  1.00  0.00     0.312 C 
HETATM   22  C18 UNL     1      27.568   1.588  53.587  1.00  0.00     0.421 C 
HETATM   23  N2  UNL     1      27.681   2.053  52.225  1.00  0.00    -0.255 NA
HETATM   24  C19 UNL     1      26.965   2.779  51.546  1.00  0.00     0.206 C 
BRANCH   8  25
HETATM   25  O2  UNL     1      28.077   4.747  49.282  1.00  0.00    -0.372 OA
HETATM   26  H6  UNL     1      28.718   5.532  49.499  1.00  0.00     0.216 HD
ENDBRANCH   8  25
ENDBRANCH   4   5
ENDBRANCH   3   4
TORSDOF 3
ENDMDL
MODEL 8
REMARK VINA RESULT:      -7.9      7.169      9.084
REMARK  3 active torsions:
REMARK  status: ('A' for Active; 'I' for Inactive)
REMARK    1  A    between atoms: C3_3  and  O1_4 
REMARK    2  A    between atoms: O1_4  and  C4_5 
REMARK    3  A    between atoms: C7_8  and  O2_9 
ROOT
HETATM    1  C1  UNL     1      32.600   4.910  45.576  1.00  0.00     0.014 C 
HETATM    2  C2  UNL     1      32.685   4.913  46.740  1.00  0.00    -0.091 C 
HETATM    3  C3  UNL     1      32.771   4.930  48.206  1.00  0.00     0.268 C 
ENDROOT
BRANCH   3   4
HETATM    4  O1  UNL     1      31.560   5.248  48.764  1.00  0.00    -0.339 OA
BRANCH   4   5
HETATM    5  C4  UNL     1      30.836   6.391  48.808  1.00  0.00     0.075 A 
HETATM    6  C5  UNL     1      31.533   7.471  49.183  1.00  0.00     0.052 A 
HETATM    7  C6  UNL     1      31.184   8.774  49.362  1.00  0.00     0.013 A 
HETATM    8  C7  UNL     1      31.026  10.047  49.587  1.00  0.00     0.144 C 
HETATM    9  C8  UNL     1      29.784   8.805  49.048  1.00  0.00     0.053 A 
HETATM   10  C9  UNL     1      29.026   7.700  48.650  1.00  0.00     0.173 A 
HETATM   11  N3  UNL     1      28.725   9.311  48.956  1.00  0.00    -0.327 N 
HETATM   12  C10 UNL     1      29.507   6.435  48.509  1.00  0.00    -0.016 A 
HETATM   13  C11 UNL     1      28.770   5.210  48.123  1.00  0.00     0.064 C 
HETATM   14  C12 UNL     1      27.350   5.327  48.536  1.00  0.00     0.119 A 
HETATM   15  C13 UNL     1      26.157   5.191  49.048  1.00  0.00     0.014 A 
HETATM   16 CL1  UNL     1      26.828   3.766  49.789  1.00  0.00    -0.176 Cl
HETATM   17  C14 UNL     1      24.873   5.822  49.141  1.00  0.00     0.017 C 
HETATM   18  C15 UNL     1      24.320   6.932  48.749  1.00  0.00     0.004 C 
HETATM   19  C16 UNL     1      25.002   8.009  48.017  1.00  0.00     0.301 C 
HETATM   20  N1  UNL     1      24.504   9.330  48.424  1.00  0.00     0.106 N 
HETATM   21  C17 UNL     1      23.188   9.484  47.747  1.00  0.00     0.312 C 
HETATM   22  C18 UNL     1      25.375  10.380  48.018  1.00  0.00     0.421 C 
HETATM   23  N2  UNL     1      26.547  10.520  48.849  1.00  0.00    -0.255 NA
HETATM   24  C19 UNL     1      27.608   9.907  48.878  1.00  0.00     0.206 C 
BRANCH   8  25
HETATM   25  O2  UNL     1      30.404  11.244  49.670  1.00  0.00    -0.372 OA
HETATM   26  H6  UNL     1      30.665  11.936  48.943  1.00  0.00     0.216 HD
ENDBRANCH   8  25
ENDBRANCH   4   5
ENDBRANCH   3   4
TORSDOF 3
ENDMDL
MODEL 9
REMARK VINA RESULT:      -7.6      3.122      6.351
REMARK  3 active torsions:
REMARK  status: ('A' for Active; 'I' for Inactive)
REMARK    1  A    between atoms: C3_3  and  O1_4 
REMARK    2  A    between atoms: O1_4  and  C4_5 
REMARK    3  A    between atoms: C7_8  and  O2_9 
ROOT
HETATM    1  C1  UNL     1      20.300   5.871  48.374  1.00  0.00     0.014 C 
HETATM    2  C2  UNL     1      20.977   6.758  48.715  1.00  0.00    -0.091 C 
HETATM    3  C3  UNL     1      21.835   7.862  49.164  1.00  0.00     0.268 C 
ENDROOT
BRANCH   3   4
HETATM    4  O1  UNL     1      22.694   7.445  50.149  1.00  0.00    -0.339 OA
BRANCH   4   5
HETATM    5  C4  UNL     1      23.636   6.475  50.201  1.00  0.00     0.075 A 
HETATM    6  C5  UNL     1      24.663   6.658  49.362  1.00  0.00     0.052 A 
HETATM    7  C6  UNL     1      25.781   5.926  49.102  1.00  0.00     0.013 A 
HETATM    8  C7  UNL     1      26.888   5.355  48.726  1.00  0.00     0.144 C 
HETATM    9  C8  UNL     1      25.664   4.794  49.976  1.00  0.00     0.053 A 
HETATM   10  C9  UNL     1      24.610   4.572  50.866  1.00  0.00     0.173 A 
HETATM   11  N3  UNL     1      25.989   3.751  50.415  1.00  0.00    -0.327 N 
HETATM   12  C10 UNL     1      23.539   5.396  51.028  1.00  0.00    -0.016 A 
HETATM   13  C11 UNL     1      22.372   5.221  51.922  1.00  0.00     0.064 C 
HETATM   14  C12 UNL     1      22.124   3.775  52.146  1.00  0.00     0.119 A 
HETATM   15  C13 UNL     1      21.647   2.564  52.234  1.00  0.00     0.014 A 
HETATM   16 CL1  UNL     1      20.202   3.271  51.567  1.00  0.00    -0.176 Cl
HETATM   17  C14 UNL     1      21.998   1.218  52.583  1.00  0.00     0.017 C 
HETATM   18  C15 UNL     1      23.064   0.571  52.952  1.00  0.00     0.004 C 
HETATM   19  C16 UNL     1      24.405   1.155  53.097  1.00  0.00     0.301 C 
HETATM   20  N1  UNL     1      25.449   0.202  52.697  1.00  0.00     0.106 N 
HETATM   21  C17 UNL     1      25.568  -0.755  53.830  1.00  0.00     0.312 C 
HETATM   22  C18 UNL     1      26.702   0.839  52.477  1.00  0.00     0.421 C 
HETATM   23  N2  UNL     1      26.792   1.530  51.214  1.00  0.00    -0.255 NA
HETATM   24  C19 UNL     1      26.385   2.627  50.850  1.00  0.00     0.206 C 
BRANCH   8  25
HETATM   25  O2  UNL     1      27.888   4.446  48.690  1.00  0.00    -0.372 OA
HETATM   26  H6  UNL     1      27.773   3.679  48.002  1.00  0.00     0.216 HD
ENDBRANCH   8  25
ENDBRANCH   4   5
ENDBRANCH   3   4
TORSDOF 3
ENDMDL
