MODEL 1
REMARK VINA RESULT:      -7.2      0.000      0.000
REMARK  2 active torsions:
REMARK  status: ('A' for Active; 'I' for Inactive)
REMARK    1  A    between atoms: N1_4  and  C4_5 
REMARK    2  A    between atoms: C6_7  and  O1_8 
ROOT
HETATM    1  C4  UNL     1      23.398   1.917  52.842  1.00  0.00     0.235 C 
HETATM    2  C5  UNL     1      22.552   1.020  51.859  1.00  0.00     0.053 C 
HETATM    3  C6  UNL     1      22.395   1.602  50.593  1.00  0.00     0.045 C 
HETATM    4  C8  UNL     1      22.657   2.636  49.768  1.00  0.00     0.065 C 
HETATM    5  C9  UNL     1      23.412   3.245  48.695  1.00  0.00    -0.012 C 
HETATM    6  C10 UNL     1      24.093   4.488  48.968  1.00  0.00     0.063 C 
HETATM    7  C11 UNL     1      23.831   4.892  50.411  1.00  0.00     0.096 C 
HETATM    8  N2  UNL     1      23.524   5.063  51.581  1.00  0.00    -0.258 NA
HETATM    9  C12 UNL     1      22.751   4.343  52.561  1.00  0.00     0.228 C 
HETATM   10  N3  UNL     1      23.286   3.233  52.470  1.00  0.00    -0.253 NA
ENDROOT
BRANCH   1  11
HETATM   11  N1  UNL     1      24.745   1.434  52.621  1.00  0.00    -0.360 N 
HETATM   12  C3  UNL     1      25.006   0.121  53.221  1.00  0.00     0.159 C 
HETATM   13  C2  UNL     1      26.175   0.149  54.113  1.00  0.00    -0.056 C 
HETATM   14  C1  UNL     1      25.975  -0.248  55.356  1.00  0.00     0.041 C 
HETATM   15  C16 UNL     1      27.523   0.556  53.766  1.00  0.00    -0.058 C 
HETATM   16  C15 UNL     1      27.805   1.441  52.844  1.00  0.00     0.008 C 
HETATM   17  C17 UNL     1      28.623  -0.072  54.535  1.00  0.00     0.048 C 
HETATM   18  C14 UNL     1      27.061   2.304  51.881  1.00  0.00     0.017 C 
HETATM   19  C13 UNL     1      25.715   2.165  51.926  1.00  0.00     0.088 C 
ENDBRANCH   1  11
BRANCH   3  20
HETATM   20  O1  UNL     1      21.631   0.771  49.766  1.00  0.00    -0.360 OA
HETATM   21  C7  UNL     1      20.325   1.230  49.501  1.00  0.00     0.209 C 
ENDBRANCH   3  20
TORSDOF 2
ENDMDL
MODEL 2
REMARK VINA RESULT:      -7.0      1.892      2.796
REMARK  2 active torsions:
REMARK  status: ('A' for Active; 'I' for Inactive)
REMARK    1  A    between atoms: N1_4  and  C4_5 
REMARK    2  A    between atoms: C6_7  and  O1_8 
ROOT
HETATM    1  C4  UNL     1      21.505   1.855  51.315  1.00  0.00     0.235 C 
HETATM    2  C5  UNL     1      21.554   1.544  49.770  1.00  0.00     0.053 C 
HETATM    3  C6  UNL     1      22.464   2.359  49.081  1.00  0.00     0.045 C 
HETATM    4  C8  UNL     1      23.384   3.343  49.130  1.00  0.00     0.065 C 
HETATM    5  C9  UNL     1      24.757   3.798  49.167  1.00  0.00    -0.012 C 
HETATM    6  C10 UNL     1      25.170   4.614  50.283  1.00  0.00     0.063 C 
HETATM    7  C11 UNL     1      23.984   4.822  51.213  1.00  0.00     0.096 C 
HETATM    8  N2  UNL     1      22.939   4.884  51.842  1.00  0.00    -0.258 NA
HETATM    9  C12 UNL     1      21.608   4.352  51.689  1.00  0.00     0.228 C 
HETATM   10  N3  UNL     1      21.881   3.158  51.530  1.00  0.00    -0.253 NA
ENDROOT
BRANCH   1  11
HETATM   11  N1  UNL     1      22.494   0.941  51.847  1.00  0.00    -0.360 N 
HETATM   12  C3  UNL     1      21.918  -0.285  52.410  1.00  0.00     0.159 C 
HETATM   13  C2  UNL     1      22.348  -0.504  53.800  1.00  0.00    -0.056 C 
HETATM   14  C1  UNL     1      21.389  -0.632  54.698  1.00  0.00     0.041 C 
HETATM   15  C16 UNL     1      23.712  -0.603  54.283  1.00  0.00    -0.058 C 
HETATM   16  C15 UNL     1      24.730   0.003  53.725  1.00  0.00     0.008 C 
HETATM   17  C17 UNL     1      23.927  -1.431  55.492  1.00  0.00     0.048 C 
HETATM   18  C14 UNL     1      24.973   0.909  52.567  1.00  0.00     0.017 C 
HETATM   19  C13 UNL     1      23.866   1.216  51.851  1.00  0.00     0.088 C 
ENDBRANCH   1  11
BRANCH   3  20
HETATM   20  O1  UNL     1      22.461   2.047  47.716  1.00  0.00    -0.360 OA
HETATM   21  C7  UNL     1      21.996   3.075  46.871  1.00  0.00     0.209 C 
ENDBRANCH   3  20
TORSDOF 2
ENDMDL
MODEL 3
REMARK VINA RESULT:      -6.7      2.198      3.805
REMARK  2 active torsions:
REMARK  status: ('A' for Active; 'I' for Inactive)
REMARK    1  A    between atoms: N1_4  and  C4_5 
REMARK    2  A    between atoms: C6_7  and  O1_8 
ROOT
HETATM    1  C4  UNL     1      23.716   2.610  50.768  1.00  0.00     0.235 C 
HETATM    2  C5  UNL     1      23.280   4.064  51.198  1.00  0.00     0.053 C 
HETATM    3  C6  UNL     1      21.891   4.194  51.337  1.00  0.00     0.045 C 
HETATM    4  C8  UNL     1      20.676   3.614  51.281  1.00  0.00     0.065 C 
HETATM    5  C9  UNL     1      19.533   2.994  51.917  1.00  0.00    -0.012 C 
HETATM    6  C10 UNL     1      19.170   1.660  51.503  1.00  0.00     0.063 C 
HETATM    7  C11 UNL     1      20.134   1.196  50.421  1.00  0.00     0.096 C 
HETATM    8  N2  UNL     1      20.989   0.984  49.574  1.00  0.00    -0.258 NA
HETATM    9  C12 UNL     1      22.111   1.711  49.036  1.00  0.00     0.228 C 
HETATM   10  N3  UNL     1      22.688   2.008  50.087  1.00  0.00    -0.253 NA
ENDROOT
BRANCH   1  11
HETATM   11  N1  UNL     1      23.937   1.962  52.044  1.00  0.00    -0.360 N 
HETATM   12  C3  UNL     1      24.922   2.645  52.888  1.00  0.00     0.159 C 
HETATM   13  C2  UNL     1      26.002   1.740  53.312  1.00  0.00    -0.056 C 
HETATM   14  C1  UNL     1      27.232   2.113  53.013  1.00  0.00     0.041 C 
HETATM   15  C16 UNL     1      25.855   0.490  54.031  1.00  0.00    -0.058 C 
HETATM   16  C15 UNL     1      24.805  -0.287  53.940  1.00  0.00     0.008 C 
HETATM   17  C17 UNL     1      26.989   0.087  54.896  1.00  0.00     0.048 C 
HETATM   18  C14 UNL     1      23.502  -0.298  53.216  1.00  0.00     0.017 C 
HETATM   19  C13 UNL     1      23.292   0.779  52.423  1.00  0.00     0.088 C 
ENDBRANCH   1  11
BRANCH   3  20
HETATM   20  O1  UNL     1      21.560   5.502  51.710  1.00  0.00    -0.360 OA
HETATM   21  C7  UNL     1      21.654   6.458  50.678  1.00  0.00     0.209 C 
ENDBRANCH   3  20
TORSDOF 2
ENDMDL
MODEL 4
REMARK VINA RESULT:      -6.6      2.459      4.182
REMARK  2 active torsions:
REMARK  status: ('A' for Active; 'I' for Inactive)
REMARK    1  A    between atoms: N1_4  and  C4_5 
REMARK    2  A    between atoms: C6_7  and  O1_8 
ROOT
HETATM    1  C4  UNL     1      24.622   2.994  49.655  1.00  0.00     0.235 C 
HETATM    2  C5  UNL     1      25.643   4.188  49.788  1.00  0.00     0.053 C 
HETATM    3  C6  UNL     1      25.009   5.429  49.939  1.00  0.00     0.045 C 
HETATM    4  C8  UNL     1      23.856   6.121  50.042  1.00  0.00     0.065 C 
HETATM    5  C9  UNL     1      22.842   6.792  50.827  1.00  0.00    -0.012 C 
HETATM    6  C10 UNL     1      21.480   6.329  50.710  1.00  0.00     0.063 C 
HETATM    7  C11 UNL     1      21.430   5.176  49.718  1.00  0.00     0.096 C 
HETATM    8  N2  UNL     1      21.570   4.273  48.907  1.00  0.00    -0.258 NA
HETATM    9  C12 UNL     1      22.678   3.686  48.197  1.00  0.00     0.228 C 
HETATM   10  N3  UNL     1      23.436   3.461  49.145  1.00  0.00    -0.253 NA
ENDROOT
BRANCH   1  11
HETATM   11  N1  UNL     1      24.459   2.570  51.030  1.00  0.00    -0.360 N 
HETATM   12  C3  UNL     1      25.724   2.268  51.707  1.00  0.00     0.159 C 
HETATM   13  C2  UNL     1      25.728   0.915  52.283  1.00  0.00    -0.056 C 
HETATM   14  C1  UNL     1      26.704   0.114  51.896  1.00  0.00     0.041 C 
HETATM   15  C16 UNL     1      24.779   0.374  53.238  1.00  0.00    -0.058 C 
HETATM   16  C15 UNL     1      23.528   0.752  53.318  1.00  0.00     0.008 C 
HETATM   17  C17 UNL     1      25.283  -0.682  54.146  1.00  0.00     0.048 C 
HETATM   18  C14 UNL     1      22.622   1.715  52.631  1.00  0.00     0.017 C 
HETATM   19  C13 UNL     1      23.209   2.433  51.645  1.00  0.00     0.088 C 
ENDBRANCH   1  11
BRANCH   3  20
HETATM   20  O1  UNL     1      25.959   6.452  50.044  1.00  0.00    -0.360 OA
HETATM   21  C7  UNL     1      26.739   6.661  48.888  1.00  0.00     0.209 C 
ENDBRANCH   3  20
TORSDOF 2
ENDMDL
MODEL 5
REMARK VINA RESULT:      -6.6      2.239      3.971
REMARK  2 active torsions:
REMARK  status: ('A' for Active; 'I' for Inactive)
REMARK    1  A    between atoms: N1_4  and  C4_5 
REMARK    2  A    between atoms: C6_7  and  O1_8 
ROOT
HETATM    1  C4  UNL     1      22.194   3.865  51.982  1.00  0.00     0.235 C 
HETATM    2  C5  UNL     1      21.873   2.338  52.206  1.00  0.00     0.053 C 
HETATM    3  C6  UNL     1      21.588   1.662  51.011  1.00  0.00     0.045 C 
HETATM    4  C8  UNL     1      21.465   1.712  49.670  1.00  0.00     0.065 C 
HETATM    5  C9  UNL     1      21.982   1.492  48.336  1.00  0.00    -0.012 C 
HETATM    6  C10 UNL     1      22.066   2.627  47.448  1.00  0.00     0.063 C 
HETATM    7  C11 UNL     1      21.549   3.863  48.169  1.00  0.00     0.096 C 
HETATM    8  N2  UNL     1      21.109   4.745  48.890  1.00  0.00    -0.258 NA
HETATM    9  C12 UNL     1      20.628   4.825  50.247  1.00  0.00     0.228 C 
HETATM   10  N3  UNL     1      21.578   4.297  50.834  1.00  0.00    -0.253 NA
ENDROOT
BRANCH   1  11
HETATM   11  N1  UNL     1      23.634   3.859  51.821  1.00  0.00    -0.360 N 
HETATM   12  C3  UNL     1      24.168   5.105  51.262  1.00  0.00     0.159 C 
HETATM   13  C2  UNL     1      24.982   4.861  50.061  1.00  0.00    -0.056 C 
HETATM   14  C1  UNL     1      24.618   5.501  48.965  1.00  0.00     0.041 C 
HETATM   15  C16 UNL     1      26.146   4.002  49.960  1.00  0.00    -0.058 C 
HETATM   16  C15 UNL     1      26.331   2.933  50.693  1.00  0.00     0.008 C 
HETATM   17  C17 UNL     1      27.156   4.372  48.941  1.00  0.00     0.048 C 
HETATM   18  C14 UNL     1      25.611   2.199  51.772  1.00  0.00     0.017 C 
HETATM   19  C13 UNL     1      24.434   2.757  52.142  1.00  0.00     0.088 C 
ENDBRANCH   1  11
BRANCH   3  20
HETATM   20  O1  UNL     1      21.303   0.316  51.269  1.00  0.00    -0.360 OA
HETATM   21  C7  UNL     1      21.970  -0.232  52.383  1.00  0.00     0.209 C 
ENDBRANCH   3  20
TORSDOF 2
ENDMDL
MODEL 6
REMARK VINA RESULT:      -6.5      2.665      4.477
REMARK  2 active torsions:
REMARK  status: ('A' for Active; 'I' for Inactive)
REMARK    1  A    between atoms: N1_4  and  C4_5 
REMARK    2  A    between atoms: C6_7  and  O1_8 
ROOT
HETATM    1  C4  UNL     1      23.800   2.590  50.703  1.00  0.00     0.235 C 
HETATM    2  C5  UNL     1      24.500   3.929  51.154  1.00  0.00     0.053 C 
HETATM    3  C6  UNL     1      23.721   5.065  50.888  1.00  0.00     0.045 C 
HETATM    4  C8  UNL     1      22.572   5.576  50.405  1.00  0.00     0.065 C 
HETATM    5  C9  UNL     1      21.241   6.112  50.593  1.00  0.00    -0.012 C 
HETATM    6  C10 UNL     1      20.143   5.444  49.934  1.00  0.00     0.063 C 
HETATM    7  C11 UNL     1      20.684   4.264  49.141  1.00  0.00     0.096 C 
HETATM    8  N2  UNL     1      21.281   3.365  48.568  1.00  0.00    -0.258 NA
HETATM    9  C12 UNL     1      22.652   2.930  48.479  1.00  0.00     0.228 C 
HETATM   10  N3  UNL     1      22.923   2.855  49.681  1.00  0.00    -0.253 NA
ENDROOT
BRANCH   1  11
HETATM   11  N1  UNL     1      23.088   2.194  51.901  1.00  0.00    -0.360 N 
HETATM   12  C3  UNL     1      23.963   1.693  52.966  1.00  0.00     0.159 C 
HETATM   13  C2  UNL     1      23.558   0.355  53.423  1.00  0.00    -0.056 C 
HETATM   14  C1  UNL     1      24.478  -0.590  53.363  1.00  0.00     0.041 C 
HETATM   15  C16 UNL     1      22.259  -0.031  53.940  1.00  0.00    -0.058 C 
HETATM   16  C15 UNL     1      21.134   0.541  53.591  1.00  0.00     0.008 C 
HETATM   17  C17 UNL     1      22.238  -1.156  54.904  1.00  0.00     0.048 C 
HETATM   18  C14 UNL     1      20.691   1.638  52.684  1.00  0.00     0.017 C 
HETATM   19  C13 UNL     1      21.695   2.256  52.018  1.00  0.00     0.088 C 
ENDBRANCH   1  11
BRANCH   3  20
HETATM   20  O1  UNL     1      24.393   6.223  51.298  1.00  0.00    -0.360 OA
HETATM   21  C7  UNL     1      25.213   6.815  50.318  1.00  0.00     0.209 C 
ENDBRANCH   3  20
TORSDOF 2
ENDMDL
MODEL 7
REMARK VINA RESULT:      -6.4      8.037      9.640
REMARK  2 active torsions:
REMARK  status: ('A' for Active; 'I' for Inactive)
REMARK    1  A    between atoms: N1_4  and  C4_5 
REMARK    2  A    between atoms: C6_7  and  O1_8 
ROOT
HETATM    1  C4  UNL     1      31.220   6.258  48.605  1.00  0.00     0.235 C 
HETATM    2  C5  UNL     1      29.772   5.633  48.587  1.00  0.00     0.053 C 
HETATM    3  C6  UNL     1      28.819   6.491  48.020  1.00  0.00     0.045 C 
HETATM    4  C8  UNL     1      28.549   7.676  47.435  1.00  0.00     0.065 C 
HETATM    5  C9  UNL     1      28.304   8.488  46.263  1.00  0.00    -0.012 C 
HETATM    6  C10 UNL     1      29.175   9.615  46.027  1.00  0.00     0.063 C 
HETATM    7  C11 UNL     1      30.204   9.691  47.145  1.00  0.00     0.096 C 
HETATM    8  N2  UNL     1      30.951   9.602  48.108  1.00  0.00    -0.258 NA
HETATM    9  C12 UNL     1      31.091   8.703  49.225  1.00  0.00     0.228 C 
HETATM   10  N3  UNL     1      31.127   7.627  48.621  1.00  0.00    -0.253 NA
ENDROOT
BRANCH   1  11
HETATM   11  N1  UNL     1      31.774   5.795  47.350  1.00  0.00    -0.360 N 
HETATM   12  C3  UNL     1      32.081   4.361  47.335  1.00  0.00     0.159 C 
HETATM   13  C2  UNL     1      33.480   4.104  46.960  1.00  0.00    -0.056 C 
HETATM   14  C1  UNL     1      34.199   3.403  47.816  1.00  0.00     0.041 C 
HETATM   15  C16 UNL     1      34.146   4.533  45.744  1.00  0.00    -0.058 C 
HETATM   16  C15 UNL     1      33.832   5.618  45.082  1.00  0.00     0.008 C 
HETATM   17  C17 UNL     1      35.258   3.680  45.263  1.00  0.00     0.048 C 
HETATM   18  C14 UNL     1      32.850   6.734  45.198  1.00  0.00     0.017 C 
HETATM   19  C13 UNL     1      32.021   6.643  46.264  1.00  0.00     0.088 C 
ENDBRANCH   1  11
BRANCH   3  20
HETATM   20  O1  UNL     1      27.554   5.893  48.036  1.00  0.00    -0.360 OA
HETATM   21  C7  UNL     1      27.477   4.681  48.752  1.00  0.00     0.209 C 
ENDBRANCH   3  20
TORSDOF 2
ENDMDL
MODEL 8
REMARK VINA RESULT:      -6.4      2.002      3.277
REMARK  2 active torsions:
REMARK  status: ('A' for Active; 'I' for Inactive)
REMARK    1  A    between atoms: N1_4  and  C4_5 
REMARK    2  A    between atoms: C6_7  and  O1_8 
ROOT
HETATM    1  C4  UNL     1      21.182   3.228  52.289  1.00  0.00     0.235 C 
HETATM    2  C5  UNL     1      20.224   1.985  52.135  1.00  0.00     0.053 C 
HETATM    3  C6  UNL     1      20.208   1.470  50.831  1.00  0.00     0.045 C 
HETATM    4  C8  UNL     1      20.671   1.542  49.567  1.00  0.00     0.065 C 
HETATM    5  C9  UNL     1      21.553   1.097  48.510  1.00  0.00    -0.012 C 
HETATM    6  C10 UNL     1      22.431   2.071  47.906  1.00  0.00     0.063 C 
HETATM    7  C11 UNL     1      22.198   3.424  48.563  1.00  0.00     0.096 C 
HETATM    8  N2  UNL     1      21.890   4.423  49.194  1.00  0.00    -0.258 NA
HETATM    9  C12 UNL     1      20.975   4.726  50.265  1.00  0.00     0.228 C 
HETATM   10  N3  UNL     1      21.311   3.858  51.077  1.00  0.00    -0.253 NA
ENDROOT
BRANCH   1  11
HETATM   11  N1  UNL     1      22.431   2.609  52.682  1.00  0.00    -0.360 N 
HETATM   12  C3  UNL     1      23.592   3.497  52.560  1.00  0.00     0.159 C 
HETATM   13  C2  UNL     1      24.652   2.903  51.731  1.00  0.00    -0.056 C 
HETATM   14  C1  UNL     1      25.048   3.609  50.688  1.00  0.00     0.041 C 
HETATM   15  C16 UNL     1      25.312   1.629  51.946  1.00  0.00    -0.058 C 
HETATM   16  C15 UNL     1      24.744   0.601  52.525  1.00  0.00     0.008 C 
HETATM   17  C17 UNL     1      26.703   1.513  51.450  1.00  0.00     0.048 C 
HETATM   18  C14 UNL     1      23.423   0.268  53.130  1.00  0.00     0.017 C 
HETATM   19  C13 UNL     1      22.525   1.280  53.110  1.00  0.00     0.088 C 
ENDBRANCH   1  11
BRANCH   3  20
HETATM   20  O1  UNL     1      19.337   0.378  50.749  1.00  0.00    -0.360 OA
HETATM   21  C7  UNL     1      18.077   0.661  50.185  1.00  0.00     0.209 C 
ENDBRANCH   3  20
TORSDOF 2
ENDMDL
MODEL 9
REMARK VINA RESULT:      -6.3      9.189     11.677
REMARK  2 active torsions:
REMARK  status: ('A' for Active; 'I' for Inactive)
REMARK    1  A    between atoms: N1_4  and  C4_5 
REMARK    2  A    between atoms: C6_7  and  O1_8 
ROOT
HETATM    1  C4  UNL     1      33.018   7.433  46.503  1.00  0.00     0.235 C 
HETATM    2  C5  UNL     1      33.434   6.934  45.066  1.00  0.00     0.053 C 
HETATM    3  C6  UNL     1      34.146   5.727  45.096  1.00  0.00     0.045 C 
HETATM    4  C8  UNL     1      34.665   4.723  45.830  1.00  0.00     0.065 C 
HETATM    5  C9  UNL     1      34.607   3.381  46.370  1.00  0.00    -0.012 C 
HETATM    6  C10 UNL     1      34.665   3.226  47.804  1.00  0.00     0.063 C 
HETATM    7  C11 UNL     1      34.789   4.599  48.448  1.00  0.00     0.096 C 
HETATM    8  N2  UNL     1      34.881   5.766  48.795  1.00  0.00    -0.258 NA
HETATM    9  C12 UNL     1      34.914   7.042  48.127  1.00  0.00     0.228 C 
HETATM   10  N3  UNL     1      33.899   6.937  47.431  1.00  0.00    -0.253 NA
ENDROOT
BRANCH   1  11
HETATM   11  N1  UNL     1      31.707   6.841  46.670  1.00  0.00    -0.360 N 
HETATM   12  C3  UNL     1      30.637   7.581  45.993  1.00  0.00     0.159 C 
HETATM   13  C2  UNL     1      29.551   7.941  46.917  1.00  0.00    -0.056 C 
HETATM   14  C1  UNL     1      29.251   9.224  46.999  1.00  0.00     0.041 C 
HETATM   15  C16 UNL     1      28.771   7.034  47.737  1.00  0.00    -0.058 C 
HETATM   16  C15 UNL     1      29.225   5.899  48.206  1.00  0.00     0.008 C 
HETATM   17  C17 UNL     1      27.390   7.458  48.063  1.00  0.00     0.048 C 
HETATM   18  C14 UNL     1      30.493   5.115  48.158  1.00  0.00     0.017 C 
HETATM   19  C13 UNL     1      31.480   5.689  47.431  1.00  0.00     0.088 C 
ENDBRANCH   1  11
BRANCH   3  20
HETATM   20  O1  UNL     1      34.497   5.335  43.798  1.00  0.00    -0.360 OA
HETATM   21  C7  UNL     1      33.458   4.738  43.055  1.00  0.00     0.209 C 
ENDBRANCH   3  20
TORSDOF 2
ENDMDL
