MODEL 1
REMARK VINA RESULT:      -8.1      0.000      0.000
REMARK  6 active torsions:
REMARK  status: ('A' for Active; 'I' for Inactive)
REMARK    1  A    between atoms: C2_2  and  N4_18 
REMARK    2  A    between atoms: C3_3  and  C4_4 
REMARK    3  A    between atoms: C6_6  and  N1_7 
REMARK    4  A    between atoms: N1_7  and  C7_8 
REMARK    5  A    between atoms: N4_18  and  C14_19 
REMARK    6  A    between atoms: C14_19  and  C15_20 
ROOT
HETATM    1  C4  UNL     1      22.604   2.301  50.956  1.00  0.00     0.141 A 
HETATM    2  C5  UNL     1      23.446   3.484  51.256  1.00  0.00     0.110 A 
HETATM    3  C6  UNL     1      23.852   4.195  50.035  1.00  0.00     0.108 A 
HETATM    4  N2  UNL     1      23.578   3.922  48.797  1.00  0.00    -0.229 NA
HETATM    5  C13 UNL     1      22.758   2.753  48.618  1.00  0.00     0.229 A 
HETATM    6  N3  UNL     1      22.359   2.080  49.593  1.00  0.00    -0.273 NA
ENDROOT
BRANCH   1   7
HETATM    7  C3  UNL     1      23.135   1.069  51.648  1.00  0.00     0.025 C 
HETATM    8  C2  UNL     1      22.525   0.421  52.651  1.00  0.00    -0.001 C 
HETATM    9  C1  UNL     1      21.225   1.026  53.057  1.00  0.00     0.067 C 
BRANCH   8  10
HETATM   10  N4  UNL     1      23.226  -0.696  53.121  1.00  0.00    -0.389 N 
HETATM   11  H14 UNL     1      23.247  -1.546  52.482  1.00  0.00     0.159 HD
BRANCH  10  12
HETATM   12  C14 UNL     1      23.894  -0.703  54.408  1.00  0.00     0.158 C 
BRANCH  12  13
HETATM   13  C15 UNL     1      25.356  -0.550  54.265  1.00  0.00    -0.041 A 
HETATM   14  C16 UNL     1      26.210   0.056  55.166  1.00  0.00     0.010 A 
HETATM   15  C17 UNL     1      27.573   0.143  54.925  1.00  0.00     0.019 A 
HETATM   16  C18 UNL     1      28.122  -0.387  53.756  1.00  0.00     0.011 A 
HETATM   17 BR2  UNL     1      29.988  -0.296  53.375  1.00  0.00    -0.051 Br
HETATM   18  C19 UNL     1      27.302  -1.007  52.820  1.00  0.00     0.019 A 
HETATM   19  C20 UNL     1      25.954  -1.060  53.118  1.00  0.00     0.010 A 
ENDBRANCH  12  13
ENDBRANCH  10  12
ENDBRANCH   8  10
ENDBRANCH   1   7
BRANCH   3  20
HETATM   20  N1  UNL     1      24.665   5.351  50.235  1.00  0.00    -0.344 N 
HETATM   21  H8  UNL     1      24.481   6.122  50.922  1.00  0.00     0.167 HD
BRANCH  20  22
HETATM   22  C7  UNL     1      25.877   5.655  49.527  1.00  0.00     0.034 A 
HETATM   23  C8  UNL     1      26.762   4.620  49.216  1.00  0.00     0.029 A 
HETATM   24  C9  UNL     1      27.948   4.888  48.528  1.00  0.00     0.004 A 
HETATM   25  C10 UNL     1      28.255   6.189  48.147  1.00  0.00     0.019 A 
HETATM   26  C11 UNL     1      27.368   7.224  48.460  1.00  0.00     0.013 A 
HETATM   27 BR1  UNL     1      27.723   9.030  47.971  1.00  0.00    -0.051 Br
HETATM   28  C12 UNL     1      26.181   6.958  49.149  1.00  0.00     0.048 A 
ENDBRANCH  20  22
ENDBRANCH   3  20
TORSDOF 6
ENDMDL
MODEL 2
REMARK VINA RESULT:      -8.1      1.478      6.786
REMARK  6 active torsions:
REMARK  status: ('A' for Active; 'I' for Inactive)
REMARK    1  A    between atoms: C2_2  and  N4_18 
REMARK    2  A    between atoms: C3_3  and  C4_4 
REMARK    3  A    between atoms: C6_6  and  N1_7 
REMARK    4  A    between atoms: N1_7  and  C7_8 
REMARK    5  A    between atoms: N4_18  and  C14_19 
REMARK    6  A    between atoms: C14_19  and  C15_20 
ROOT
HETATM    1  C4  UNL     1      21.976   1.353  51.036  1.00  0.00     0.141 A 
HETATM    2  C5  UNL     1      23.180   0.709  51.615  1.00  0.00     0.110 A 
HETATM    3  C6  UNL     1      23.007   0.399  53.041  1.00  0.00     0.108 A 
HETATM    4  N2  UNL     1      21.985   0.614  53.810  1.00  0.00    -0.229 NA
HETATM    5  C13 UNL     1      20.873   1.246  53.150  1.00  0.00     0.229 A 
HETATM    6  N3  UNL     1      20.919   1.548  51.938  1.00  0.00    -0.273 NA
ENDROOT
BRANCH   1   7
HETATM    7  C3  UNL     1      22.341   2.620  50.300  1.00  0.00     0.025 C 
HETATM    8  C2  UNL     1      22.324   2.772  48.969  1.00  0.00    -0.001 C 
HETATM    9  C1  UNL     1      21.902   1.551  48.226  1.00  0.00     0.067 C 
BRANCH   8  10
HETATM   10  N4  UNL     1      22.706   4.047  48.534  1.00  0.00    -0.389 N 
HETATM   11  H14 UNL     1      22.494   4.286  47.520  1.00  0.00     0.159 HD
BRANCH  10  12
HETATM   12  C14 UNL     1      23.356   5.000  49.414  1.00  0.00     0.158 C 
BRANCH  12  13
HETATM   13  C15 UNL     1      24.809   5.072  49.161  1.00  0.00    -0.041 A 
HETATM   14  C16 UNL     1      25.731   4.066  49.376  1.00  0.00     0.010 A 
HETATM   15  C17 UNL     1      27.077   4.247  49.100  1.00  0.00     0.019 A 
HETATM   16  C18 UNL     1      27.541   5.461  48.592  1.00  0.00     0.011 A 
HETATM   17 BR2  UNL     1      29.380   5.764  48.195  1.00  0.00    -0.051 Br
HETATM   18  C19 UNL     1      26.650   6.504  48.358  1.00  0.00     0.019 A 
HETATM   19  C20 UNL     1      25.322   6.260  48.654  1.00  0.00     0.010 A 
ENDBRANCH  12  13
ENDBRANCH  10  12
ENDBRANCH   8  10
ENDBRANCH   1   7
BRANCH   3  20
HETATM   20  N1  UNL     1      24.121  -0.226  53.676  1.00  0.00    -0.344 N 
HETATM   21  H8  UNL     1      24.090  -1.101  54.256  1.00  0.00     0.167 HD
BRANCH  20  22
HETATM   22  C7  UNL     1      25.481   0.237  53.630  1.00  0.00     0.034 A 
HETATM   23  C8  UNL     1      25.735   1.609  53.698  1.00  0.00     0.029 A 
HETATM   24  C9  UNL     1      27.047   2.087  53.655  1.00  0.00     0.004 A 
HETATM   25  C10 UNL     1      28.109   1.198  53.544  1.00  0.00     0.019 A 
HETATM   26  C11 UNL     1      27.853  -0.174  53.475  1.00  0.00     0.013 A 
HETATM   27 BR1  UNL     1      29.259  -1.450  53.321  1.00  0.00    -0.051 Br
HETATM   28  C12 UNL     1      26.541  -0.656  53.518  1.00  0.00     0.048 A 
ENDBRANCH  20  22
ENDBRANCH   3  20
TORSDOF 6
ENDMDL
MODEL 3
REMARK VINA RESULT:      -8.1      2.875      6.548
REMARK  6 active torsions:
REMARK  status: ('A' for Active; 'I' for Inactive)
REMARK    1  A    between atoms: C2_2  and  N4_18 
REMARK    2  A    between atoms: C3_3  and  C4_4 
REMARK    3  A    between atoms: C6_6  and  N1_7 
REMARK    4  A    between atoms: N1_7  and  C7_8 
REMARK    5  A    between atoms: N4_18  and  C14_19 
REMARK    6  A    between atoms: C14_19  and  C15_20 
ROOT
HETATM    1  C4  UNL     1      21.015   0.484  52.870  1.00  0.00     0.141 A 
HETATM    2  C5  UNL     1      22.391   0.175  52.409  1.00  0.00     0.110 A 
HETATM    3  C6  UNL     1      23.169  -0.531  53.438  1.00  0.00     0.108 A 
HETATM    4  N2  UNL     1      22.815  -0.891  54.632  1.00  0.00    -0.229 NA
HETATM    5  C13 UNL     1      21.463  -0.540  54.978  1.00  0.00     0.229 A 
HETATM    6  N3  UNL     1      20.718   0.060  54.173  1.00  0.00    -0.273 NA
ENDROOT
BRANCH   1   7
HETATM    7  C3  UNL     1      20.687   1.942  52.655  1.00  0.00     0.025 C 
HETATM    8  C2  UNL     1      19.917   2.424  51.670  1.00  0.00    -0.001 C 
HETATM    9  C1  UNL     1      19.379   1.377  50.756  1.00  0.00     0.067 C 
BRANCH   8  10
HETATM   10  N4  UNL     1      19.767   3.817  51.690  1.00  0.00    -0.389 N 
HETATM   11  H14 UNL     1      19.155   4.217  52.462  1.00  0.00     0.159 HD
BRANCH  10  12
HETATM   12  C14 UNL     1      20.410   4.677  50.715  1.00  0.00     0.158 C 
BRANCH  12  13
HETATM   13  C15 UNL     1      21.856   4.399  50.613  1.00  0.00    -0.041 A 
HETATM   14  C16 UNL     1      22.816   4.684  51.565  1.00  0.00     0.010 A 
HETATM   15  C17 UNL     1      24.153   4.376  51.360  1.00  0.00     0.019 A 
HETATM   16  C18 UNL     1      24.567   3.763  50.177  1.00  0.00     0.011 A 
HETATM   17 BR2  UNL     1      26.390   3.318  49.844  1.00  0.00    -0.051 Br
HETATM   18  C19 UNL     1      23.637   3.456  49.189  1.00  0.00     0.019 A 
HETATM   19  C20 UNL     1      22.322   3.789  49.454  1.00  0.00     0.010 A 
ENDBRANCH  12  13
ENDBRANCH  10  12
ENDBRANCH   8  10
ENDBRANCH   1   7
BRANCH   3  20
HETATM   20  N1  UNL     1      24.507  -0.869  53.074  1.00  0.00    -0.344 N 
HETATM   21  H8  UNL     1      24.816  -1.766  52.626  1.00  0.00     0.167 HD
BRANCH  20  22
HETATM   22  C7  UNL     1      25.662  -0.035  53.261  1.00  0.00     0.034 A 
HETATM   23  C8  UNL     1      25.493   1.347  53.374  1.00  0.00     0.029 A 
HETATM   24  C9  UNL     1      26.599   2.181  53.557  1.00  0.00     0.004 A 
HETATM   25  C10 UNL     1      27.877   1.639  53.628  1.00  0.00     0.019 A 
HETATM   26  C11 UNL     1      28.044   0.256  53.514  1.00  0.00     0.013 A 
HETATM   27 BR1  UNL     1      29.765  -0.557  53.600  1.00  0.00    -0.051 Br
HETATM   28  C12 UNL     1      26.939  -0.581  53.330  1.00  0.00     0.048 A 
ENDBRANCH  20  22
ENDBRANCH   3  20
TORSDOF 6
ENDMDL
MODEL 4
REMARK VINA RESULT:      -7.7      3.217      8.174
REMARK  6 active torsions:
REMARK  status: ('A' for Active; 'I' for Inactive)
REMARK    1  A    between atoms: C2_2  and  N4_18 
REMARK    2  A    between atoms: C3_3  and  C4_4 
REMARK    3  A    between atoms: C6_6  and  N1_7 
REMARK    4  A    between atoms: N1_7  and  C7_8 
REMARK    5  A    between atoms: N4_18  and  C14_19 
REMARK    6  A    between atoms: C14_19  and  C15_20 
ROOT
HETATM    1  C4  UNL     1      24.744   5.309  49.544  1.00  0.00     0.141 A 
HETATM    2  C5  UNL     1      24.447   3.856  49.557  1.00  0.00     0.110 A 
HETATM    3  C6  UNL     1      23.537   3.490  50.651  1.00  0.00     0.108 A 
HETATM    4  N2  UNL     1      22.996   4.244  51.557  1.00  0.00    -0.229 NA
HETATM    5  C13 UNL     1      23.352   5.635  51.455  1.00  0.00     0.229 A 
HETATM    6  N3  UNL     1      24.119   6.049  50.558  1.00  0.00    -0.273 NA
ENDROOT
BRANCH   1   7
HETATM    7  C3  UNL     1      26.232   5.557  49.490  1.00  0.00     0.025 C 
HETATM    8  C2  UNL     1      26.837   6.454  48.698  1.00  0.00    -0.001 C 
HETATM    9  C1  UNL     1      25.901   7.226  47.833  1.00  0.00     0.067 C 
BRANCH   8  10
HETATM   10  N4  UNL     1      28.230   6.490  48.837  1.00  0.00    -0.389 N 
HETATM   11  H14 UNL     1      28.625   7.253  49.463  1.00  0.00     0.159 HD
BRANCH  10  12
HETATM   12  C14 UNL     1      29.098   5.540  48.167  1.00  0.00     0.158 C 
BRANCH  12  13
HETATM   13  C15 UNL     1      30.521   5.911  48.304  1.00  0.00    -0.041 A 
HETATM   14  C16 UNL     1      31.018   7.047  48.915  1.00  0.00     0.010 A 
HETATM   15  C17 UNL     1      32.380   7.293  48.986  1.00  0.00     0.019 A 
HETATM   16  C18 UNL     1      33.294   6.392  48.438  1.00  0.00     0.011 A 
HETATM   17 BR2  UNL     1      35.176   6.681  48.507  1.00  0.00    -0.051 Br
HETATM   18  C19 UNL     1      32.841   5.234  47.813  1.00  0.00     0.019 A 
HETATM   19  C20 UNL     1      31.472   5.047  47.775  1.00  0.00     0.010 A 
ENDBRANCH  12  13
ENDBRANCH  10  12
ENDBRANCH   8  10
ENDBRANCH   1   7
BRANCH   3  20
HETATM   20  N1  UNL     1      23.197   2.106  50.734  1.00  0.00    -0.344 N 
HETATM   21  H8  UNL     1      22.637   1.565  50.031  1.00  0.00     0.167 HD
BRANCH  20  22
HETATM   22  C7  UNL     1      23.567   1.215  51.799  1.00  0.00     0.034 A 
HETATM   23  C8  UNL     1      24.921   1.022  52.086  1.00  0.00     0.029 A 
HETATM   24  C9  UNL     1      25.308   0.161  53.116  1.00  0.00     0.004 A 
HETATM   25  C10 UNL     1      24.348  -0.509  53.863  1.00  0.00     0.019 A 
HETATM   26  C11 UNL     1      22.994  -0.316  53.574  1.00  0.00     0.013 A 
HETATM   27 BR1  UNL     1      21.622  -1.202  54.555  1.00  0.00    -0.051 Br
HETATM   28  C12 UNL     1      22.603   0.545  52.544  1.00  0.00     0.048 A 
ENDBRANCH  20  22
ENDBRANCH   3  20
TORSDOF 6
ENDMDL
MODEL 5
REMARK VINA RESULT:      -7.5      3.013      6.537
REMARK  6 active torsions:
REMARK  status: ('A' for Active; 'I' for Inactive)
REMARK    1  A    between atoms: C2_2  and  N4_18 
REMARK    2  A    between atoms: C3_3  and  C4_4 
REMARK    3  A    between atoms: C6_6  and  N1_7 
REMARK    4  A    between atoms: N1_7  and  C7_8 
REMARK    5  A    between atoms: N4_18  and  C14_19 
REMARK    6  A    between atoms: C14_19  and  C15_20 
ROOT
HETATM    1  C4  UNL     1      24.280   4.333  49.851  1.00  0.00     0.141 A 
HETATM    2  C5  UNL     1      24.466   3.652  51.156  1.00  0.00     0.110 A 
HETATM    3  C6  UNL     1      25.858   3.226  51.360  1.00  0.00     0.108 A 
HETATM    4  N2  UNL     1      26.883   3.365  50.578  1.00  0.00    -0.229 NA
HETATM    5  C13 UNL     1      26.592   4.036  49.339  1.00  0.00     0.229 A 
HETATM    6  N3  UNL     1      25.440   4.439  49.069  1.00  0.00    -0.273 NA
ENDROOT
BRANCH   1   7
HETATM    7  C3  UNL     1      23.127   3.731  49.085  1.00  0.00     0.025 C 
HETATM    8  C2  UNL     1      21.867   4.190  49.097  1.00  0.00    -0.001 C 
HETATM    9  C1  UNL     1      21.670   5.390  49.957  1.00  0.00     0.067 C 
BRANCH   8  10
HETATM   10  N4  UNL     1      20.983   3.452  48.300  1.00  0.00    -0.389 N 
HETATM   11  H14 UNL     1      20.438   3.997  47.567  1.00  0.00     0.159 HD
BRANCH  10  12
HETATM   12  C14 UNL     1      20.813   2.020  48.458  1.00  0.00     0.158 C 
BRANCH  12  13
HETATM   13  C15 UNL     1      20.715   1.637  49.880  1.00  0.00    -0.041 A 
HETATM   14  C16 UNL     1      19.789   2.103  50.794  1.00  0.00     0.010 A 
HETATM   15  C17 UNL     1      19.793   1.670  52.112  1.00  0.00     0.019 A 
HETATM   16  C18 UNL     1      20.738   0.743  52.552  1.00  0.00     0.011 A 
HETATM   17 BR2  UNL     1      20.787   0.115  54.351  1.00  0.00    -0.051 Br
HETATM   18  C19 UNL     1      21.690   0.245  51.668  1.00  0.00     0.019 A 
HETATM   19  C20 UNL     1      21.634   0.716  50.370  1.00  0.00     0.010 A 
ENDBRANCH  12  13
ENDBRANCH  10  12
ENDBRANCH   8  10
ENDBRANCH   1   7
BRANCH   3  20
HETATM   20  N1  UNL     1      26.124   2.563  52.596  1.00  0.00    -0.344 N 
HETATM   21  H8  UNL     1      26.061   2.991  53.551  1.00  0.00     0.167 HD
BRANCH  20  22
HETATM   22  C7  UNL     1      26.524   1.190  52.740  1.00  0.00     0.034 A 
HETATM   23  C8  UNL     1      25.571   0.182  52.574  1.00  0.00     0.029 A 
HETATM   24  C9  UNL     1      25.933  -1.161  52.709  1.00  0.00     0.004 A 
HETATM   25  C10 UNL     1      27.246  -1.502  53.010  1.00  0.00     0.019 A 
HETATM   26  C11 UNL     1      28.198  -0.492  53.177  1.00  0.00     0.013 A 
HETATM   27 BR1  UNL     1      30.015  -0.885  53.591  1.00  0.00    -0.051 Br
HETATM   28  C12 UNL     1      27.839   0.853  53.043  1.00  0.00     0.048 A 
ENDBRANCH  20  22
ENDBRANCH   3  20
TORSDOF 6
ENDMDL
MODEL 6
REMARK VINA RESULT:      -7.5      2.851      8.142
REMARK  6 active torsions:
REMARK  status: ('A' for Active; 'I' for Inactive)
REMARK    1  A    between atoms: C2_2  and  N4_18 
REMARK    2  A    between atoms: C3_3  and  C4_4 
REMARK    3  A    between atoms: C6_6  and  N1_7 
REMARK    4  A    between atoms: N1_7  and  C7_8 
REMARK    5  A    between atoms: N4_18  and  C14_19 
REMARK    6  A    between atoms: C14_19  and  C15_20 
ROOT
HETATM    1  C4  UNL     1      24.624   5.203  49.441  1.00  0.00     0.141 A 
HETATM    2  C5  UNL     1      24.260   3.766  49.378  1.00  0.00     0.110 A 
HETATM    3  C6  UNL     1      23.335   3.386  50.456  1.00  0.00     0.108 A 
HETATM    4  N2  UNL     1      22.832   4.116  51.402  1.00  0.00    -0.229 NA
HETATM    5  C13 UNL     1      23.252   5.492  51.372  1.00  0.00     0.229 A 
HETATM    6  N3  UNL     1      24.036   5.916  50.495  1.00  0.00    -0.273 NA
ENDROOT
BRANCH   1   7
HETATM    7  C3  UNL     1      26.122   5.384  49.394  1.00  0.00     0.025 C 
HETATM    8  C2  UNL     1      26.766   6.309  48.667  1.00  0.00    -0.001 C 
HETATM    9  C1  UNL     1      25.864   7.187  47.871  1.00  0.00     0.067 C 
BRANCH   8  10
HETATM   10  N4  UNL     1      28.160   6.269  48.798  1.00  0.00    -0.389 N 
HETATM   11  H14 UNL     1      28.572   5.384  49.219  1.00  0.00     0.159 HD
BRANCH  10  12
HETATM   12  C14 UNL     1      29.006   7.370  48.381  1.00  0.00     0.158 C 
BRANCH  12  13
HETATM   13  C15 UNL     1      30.438   7.019  48.465  1.00  0.00    -0.041 A 
HETATM   14  C16 UNL     1      31.478   7.879  48.761  1.00  0.00     0.010 A 
HETATM   15  C17 UNL     1      32.791   7.436  48.812  1.00  0.00     0.019 A 
HETATM   16  C18 UNL     1      33.099   6.098  48.565  1.00  0.00     0.011 A 
HETATM   17 BR2  UNL     1      34.885   5.435  48.623  1.00  0.00    -0.051 Br
HETATM   18  C19 UNL     1      32.085   5.194  48.264  1.00  0.00     0.019 A 
HETATM   19  C20 UNL     1      30.799   5.698  48.228  1.00  0.00     0.010 A 
ENDBRANCH  12  13
ENDBRANCH  10  12
ENDBRANCH   8  10
ENDBRANCH   1   7
BRANCH   3  20
HETATM   20  N1  UNL     1      22.932   2.017  50.467  1.00  0.00    -0.344 N 
HETATM   21  H8  UNL     1      22.506   1.493  49.663  1.00  0.00     0.167 HD
BRANCH  20  22
HETATM   22  C7  UNL     1      23.041   1.120  51.584  1.00  0.00     0.034 A 
HETATM   23  C8  UNL     1      21.926   0.371  51.967  1.00  0.00     0.029 A 
HETATM   24  C9  UNL     1      22.004  -0.509  53.050  1.00  0.00     0.004 A 
HETATM   25  C10 UNL     1      23.194  -0.643  53.754  1.00  0.00     0.019 A 
HETATM   26  C11 UNL     1      24.308   0.109  53.371  1.00  0.00     0.013 A 
HETATM   27 BR1  UNL     1      25.971  -0.023  54.290  1.00  0.00    -0.051 Br
HETATM   28  C12 UNL     1      24.233   0.990  52.288  1.00  0.00     0.048 A 
ENDBRANCH  20  22
ENDBRANCH   3  20
TORSDOF 6
ENDMDL
MODEL 7
REMARK VINA RESULT:      -7.4      3.336      6.662
REMARK  6 active torsions:
REMARK  status: ('A' for Active; 'I' for Inactive)
REMARK    1  A    between atoms: C2_2  and  N4_18 
REMARK    2  A    between atoms: C3_3  and  C4_4 
REMARK    3  A    between atoms: C6_6  and  N1_7 
REMARK    4  A    between atoms: N1_7  and  C7_8 
REMARK    5  A    between atoms: N4_18  and  C14_19 
REMARK    6  A    between atoms: C14_19  and  C15_20 
ROOT
HETATM    1  C4  UNL     1      22.555   3.414  49.399  1.00  0.00     0.141 A 
HETATM    2  C5  UNL     1      21.675   2.221  49.359  1.00  0.00     0.110 A 
HETATM    3  C6  UNL     1      20.274   2.578  49.095  1.00  0.00     0.108 A 
HETATM    4  N2  UNL     1      19.746   3.748  48.907  1.00  0.00    -0.229 NA
HETATM    5  C13 UNL     1      20.687   4.836  48.969  1.00  0.00     0.229 A 
HETATM    6  N3  UNL     1      21.901   4.637  49.187  1.00  0.00    -0.273 NA
ENDROOT
BRANCH   1   7
HETATM    7  C3  UNL     1      23.395   3.426  50.653  1.00  0.00     0.025 C 
HETATM    8  C2  UNL     1      24.726   3.586  50.690  1.00  0.00    -0.001 C 
HETATM    9  C1  UNL     1      25.351   3.761  49.349  1.00  0.00     0.067 C 
BRANCH   8  10
HETATM   10  N4  UNL     1      25.269   3.558  51.980  1.00  0.00    -0.389 N 
HETATM   11  H14 UNL     1      25.941   4.344  52.229  1.00  0.00     0.159 HD
BRANCH  10  12
HETATM   12  C14 UNL     1      24.939   2.517  52.935  1.00  0.00     0.158 C 
BRANCH  12  13
HETATM   13  C15 UNL     1      26.025   1.525  53.056  1.00  0.00    -0.041 A 
HETATM   14  C16 UNL     1      25.912   0.159  52.881  1.00  0.00     0.010 A 
HETATM   15  C17 UNL     1      27.006  -0.682  53.020  1.00  0.00     0.019 A 
HETATM   16  C18 UNL     1      28.262  -0.165  53.342  1.00  0.00     0.011 A 
HETATM   17 BR2  UNL     1      29.798  -1.274  53.545  1.00  0.00    -0.051 Br
HETATM   18  C19 UNL     1      28.425   1.204  53.528  1.00  0.00     0.019 A 
HETATM   19  C20 UNL     1      27.296   1.987  53.375  1.00  0.00     0.010 A 
ENDBRANCH  12  13
ENDBRANCH  10  12
ENDBRANCH   8  10
ENDBRANCH   1   7
BRANCH   3  20
HETATM   20  N1  UNL     1      19.359   1.485  49.038  1.00  0.00    -0.344 N 
HETATM   21  H8  UNL     1      18.934   1.081  48.168  1.00  0.00     0.167 HD
BRANCH  20  22
HETATM   22  C7  UNL     1      18.863   0.748  50.168  1.00  0.00     0.034 A 
HETATM   23  C8  UNL     1      17.538   0.304  50.162  1.00  0.00     0.029 A 
HETATM   24  C9  UNL     1      17.030  -0.415  51.247  1.00  0.00     0.004 A 
HETATM   25  C10 UNL     1      17.841  -0.693  52.341  1.00  0.00     0.019 A 
HETATM   26  C11 UNL     1      19.166  -0.247  52.345  1.00  0.00     0.013 A 
HETATM   27 BR1  UNL     1      20.335  -0.591  53.809  1.00  0.00    -0.051 Br
HETATM   28  C12 UNL     1      19.678   0.472  51.261  1.00  0.00     0.048 A 
ENDBRANCH  20  22
ENDBRANCH   3  20
TORSDOF 6
ENDMDL
MODEL 8
REMARK VINA RESULT:      -7.3      3.144      8.314
REMARK  6 active torsions:
REMARK  status: ('A' for Active; 'I' for Inactive)
REMARK    1  A    between atoms: C2_2  and  N4_18 
REMARK    2  A    between atoms: C3_3  and  C4_4 
REMARK    3  A    between atoms: C6_6  and  N1_7 
REMARK    4  A    between atoms: N1_7  and  C7_8 
REMARK    5  A    between atoms: N4_18  and  C14_19 
REMARK    6  A    between atoms: C14_19  and  C15_20 
ROOT
HETATM    1  C4  UNL     1      25.285   5.606  49.344  1.00  0.00     0.141 A 
HETATM    2  C5  UNL     1      24.662   4.261  49.383  1.00  0.00     0.110 A 
HETATM    3  C6  UNL     1      23.744   4.113  50.522  1.00  0.00     0.108 A 
HETATM    4  N2  UNL     1      23.436   4.969  51.445  1.00  0.00    -0.229 NA
HETATM    5  C13 UNL     1      24.098   6.240  51.315  1.00  0.00     0.229 A 
HETATM    6  N3  UNL     1      24.897   6.468  50.380  1.00  0.00    -0.273 NA
ENDROOT
BRANCH   1   7
HETATM    7  C3  UNL     1      26.786   5.504  49.219  1.00  0.00     0.025 C 
HETATM    8  C2  UNL     1      27.558   6.315  48.481  1.00  0.00    -0.001 C 
HETATM    9  C1  UNL     1      26.800   7.376  47.759  1.00  0.00     0.067 C 
BRANCH   8  10
HETATM   10  N4  UNL     1      28.923   6.009  48.533  1.00  0.00    -0.389 N 
HETATM   11  H14 UNL     1      29.178   5.037  48.879  1.00  0.00     0.159 HD
BRANCH  10  12
HETATM   12  C14 UNL     1      29.943   6.961  48.136  1.00  0.00     0.158 C 
BRANCH  12  13
HETATM   13  C15 UNL     1      31.086   6.292  47.483  1.00  0.00    -0.041 A 
HETATM   14  C16 UNL     1      31.807   6.766  46.403  1.00  0.00     0.010 A 
HETATM   15  C17 UNL     1      32.867   6.049  45.869  1.00  0.00     0.019 A 
HETATM   16  C18 UNL     1      33.238   4.820  46.414  1.00  0.00     0.011 A 
HETATM   17 BR2  UNL     1      34.686   3.794  45.720  1.00  0.00    -0.051 Br
HETATM   18  C19 UNL     1      32.543   4.302  47.502  1.00  0.00     0.019 A 
HETATM   19  C20 UNL     1      31.497   5.064  47.987  1.00  0.00     0.010 A 
ENDBRANCH  12  13
ENDBRANCH  10  12
ENDBRANCH   8  10
ENDBRANCH   1   7
BRANCH   3  20
HETATM   20  N1  UNL     1      23.098   2.845  50.632  1.00  0.00    -0.344 N 
HETATM   21  H8  UNL     1      22.335   2.485  50.008  1.00  0.00     0.167 HD
BRANCH  20  22
HETATM   22  C7  UNL     1      23.385   1.842  51.620  1.00  0.00     0.034 A 
HETATM   23  C8  UNL     1      22.346   1.355  52.417  1.00  0.00     0.029 A 
HETATM   24  C9  UNL     1      22.596   0.379  53.385  1.00  0.00     0.004 A 
HETATM   25  C10 UNL     1      23.884  -0.113  53.562  1.00  0.00     0.019 A 
HETATM   26  C11 UNL     1      24.922   0.376  52.764  1.00  0.00     0.013 A 
HETATM   27 BR1  UNL     1      26.711  -0.251  52.952  1.00  0.00    -0.051 Br
HETATM   28  C12 UNL     1      24.675   1.352  51.795  1.00  0.00     0.048 A 
ENDBRANCH  20  22
ENDBRANCH   3  20
TORSDOF 6
ENDMDL
MODEL 9
REMARK VINA RESULT:      -7.3      2.428      7.913
REMARK  6 active torsions:
REMARK  status: ('A' for Active; 'I' for Inactive)
REMARK    1  A    between atoms: C2_2  and  N4_18 
REMARK    2  A    between atoms: C3_3  and  C4_4 
REMARK    3  A    between atoms: C6_6  and  N1_7 
REMARK    4  A    between atoms: N1_7  and  C7_8 
REMARK    5  A    between atoms: N4_18  and  C14_19 
REMARK    6  A    between atoms: C14_19  and  C15_20 
ROOT
HETATM    1  C4  UNL     1      24.356   4.220  50.443  1.00  0.00     0.141 A 
HETATM    2  C5  UNL     1      24.953   2.911  50.802  1.00  0.00     0.110 A 
HETATM    3  C6  UNL     1      24.729   2.574  52.216  1.00  0.00     0.108 A 
HETATM    4  N2  UNL     1      24.110   3.250  53.133  1.00  0.00    -0.229 NA
HETATM    5  C13 UNL     1      23.571   4.504  52.678  1.00  0.00     0.229 A 
HETATM    6  N3  UNL     1      23.706   4.882  51.494  1.00  0.00    -0.273 NA
ENDROOT
BRANCH   1   7
HETATM    7  C3  UNL     1      25.364   5.102  49.748  1.00  0.00     0.025 C 
HETATM    8  C2  UNL     1      25.097   5.920  48.719  1.00  0.00    -0.001 C 
HETATM    9  C1  UNL     1      23.672   5.900  48.286  1.00  0.00     0.067 C 
BRANCH   8  10
HETATM   10  N4  UNL     1      26.208   6.633  48.253  1.00  0.00    -0.389 N 
HETATM   11  H14 UNL     1      26.708   6.231  47.405  1.00  0.00     0.159 HD
BRANCH  10  12
HETATM   12  C14 UNL     1      26.660   7.858  48.884  1.00  0.00     0.158 C 
BRANCH  12  13
HETATM   13  C15 UNL     1      28.130   7.987  48.833  1.00  0.00    -0.041 A 
HETATM   14  C16 UNL     1      28.877   9.058  49.286  1.00  0.00     0.010 A 
HETATM   15  C17 UNL     1      30.260   9.069  49.186  1.00  0.00     0.019 A 
HETATM   16  C18 UNL     1      30.940   7.989  48.622  1.00  0.00     0.011 A 
HETATM   17 BR2  UNL     1      32.839   7.953  48.460  1.00  0.00    -0.051 Br
HETATM   18  C19 UNL     1      30.231   6.888  48.152  1.00  0.00     0.019 A 
HETATM   19  C20 UNL     1      28.856   6.938  48.280  1.00  0.00     0.010 A 
ENDBRANCH  12  13
ENDBRANCH  10  12
ENDBRANCH   8  10
ENDBRANCH   1   7
BRANCH   3  20
HETATM   20  N1  UNL     1      25.272   1.326  52.646  1.00  0.00    -0.344 N 
HETATM   21  H8  UNL     1      24.741   0.428  52.756  1.00  0.00     0.167 HD
BRANCH  20  22
HETATM   22  C7  UNL     1      26.643   1.087  53.001  1.00  0.00     0.034 A 
HETATM   23  C8  UNL     1      27.444   2.164  53.390  1.00  0.00     0.029 A 
HETATM   24  C9  UNL     1      28.781   1.959  53.741  1.00  0.00     0.004 A 
HETATM   25  C10 UNL     1      29.323   0.680  53.706  1.00  0.00     0.019 A 
HETATM   26  C11 UNL     1      28.520  -0.396  53.316  1.00  0.00     0.013 A 
HETATM   27 BR1  UNL     1      29.196  -2.175  53.244  1.00  0.00    -0.051 Br
HETATM   28  C12 UNL     1      27.183  -0.194  52.964  1.00  0.00     0.048 A 
ENDBRANCH  20  22
ENDBRANCH   3  20
TORSDOF 6
ENDMDL
