MODEL 1
REMARK VINA RESULT:      -8.6      0.000      0.000
REMARK  3 active torsions:
REMARK  status: ('A' for Active; 'I' for Inactive)
REMARK    1  A    between atoms: O1_2  and  C2_3 
REMARK    2  A    between atoms: C9_13  and  N3_14 
REMARK    3  A    between atoms: N3_14  and  C10_15 
ROOT
HETATM    1  C2  UNL     1      19.321   2.202  52.171  1.00  0.00     0.144 C 
HETATM    2  C3  UNL     1      18.834   1.823  50.787  1.00  0.00     0.038 C 
HETATM    3  C4  UNL     1      18.659   0.617  51.292  1.00  0.00     0.017 A 
HETATM    4  C5  UNL     1      18.577  -0.606  52.116  1.00  0.00     0.020 A 
HETATM    5  C6  UNL     1      19.636  -0.296  52.865  1.00  0.00     0.066 A 
HETATM    6  O2  UNL     1      20.303  -0.905  53.951  1.00  0.00    -0.294 OA
HETATM    7  C7  UNL     1      21.705  -0.822  54.089  1.00  0.00     0.201 A 
HETATM    8  N1  UNL     1      22.136  -1.369  55.253  1.00  0.00    -0.215 NA
HETATM    9  C8  UNL     1      23.448  -1.386  55.567  1.00  0.00     0.238 A 
HETATM   10  N2  UNL     1      24.399  -0.861  54.745  1.00  0.00    -0.222 NA
HETATM   11  C9  UNL     1      24.036  -0.303  53.572  1.00  0.00     0.160 A 
HETATM   12  C16 UNL     1      22.704  -0.291  53.261  1.00  0.00     0.128 A 
HETATM   13  N4  UNL     1      22.314   0.307  52.008  1.00  0.00    -0.382 N 
HETATM   14  C17 UNL     1      21.185   0.784  51.297  1.00  0.00     0.140 C 
HETATM   15  C18 UNL     1      19.901   0.913  52.154  1.00  0.00     0.064 A 
HETATM   16  H13 UNL     1      23.165   0.451  51.386  1.00  0.00     0.160 HD
ENDROOT
BRANCH  11  17
HETATM   17  N3  UNL     1      24.893   0.290  52.608  1.00  0.00    -0.339 N 
HETATM   18  H8  UNL     1      24.639   0.479  51.618  1.00  0.00     0.167 HD
BRANCH  17  19
HETATM   19  C10 UNL     1      26.210   0.666  52.990  1.00  0.00     0.035 A 
HETATM   20  C11 UNL     1      26.586   1.952  53.330  1.00  0.00     0.029 A 
HETATM   21  C12 UNL     1      27.876   2.276  53.706  1.00  0.00     0.004 A 
HETATM   22  C13 UNL     1      28.826   1.290  53.748  1.00  0.00     0.019 A 
HETATM   23  C14 UNL     1      28.526  -0.034  53.418  1.00  0.00     0.013 A 
HETATM   24 BR1  UNL     1      29.857  -1.397  53.481  1.00  0.00    -0.051 Br
HETATM   25  C15 UNL     1      27.228  -0.296  53.053  1.00  0.00     0.048 A 
ENDBRANCH  17  19
ENDBRANCH  11  17
BRANCH   1  26
HETATM   26  O1  UNL     1      20.105   3.349  52.165  1.00  0.00    -0.389 OA
HETATM   27  C1  UNL     1      19.542   4.199  51.216  1.00  0.00     0.202 C 
ENDBRANCH   1  26
TORSDOF 3
ENDMDL
MODEL 2
REMARK VINA RESULT:      -8.6      4.543      6.863
REMARK  3 active torsions:
REMARK  status: ('A' for Active; 'I' for Inactive)
REMARK    1  A    between atoms: O1_2  and  C2_3 
REMARK    2  A    between atoms: C9_13  and  N3_14 
REMARK    3  A    between atoms: N3_14  and  C10_15 
ROOT
HETATM    1  C2  UNL     1      27.103  -0.020  53.397  1.00  0.00     0.144 C 
HETATM    2  C3  UNL     1      27.171   0.200  54.894  1.00  0.00     0.038 C 
HETATM    3  C4  UNL     1      25.891  -0.115  54.896  1.00  0.00     0.017 A 
HETATM    4  C5  UNL     1      24.496  -0.493  54.589  1.00  0.00     0.020 A 
HETATM    5  C6  UNL     1      24.494   0.088  53.390  1.00  0.00     0.066 A 
HETATM    6  O2  UNL     1      23.550   0.220  52.346  1.00  0.00    -0.294 OA
HETATM    7  C7  UNL     1      23.474   1.397  51.571  1.00  0.00     0.201 A 
HETATM    8  N1  UNL     1      22.587   1.281  50.552  1.00  0.00    -0.215 NA
HETATM    9  C8  UNL     1      22.375   2.303  49.698  1.00  0.00     0.238 A 
HETATM   10  N2  UNL     1      23.030   3.492  49.811  1.00  0.00    -0.222 NA
HETATM   11  C9  UNL     1      23.924   3.672  50.804  1.00  0.00     0.160 A 
HETATM   12  C16 UNL     1      24.134   2.631  51.666  1.00  0.00     0.128 A 
HETATM   13  N4  UNL     1      25.091   2.822  52.727  1.00  0.00    -0.382 N 
HETATM   14  C17 UNL     1      25.840   2.116  53.701  1.00  0.00     0.140 C 
HETATM   15  C18 UNL     1      25.828   0.577  53.520  1.00  0.00     0.064 A 
HETATM   16  H13 UNL     1      25.333   3.853  52.825  1.00  0.00     0.160 HD
ENDROOT
BRANCH  11  17
HETATM   17  N3  UNL     1      24.692   4.839  51.059  1.00  0.00    -0.339 N 
HETATM   18  H8  UNL     1      24.587   5.455  51.889  1.00  0.00     0.167 HD
BRANCH  17  19
HETATM   19  C10 UNL     1      25.693   5.227  50.126  1.00  0.00     0.035 A 
HETATM   20  C11 UNL     1      26.607   4.360  49.558  1.00  0.00     0.029 A 
HETATM   21  C12 UNL     1      27.560   4.774  48.647  1.00  0.00     0.004 A 
HETATM   22  C13 UNL     1      27.608   6.095  48.286  1.00  0.00     0.019 A 
HETATM   23  C14 UNL     1      26.721   7.035  48.816  1.00  0.00     0.013 A 
HETATM   24 BR1  UNL     1      26.797   8.869  48.306  1.00  0.00    -0.051 Br
HETATM   25  C15 UNL     1      25.796   6.564  49.716  1.00  0.00     0.048 A 
ENDBRANCH  17  19
ENDBRANCH  11  17
BRANCH   1  26
HETATM   26  O1  UNL     1      28.136   0.612  52.717  1.00  0.00    -0.389 OA
HETATM   27  C1  UNL     1      29.256   0.522  53.541  1.00  0.00     0.202 C 
ENDBRANCH   1  26
TORSDOF 3
ENDMDL
MODEL 3
REMARK VINA RESULT:      -8.0      4.364      6.164
REMARK  3 active torsions:
REMARK  status: ('A' for Active; 'I' for Inactive)
REMARK    1  A    between atoms: O1_2  and  C2_3 
REMARK    2  A    between atoms: C9_13  and  N3_14 
REMARK    3  A    between atoms: N3_14  and  C10_15 
ROOT
HETATM    1  C2  UNL     1      24.380  -0.439  52.994  1.00  0.00     0.144 C 
HETATM    2  C3  UNL     1      23.946  -0.188  54.424  1.00  0.00     0.038 C 
HETATM    3  C4  UNL     1      22.717  -0.319  53.965  1.00  0.00     0.017 A 
HETATM    4  C5  UNL     1      21.481  -0.504  53.175  1.00  0.00     0.020 A 
HETATM    5  C6  UNL     1      21.986   0.037  52.067  1.00  0.00     0.066 A 
HETATM    6  O2  UNL     1      21.501   0.272  50.761  1.00  0.00    -0.294 OA
HETATM    7  C7  UNL     1      21.872   1.426  50.037  1.00  0.00     0.201 A 
HETATM    8  N1  UNL     1      21.396   1.407  48.768  1.00  0.00    -0.215 NA
HETATM    9  C8  UNL     1      21.646   2.424  47.919  1.00  0.00     0.238 A 
HETATM   10  N2  UNL     1      22.381   3.512  48.284  1.00  0.00    -0.222 NA
HETATM   11  C9  UNL     1      22.883   3.592  49.533  1.00  0.00     0.160 A 
HETATM   12  C16 UNL     1      22.624   2.556  50.388  1.00  0.00     0.128 A 
HETATM   13  N4  UNL     1      23.161   2.639  51.724  1.00  0.00    -0.382 N 
HETATM   14  C17 UNL     1      23.409   1.862  52.882  1.00  0.00     0.140 C 
HETATM   15  C18 UNL     1      23.243   0.336  52.673  1.00  0.00     0.064 A 
HETATM   16  H13 UNL     1      23.497   3.628  51.926  1.00  0.00     0.160 HD
ENDROOT
BRANCH  11  17
HETATM   17  N3  UNL     1      23.669   4.645  50.071  1.00  0.00    -0.339 N 
HETATM   18  H8  UNL     1      23.365   5.294  50.824  1.00  0.00     0.167 HD
BRANCH  17  19
HETATM   19  C10 UNL     1      24.979   4.860  49.564  1.00  0.00     0.035 A 
HETATM   20  C11 UNL     1      25.990   3.917  49.591  1.00  0.00     0.029 A 
HETATM   21  C12 UNL     1      27.250   4.162  49.078  1.00  0.00     0.004 A 
HETATM   22  C13 UNL     1      27.517   5.383  48.518  1.00  0.00     0.019 A 
HETATM   23  C14 UNL     1      26.550   6.389  48.453  1.00  0.00     0.013 A 
HETATM   24 BR1  UNL     1      26.933   8.084  47.670  1.00  0.00    -0.051 Br
HETATM   25  C15 UNL     1      25.317   6.088  48.977  1.00  0.00     0.048 A 
ENDBRANCH  17  19
ENDBRANCH  11  17
BRANCH   1  26
HETATM   26  O1  UNL     1      25.666   0.021  52.739  1.00  0.00    -0.389 OA
HETATM   27  C1  UNL     1      26.487  -1.104  52.735  1.00  0.00     0.202 C 
ENDBRANCH   1  26
TORSDOF 3
ENDMDL
MODEL 4
REMARK VINA RESULT:      -7.9      1.804      2.520
REMARK  3 active torsions:
REMARK  status: ('A' for Active; 'I' for Inactive)
REMARK    1  A    between atoms: O1_2  and  C2_3 
REMARK    2  A    between atoms: C9_13  and  N3_14 
REMARK    3  A    between atoms: N3_14  and  C10_15 
ROOT
HETATM    1  C2  UNL     1      21.999   4.963  51.927  1.00  0.00     0.144 C 
HETATM    2  C3  UNL     1      21.619   5.132  50.470  1.00  0.00     0.038 C 
HETATM    3  C4  UNL     1      20.604   4.338  50.749  1.00  0.00     0.017 A 
HETATM    4  C5  UNL     1      19.593   3.442  51.346  1.00  0.00     0.020 A 
HETATM    5  C6  UNL     1      20.446   2.882  52.204  1.00  0.00     0.066 A 
HETATM    6  O2  UNL     1      20.346   1.898  53.213  1.00  0.00    -0.294 OA
HETATM    7  C7  UNL     1      21.396   0.987  53.455  1.00  0.00     0.201 A 
HETATM    8  N1  UNL     1      21.153   0.203  54.534  1.00  0.00    -0.215 NA
HETATM    9  C8  UNL     1      22.043  -0.732  54.927  1.00  0.00     0.238 A 
HETATM   10  N2  UNL     1      23.219  -0.937  54.270  1.00  0.00    -0.222 NA
HETATM   11  C9  UNL     1      23.520  -0.190  53.188  1.00  0.00     0.160 A 
HETATM   12  C16 UNL     1      22.612   0.755  52.796  1.00  0.00     0.128 A 
HETATM   13  N4  UNL     1      22.934   1.555  51.641  1.00  0.00    -0.382 N 
HETATM   14  C17 UNL     1      22.549   2.730  50.948  1.00  0.00     0.140 C 
HETATM   15  C18 UNL     1      21.562   3.633  51.729  1.00  0.00     0.064 A 
HETATM   16  H13 UNL     1      23.750   1.126  51.110  1.00  0.00     0.160 HD
ENDROOT
BRANCH  11  17
HETATM   17  N3  UNL     1      24.697  -0.271  52.397  1.00  0.00    -0.339 N 
HETATM   18  H8  UNL     1      24.762  -0.730  51.467  1.00  0.00     0.167 HD
BRANCH  17  19
HETATM   19  C10 UNL     1      25.899   0.310  52.884  1.00  0.00     0.035 A 
HETATM   20  C11 UNL     1      26.023   1.628  53.284  1.00  0.00     0.029 A 
HETATM   21  C12 UNL     1      27.209   2.153  53.761  1.00  0.00     0.004 A 
HETATM   22  C13 UNL     1      28.311   1.344  53.846  1.00  0.00     0.019 A 
HETATM   23  C14 UNL     1      28.269   0.002  53.461  1.00  0.00     0.013 A 
HETATM   24 BR1  UNL     1      29.808  -1.114  53.584  1.00  0.00    -0.051 Br
HETATM   25  C15 UNL     1      27.063  -0.464  52.995  1.00  0.00     0.048 A 
ENDBRANCH  17  19
ENDBRANCH  11  17
BRANCH   1  26
HETATM   26  O1  UNL     1      23.335   5.259  52.168  1.00  0.00    -0.389 OA
HETATM   27  C1  UNL     1      23.679   6.265  51.268  1.00  0.00     0.202 C 
ENDBRANCH   1  26
TORSDOF 3
ENDMDL
MODEL 5
REMARK VINA RESULT:      -7.7      3.944      6.359
REMARK  3 active torsions:
REMARK  status: ('A' for Active; 'I' for Inactive)
REMARK    1  A    between atoms: O1_2  and  C2_3 
REMARK    2  A    between atoms: C9_13  and  N3_14 
REMARK    3  A    between atoms: N3_14  and  C10_15 
ROOT
HETATM    1  C2  UNL     1      23.816   3.666  48.655  1.00  0.00     0.144 C 
HETATM    2  C3  UNL     1      23.860   5.158  48.912  1.00  0.00     0.038 C 
HETATM    3  C4  UNL     1      25.126   4.963  49.225  1.00  0.00     0.017 A 
HETATM    4  C5  UNL     1      26.478   4.446  49.519  1.00  0.00     0.020 A 
HETATM    5  C6  UNL     1      26.043   3.265  49.959  1.00  0.00     0.066 A 
HETATM    6  O2  UNL     1      26.661   2.092  50.448  1.00  0.00    -0.294 OA
HETATM    7  C7  UNL     1      26.071   1.326  51.476  1.00  0.00     0.201 A 
HETATM    8  N1  UNL     1      26.759   0.184  51.720  1.00  0.00    -0.215 NA
HETATM    9  C8  UNL     1      26.349  -0.683  52.669  1.00  0.00     0.238 A 
HETATM   10  N2  UNL     1      25.237  -0.461  53.424  1.00  0.00    -0.222 NA
HETATM   11  C9  UNL     1      24.509   0.657  53.231  1.00  0.00     0.160 A 
HETATM   12  C16 UNL     1      24.931   1.531  52.267  1.00  0.00     0.128 A 
HETATM   13  N4  UNL     1      24.153   2.727  52.058  1.00  0.00    -0.382 N 
HETATM   14  C17 UNL     1      23.962   3.795  51.147  1.00  0.00     0.140 C 
HETATM   15  C18 UNL     1      24.668   3.601  49.782  1.00  0.00     0.064 A 
HETATM   16  H13 UNL     1      23.473   2.870  52.863  1.00  0.00     0.160 HD
ENDROOT
BRANCH  11  17
HETATM   17  N3  UNL     1      23.328   1.037  53.923  1.00  0.00    -0.339 N 
HETATM   18  H8  UNL     1      23.236   1.871  54.536  1.00  0.00     0.167 HD
BRANCH  17  19
HETATM   19  C10 UNL     1      22.161   0.236  53.791  1.00  0.00     0.035 A 
HETATM   20  C11 UNL     1      21.909  -0.904  54.531  1.00  0.00     0.029 A 
HETATM   21  C12 UNL     1      20.756  -1.651  54.380  1.00  0.00     0.004 A 
HETATM   22  C13 UNL     1      19.819  -1.254  53.462  1.00  0.00     0.019 A 
HETATM   23  C14 UNL     1      20.000  -0.114  52.674  1.00  0.00     0.013 A 
HETATM   24 BR1  UNL     1      18.689   0.428  51.402  1.00  0.00    -0.051 Br
HETATM   25  C15 UNL     1      21.164   0.588  52.870  1.00  0.00     0.048 A 
ENDBRANCH  17  19
ENDBRANCH  11  17
BRANCH   1  26
HETATM   26  O1  UNL     1      22.524   3.155  48.693  1.00  0.00    -0.389 OA
HETATM   27  C1  UNL     1      22.482   2.137  47.743  1.00  0.00     0.202 C 
ENDBRANCH   1  26
TORSDOF 3
ENDMDL
MODEL 6
REMARK VINA RESULT:      -7.6      4.231      6.982
REMARK  3 active torsions:
REMARK  status: ('A' for Active; 'I' for Inactive)
REMARK    1  A    between atoms: O1_2  and  C2_3 
REMARK    2  A    between atoms: C9_13  and  N3_14 
REMARK    3  A    between atoms: N3_14  and  C10_15 
ROOT
HETATM    1  C2  UNL     1      26.639   1.405  52.166  1.00  0.00     0.144 C 
HETATM    2  C3  UNL     1      27.098   1.230  53.599  1.00  0.00     0.038 C 
HETATM    3  C4  UNL     1      26.011   0.501  53.751  1.00  0.00     0.017 A 
HETATM    4  C5  UNL     1      24.740  -0.243  53.623  1.00  0.00     0.020 A 
HETATM    5  C6  UNL     1      24.220   0.597  52.728  1.00  0.00     0.066 A 
HETATM    6  O2  UNL     1      23.004   0.664  52.011  1.00  0.00    -0.294 OA
HETATM    7  C7  UNL     1      22.388   1.902  51.728  1.00  0.00     0.201 A 
HETATM    8  N1  UNL     1      21.297   1.759  50.935  1.00  0.00    -0.215 NA
HETATM    9  C8  UNL     1      20.572   2.831  50.554  1.00  0.00     0.238 A 
HETATM   10  N2  UNL     1      20.891   4.098  50.938  1.00  0.00    -0.222 NA
HETATM   11  C9  UNL     1      21.965   4.308  51.727  1.00  0.00     0.160 A 
HETATM   12  C16 UNL     1      22.694   3.216  52.110  1.00  0.00     0.128 A 
HETATM   13  N4  UNL     1      23.842   3.439  52.953  1.00  0.00    -0.382 N 
HETATM   14  C17 UNL     1      25.011   2.807  53.445  1.00  0.00     0.140 C 
HETATM   15  C18 UNL     1      25.351   1.466  52.746  1.00  0.00     0.064 A 
HETATM   16  H13 UNL     1      23.821   4.424  53.352  1.00  0.00     0.160 HD
ENDROOT
BRANCH  11  17
HETATM   17  N3  UNL     1      22.437   5.557  52.211  1.00  0.00    -0.339 N 
HETATM   18  H8  UNL     1      22.551   5.805  53.213  1.00  0.00     0.167 HD
BRANCH  17  19
HETATM   19  C10 UNL     1      22.789   6.572  51.279  1.00  0.00     0.035 A 
HETATM   20  C11 UNL     1      21.876   7.316  50.555  1.00  0.00     0.029 A 
HETATM   21  C12 UNL     1      22.259   8.302  49.665  1.00  0.00     0.004 A 
HETATM   22  C13 UNL     1      23.593   8.559  49.487  1.00  0.00     0.019 A 
HETATM   23  C14 UNL     1      24.577   7.851  50.181  1.00  0.00     0.013 A 
HETATM   24 BR1  UNL     1      26.429   8.219  49.926  1.00  0.00    -0.051 Br
HETATM   25  C15 UNL     1      24.136   6.884  51.052  1.00  0.00     0.048 A 
ENDBRANCH  17  19
ENDBRANCH  11  17
BRANCH   1  26
HETATM   26  O1  UNL     1      27.210   2.514  51.553  1.00  0.00    -0.389 OA
HETATM   27  C1  UNL     1      26.491   2.722  50.379  1.00  0.00     0.202 C 
ENDBRANCH   1  26
TORSDOF 3
ENDMDL
MODEL 7
REMARK VINA RESULT:      -7.6      3.720      6.253
REMARK  3 active torsions:
REMARK  status: ('A' for Active; 'I' for Inactive)
REMARK    1  A    between atoms: O1_2  and  C2_3 
REMARK    2  A    between atoms: C9_13  and  N3_14 
REMARK    3  A    between atoms: N3_14  and  C10_15 
ROOT
HETATM    1  C2  UNL     1      22.795   7.307  50.070  1.00  0.00     0.144 C 
HETATM    2  C3  UNL     1      24.052   7.753  50.789  1.00  0.00     0.038 C 
HETATM    3  C4  UNL     1      24.687   6.941  49.967  1.00  0.00     0.017 A 
HETATM    4  C5  UNL     1      25.113   5.969  48.939  1.00  0.00     0.020 A 
HETATM    5  C6  UNL     1      23.999   5.242  49.017  1.00  0.00     0.066 A 
HETATM    6  O2  UNL     1      23.511   4.089  48.362  1.00  0.00    -0.294 OA
HETATM    7  C7  UNL     1      22.738   3.128  49.049  1.00  0.00     0.201 A 
HETATM    8  N1  UNL     1      22.273   2.161  48.220  1.00  0.00    -0.215 NA
HETATM    9  C8  UNL     1      21.512   1.152  48.690  1.00  0.00     0.238 A 
HETATM   10  N2  UNL     1      21.173   1.049  50.006  1.00  0.00    -0.222 NA
HETATM   11  C9  UNL     1      21.605   1.979  50.883  1.00  0.00     0.160 A 
HETATM   12  C16 UNL     1      22.377   2.998  50.397  1.00  0.00     0.128 A 
HETATM   13  N4  UNL     1      22.838   3.994  51.333  1.00  0.00    -0.382 N 
HETATM   14  C17 UNL     1      23.418   5.285  51.401  1.00  0.00     0.140 C 
HETATM   15  C18 UNL     1      23.435   6.046  50.052  1.00  0.00     0.064 A 
HETATM   16  H13 UNL     1      22.698   3.655  52.332  1.00  0.00     0.160 HD
ENDROOT
BRANCH  11  17
HETATM   17  N3  UNL     1      21.341   2.024  52.277  1.00  0.00    -0.339 N 
HETATM   18  H8  UNL     1      20.789   2.761  52.758  1.00  0.00     0.167 HD
BRANCH  17  19
HETATM   19  C10 UNL     1      21.858   0.997  53.113  1.00  0.00     0.035 A 
HETATM   20  C11 UNL     1      21.102   0.267  54.011  1.00  0.00     0.029 A 
HETATM   21  C12 UNL     1      21.641  -0.731  54.800  1.00  0.00     0.004 A 
HETATM   22  C13 UNL     1      22.977  -1.016  54.696  1.00  0.00     0.019 A 
HETATM   23  C14 UNL     1      23.809  -0.323  53.814  1.00  0.00     0.013 A 
HETATM   24 BR1  UNL     1      25.666  -0.730  53.676  1.00  0.00    -0.051 Br
HETATM   25  C15 UNL     1      23.218   0.656  53.055  1.00  0.00     0.048 A 
ENDBRANCH  17  19
ENDBRANCH  11  17
BRANCH   1  26
HETATM   26  O1  UNL     1      21.645   7.525  50.819  1.00  0.00    -0.389 OA
HETATM   27  C1  UNL     1      20.573   7.288  49.961  1.00  0.00     0.202 C 
ENDBRANCH   1  26
TORSDOF 3
ENDMDL
MODEL 8
REMARK VINA RESULT:      -7.5      2.277      3.203
REMARK  3 active torsions:
REMARK  status: ('A' for Active; 'I' for Inactive)
REMARK    1  A    between atoms: O1_2  and  C2_3 
REMARK    2  A    between atoms: C9_13  and  N3_14 
REMARK    3  A    between atoms: N3_14  and  C10_15 
ROOT
HETATM    1  C2  UNL     1      22.301   4.168  50.077  1.00  0.00     0.144 C 
HETATM    2  C3  UNL     1      23.052   4.133  48.762  1.00  0.00     0.038 C 
HETATM    3  C4  UNL     1      22.420   2.995  48.550  1.00  0.00     0.017 A 
HETATM    4  C5  UNL     1      21.592   1.772  48.594  1.00  0.00     0.020 A 
HETATM    5  C6  UNL     1      21.681   1.636  49.917  1.00  0.00     0.066 A 
HETATM    6  O2  UNL     1      21.169   0.721  50.863  1.00  0.00    -0.294 OA
HETATM    7  C7  UNL     1      21.922   0.334  51.992  1.00  0.00     0.201 A 
HETATM    8  N1  UNL     1      21.211  -0.457  52.834  1.00  0.00    -0.215 NA
HETATM    9  C8  UNL     1      21.760  -0.929  53.971  1.00  0.00     0.238 A 
HETATM   10  N2  UNL     1      23.042  -0.641  54.334  1.00  0.00    -0.222 NA
HETATM   11  C9  UNL     1      23.802   0.141  53.540  1.00  0.00     0.160 A 
HETATM   12  C16 UNL     1      23.238   0.614  52.388  1.00  0.00     0.128 A 
HETATM   13  N4  UNL     1      24.049   1.451  51.539  1.00  0.00    -0.382 N 
HETATM   14  C17 UNL     1      23.972   2.345  50.442  1.00  0.00     0.140 C 
HETATM   15  C18 UNL     1      22.530   2.773  50.071  1.00  0.00     0.064 A 
HETATM   16  H13 UNL     1      25.071   1.389  51.827  1.00  0.00     0.160 HD
ENDROOT
BRANCH  11  17
HETATM   17  N3  UNL     1      25.145   0.540  53.770  1.00  0.00    -0.339 N 
HETATM   18  H8  UNL     1      25.437   1.450  54.179  1.00  0.00     0.167 HD
BRANCH  17  19
HETATM   19  C10 UNL     1      26.200  -0.349  53.427  1.00  0.00     0.035 A 
HETATM   20  C11 UNL     1      26.022  -1.560  52.784  1.00  0.00     0.029 A 
HETATM   21  C12 UNL     1      27.076  -2.393  52.458  1.00  0.00     0.004 A 
HETATM   22  C13 UNL     1      28.352  -2.011  52.781  1.00  0.00     0.019 A 
HETATM   23  C14 UNL     1      28.616  -0.804  53.432  1.00  0.00     0.013 A 
HETATM   24 BR1  UNL     1      30.395  -0.285  53.875  1.00  0.00    -0.051 Br
HETATM   25  C15 UNL     1      27.529  -0.018  53.729  1.00  0.00     0.048 A 
ENDBRANCH  17  19
ENDBRANCH  11  17
BRANCH   1  26
HETATM   26  O1  UNL     1      22.905   4.997  51.015  1.00  0.00    -0.389 OA
HETATM   27  C1  UNL     1      22.193   4.825  52.200  1.00  0.00     0.202 C 
ENDBRANCH   1  26
TORSDOF 3
ENDMDL
MODEL 9
REMARK VINA RESULT:      -7.3      9.034     12.697
REMARK  3 active torsions:
REMARK  status: ('A' for Active; 'I' for Inactive)
REMARK    1  A    between atoms: O1_2  and  C2_3 
REMARK    2  A    between atoms: C9_13  and  N3_14 
REMARK    3  A    between atoms: N3_14  and  C10_15 
ROOT
HETATM    1  C2  UNL     1      33.404   4.971  48.030  1.00  0.00     0.144 C 
HETATM    2  C3  UNL     1      33.941   4.814  46.622  1.00  0.00     0.038 C 
HETATM    3  C4  UNL     1      34.170   6.112  46.675  1.00  0.00     0.017 A 
HETATM    4  C5  UNL     1      34.300   7.543  47.017  1.00  0.00     0.020 A 
HETATM    5  C6  UNL     1      33.210   7.564  47.785  1.00  0.00     0.066 A 
HETATM    6  O2  UNL     1      32.553   8.546  48.559  1.00  0.00    -0.294 OA
HETATM    7  C7  UNL     1      31.146   8.578  48.663  1.00  0.00     0.201 A 
HETATM    8  N1  UNL     1      30.720   9.520  49.540  1.00  0.00    -0.215 NA
HETATM    9  C8  UNL     1      29.405   9.703  49.777  1.00  0.00     0.238 A 
HETATM   10  N2  UNL     1      28.445   8.963  49.156  1.00  0.00    -0.222 NA
HETATM   11  C9  UNL     1      28.803   8.010  48.271  1.00  0.00     0.160 A 
HETATM   12  C16 UNL     1      30.138   7.831  48.036  1.00  0.00     0.128 A 
HETATM   13  N4  UNL     1      30.522   6.812  47.091  1.00  0.00    -0.382 N 
HETATM   14  C17 UNL     1      31.639   6.066  46.639  1.00  0.00     0.140 C 
HETATM   15  C18 UNL     1      32.895   6.194  47.537  1.00  0.00     0.064 A 
HETATM   16  H13 UNL     1      29.678   6.494  46.527  1.00  0.00     0.160 HD
ENDROOT
BRANCH  11  17
HETATM   17  N3  UNL     1      27.935   7.151  47.545  1.00  0.00    -0.339 N 
HETATM   18  H8  UNL     1      27.800   7.170  46.514  1.00  0.00     0.167 HD
BRANCH  17  19
HETATM   19  C10 UNL     1      27.176   6.178  48.249  1.00  0.00     0.035 A 
HETATM   20  C11 UNL     1      27.651   4.932  48.614  1.00  0.00     0.029 A 
HETATM   21  C12 UNL     1      26.883   4.016  49.307  1.00  0.00     0.004 A 
HETATM   22  C13 UNL     1      25.599   4.347  49.652  1.00  0.00     0.019 A 
HETATM   23  C14 UNL     1      25.045   5.585  49.320  1.00  0.00     0.013 A 
HETATM   24 BR1  UNL     1      23.258   6.034  49.806  1.00  0.00    -0.051 Br
HETATM   25  C15 UNL     1      25.855   6.454  48.631  1.00  0.00     0.048 A 
ENDBRANCH  17  19
ENDBRANCH  11  17
BRANCH   1  26
HETATM   26  O1  UNL     1      32.560   3.931  48.399  1.00  0.00    -0.389 OA
HETATM   27  C1  UNL     1      33.051   2.791  47.767  1.00  0.00     0.202 C 
ENDBRANCH   1  26
TORSDOF 3
ENDMDL
