MODEL 1
REMARK VINA RESULT:      -8.5      0.000      0.000
REMARK  5 active torsions:
REMARK  status: ('A' for Active; 'I' for Inactive)
REMARK       I    between atoms: N1_7  and  C7_8 
REMARK       I    between atoms: C7_8  and  N2_10 
REMARK    1  A    between atoms: N2_10  and  C8_11 
REMARK    2  A    between atoms: C11_14  and  O2_15 
REMARK    3  A    between atoms: O2_15  and  C12_16 
REMARK    4  A    between atoms: C16_22  and  O3_23 
REMARK    5  A    between atoms: C18_25  and  O4_26 
ROOT
HETATM    1  C8  UNL     1      25.473   5.480  49.603  1.00  0.00     0.135 A 
HETATM    2  C9  UNL     1      25.378   6.662  50.500  1.00  0.00     0.005 A 
HETATM    3  C10 UNL     1      26.166   7.638  50.076  1.00  0.00     0.035 A 
HETATM    4  C11 UNL     1      26.853   7.196  48.866  1.00  0.00     0.076 A 
HETATM    5  C22 UNL     1      26.453   5.948  48.591  1.00  0.00     0.039 A 
ENDROOT
BRANCH   4   6
HETATM    6  O2  UNL     1      27.772   7.677  47.943  1.00  0.00    -0.291 OA
BRANCH   6   7
HETATM    7  C12 UNL     1      28.898   8.398  48.377  1.00  0.00     0.183 A 
HETATM    8  N3  UNL     1      28.840   9.718  48.645  1.00  0.00    -0.217 NA
HETATM    9  C13 UNL     1      29.898  10.428  49.059  1.00  0.00     0.236 A 
HETATM   10  N4  UNL     1      31.094   9.869  49.239  1.00  0.00    -0.241 NA
HETATM   11  C14 UNL     1      31.208   8.549  48.986  1.00  0.00     0.075 A 
HETATM   12  C15 UNL     1      32.395   7.873  49.138  1.00  0.00     0.072 A 
HETATM   13  C21 UNL     1      30.132   7.790  48.555  1.00  0.00     0.049 A 
HETATM   14  C16 UNL     1      32.546   6.522  48.887  1.00  0.00     0.103 A 
HETATM   15  C18 UNL     1      31.449   5.786  48.458  1.00  0.00     0.102 A 
HETATM   16  C20 UNL     1      30.258   6.463  48.305  1.00  0.00     0.057 A 
BRANCH  14  17
HETATM   17  O3  UNL     1      33.803   5.949  49.079  1.00  0.00    -0.353 OA
HETATM   18  C17 UNL     1      34.861   6.392  48.285  1.00  0.00     0.210 C 
ENDBRANCH  14  17
BRANCH  15  19
HETATM   19  O4  UNL     1      31.716   4.443  48.238  1.00  0.00    -0.353 OA
HETATM   20  C19 UNL     1      31.963   3.972  46.906  1.00  0.00     0.210 C 
ENDBRANCH  15  19
ENDBRANCH   6   7
ENDBRANCH   4   6
BRANCH   1  21
HETATM   21  N2  UNL     1      25.954   4.360  50.367  1.00  0.00    -0.332 N 
HETATM   22  C7  UNL     1      25.089   3.412  50.942  1.00  0.00     0.323 C 
HETATM   23  N1  UNL     1      25.633   2.310  51.697  1.00  0.00    -0.304 N 
HETATM   24  O1  UNL     1      23.873   3.635  50.726  1.00  0.00    -0.247 OA
HETATM   25  C2  UNL     1      24.703   1.364  52.267  1.00  0.00     0.007 C 
HETATM   26  C6  UNL     1      27.029   2.028  51.963  1.00  0.00     0.133 C 
HETATM   27  C1  UNL     1      23.485   1.200  51.776  1.00  0.00     0.038 C 
HETATM   28  C3  UNL     1      25.266   0.608  53.446  1.00  0.00     0.056 C 
HETATM   29  C4  UNL     1      26.017   1.691  54.233  1.00  0.00     0.007 C 
HETATM   30  C5  UNL     1      27.211   2.187  53.458  1.00  0.00     0.021 C 
HETATM   31  H11 UNL     1      26.996   4.327  50.449  1.00  0.00     0.165 HD
ENDBRANCH   1  21
TORSDOF 5
ENDMDL
MODEL 2
REMARK VINA RESULT:      -8.4      3.411      8.645
REMARK  5 active torsions:
REMARK  status: ('A' for Active; 'I' for Inactive)
REMARK       I    between atoms: N1_7  and  C7_8 
REMARK       I    between atoms: C7_8  and  N2_10 
REMARK    1  A    between atoms: N2_10  and  C8_11 
REMARK    2  A    between atoms: C11_14  and  O2_15 
REMARK    3  A    between atoms: O2_15  and  C12_16 
REMARK    4  A    between atoms: C16_22  and  O3_23 
REMARK    5  A    between atoms: C18_25  and  O4_26 
ROOT
HETATM    1  C8  UNL     1      23.849   5.643  49.588  1.00  0.00     0.135 A 
HETATM    2  C9  UNL     1      23.401   4.443  48.834  1.00  0.00     0.005 A 
HETATM    3  C10 UNL     1      23.084   3.460  49.663  1.00  0.00     0.035 A 
HETATM    4  C11 UNL     1      23.291   3.914  51.034  1.00  0.00     0.076 A 
HETATM    5  C22 UNL     1      23.735   5.177  50.993  1.00  0.00     0.039 A 
ENDROOT
BRANCH   4   6
HETATM    6  O2  UNL     1      23.167   3.436  52.332  1.00  0.00    -0.291 OA
BRANCH   6   7
HETATM    7  C12 UNL     1      23.198   2.052  52.580  1.00  0.00     0.183 A 
HETATM    8  N3  UNL     1      22.145   1.255  52.305  1.00  0.00    -0.217 NA
HETATM    9  C13 UNL     1      22.149  -0.065  52.532  1.00  0.00     0.236 A 
HETATM   10  N4  UNL     1      23.206  -0.688  53.050  1.00  0.00    -0.241 NA
HETATM   11  C14 UNL     1      24.288   0.063  53.344  1.00  0.00     0.075 A 
HETATM   12  C15 UNL     1      25.432  -0.478  53.881  1.00  0.00     0.072 A 
HETATM   13  C21 UNL     1      24.313   1.430  53.121  1.00  0.00     0.049 A 
HETATM   14  C16 UNL     1      26.556   0.263  54.194  1.00  0.00     0.103 A 
HETATM   15  C18 UNL     1      26.554   1.632  53.958  1.00  0.00     0.102 A 
HETATM   16  C20 UNL     1      25.407   2.175  53.419  1.00  0.00     0.057 A 
BRANCH  14  17
HETATM   17  O3  UNL     1      27.657  -0.401  54.736  1.00  0.00    -0.353 OA
HETATM   18  C17 UNL     1      28.604  -0.937  53.863  1.00  0.00     0.210 C 
ENDBRANCH  14  17
BRANCH  15  19
HETATM   19  O4  UNL     1      27.733   2.272  54.310  1.00  0.00    -0.353 OA
HETATM   20  C19 UNL     1      28.694   2.604  53.298  1.00  0.00     0.210 C 
ENDBRANCH  15  19
ENDBRANCH   6   7
ENDBRANCH   4   6
BRANCH   1  21
HETATM   21  N2  UNL     1      25.205   5.943  49.211  1.00  0.00    -0.332 N 
HETATM   22  C7  UNL     1      25.815   7.176  49.507  1.00  0.00     0.323 C 
HETATM   23  N1  UNL     1      27.178   7.417  49.102  1.00  0.00    -0.304 N 
HETATM   24  O1  UNL     1      25.071   7.976  50.125  1.00  0.00    -0.247 OA
HETATM   25  C2  UNL     1      27.758   8.697  49.430  1.00  0.00     0.007 C 
HETATM   26  C6  UNL     1      28.059   6.513  48.390  1.00  0.00     0.133 C 
HETATM   27  C1  UNL     1      27.297   9.439  50.424  1.00  0.00     0.038 C 
HETATM   28  C3  UNL     1      28.915   9.076  48.538  1.00  0.00     0.056 C 
HETATM   29  C4  UNL     1      28.435   8.656  47.141  1.00  0.00     0.007 C 
HETATM   30  C5  UNL     1      28.317   7.156  47.043  1.00  0.00     0.021 C 
HETATM   31  H11 UNL     1      25.679   5.163  48.702  1.00  0.00     0.165 HD
ENDBRANCH   1  21
TORSDOF 5
ENDMDL
MODEL 3
REMARK VINA RESULT:      -8.2      2.667      9.004
REMARK  5 active torsions:
REMARK  status: ('A' for Active; 'I' for Inactive)
REMARK       I    between atoms: N1_7  and  C7_8 
REMARK       I    between atoms: C7_8  and  N2_10 
REMARK    1  A    between atoms: N2_10  and  C8_11 
REMARK    2  A    between atoms: C11_14  and  O2_15 
REMARK    3  A    between atoms: O2_15  and  C12_16 
REMARK    4  A    between atoms: C16_22  and  O3_23 
REMARK    5  A    between atoms: C18_25  and  O4_26 
ROOT
HETATM    1  C8  UNL     1      26.710   6.132  48.559  1.00  0.00     0.135 A 
HETATM    2  C9  UNL     1      27.359   4.797  48.643  1.00  0.00     0.005 A 
HETATM    3  C10 UNL     1      26.766   4.044  49.557  1.00  0.00     0.035 A 
HETATM    4  C11 UNL     1      25.676   4.804  50.159  1.00  0.00     0.076 A 
HETATM    5  C22 UNL     1      25.642   6.013  49.583  1.00  0.00     0.039 A 
ENDROOT
BRANCH   4   6
HETATM    6  O2  UNL     1      24.691   4.647  51.125  1.00  0.00    -0.291 OA
BRANCH   6   7
HETATM    7  C12 UNL     1      23.988   3.433  51.227  1.00  0.00     0.183 A 
HETATM    8  N3  UNL     1      22.867   3.197  50.517  1.00  0.00    -0.217 NA
HETATM    9  C13 UNL     1      22.179   2.051  50.595  1.00  0.00     0.236 A 
HETATM   10  N4  UNL     1      22.563   1.052  51.389  1.00  0.00    -0.241 NA
HETATM   11  C14 UNL     1      23.680   1.236  52.123  1.00  0.00     0.075 A 
HETATM   12  C15 UNL     1      24.165   0.271  52.975  1.00  0.00     0.072 A 
HETATM   13  C21 UNL     1      24.411   2.411  52.063  1.00  0.00     0.049 A 
HETATM   14  C16 UNL     1      25.305   0.427  53.740  1.00  0.00     0.103 A 
HETATM   15  C18 UNL     1      26.019   1.616  53.658  1.00  0.00     0.102 A 
HETATM   16  C20 UNL     1      25.534   2.583  52.804  1.00  0.00     0.057 A 
BRANCH  14  17
HETATM   17  O3  UNL     1      25.696  -0.625  54.568  1.00  0.00    -0.353 OA
HETATM   18  C17 UNL     1      24.736  -1.210  55.394  1.00  0.00     0.210 C 
ENDBRANCH  14  17
BRANCH  15  19
HETATM   19  O4  UNL     1      27.144   1.661  54.469  1.00  0.00    -0.353 OA
HETATM   20  C19 UNL     1      28.444   1.790  53.879  1.00  0.00     0.210 C 
ENDBRANCH  15  19
ENDBRANCH   6   7
ENDBRANCH   4   6
BRANCH   1  21
HETATM   21  N2  UNL     1      27.684   7.139  48.886  1.00  0.00    -0.332 N 
HETATM   22  C7  UNL     1      27.978   8.212  48.026  1.00  0.00     0.323 C 
HETATM   23  N1  UNL     1      28.965   9.190  48.411  1.00  0.00    -0.304 N 
HETATM   24  O1  UNL     1      27.315   8.206  46.960  1.00  0.00    -0.247 OA
HETATM   25  C2  UNL     1      29.230  10.272  47.492  1.00  0.00     0.007 C 
HETATM   26  C6  UNL     1      29.744   9.223  49.632  1.00  0.00     0.133 C 
HETATM   27  C1  UNL     1      28.344  10.652  46.586  1.00  0.00     0.038 C 
HETATM   28  C3  UNL     1      30.590  10.899  47.684  1.00  0.00     0.056 C 
HETATM   29  C4  UNL     1      31.507   9.689  47.910  1.00  0.00     0.007 C 
HETATM   30  C5  UNL     1      31.184   9.009  49.216  1.00  0.00     0.021 C 
HETATM   31  H11 UNL     1      28.142   6.990  49.814  1.00  0.00     0.165 HD
ENDBRANCH   1  21
TORSDOF 5
ENDMDL
MODEL 4
REMARK VINA RESULT:      -8.0      5.673      9.388
REMARK  5 active torsions:
REMARK  status: ('A' for Active; 'I' for Inactive)
REMARK       I    between atoms: N1_7  and  C7_8 
REMARK       I    between atoms: C7_8  and  N2_10 
REMARK    1  A    between atoms: N2_10  and  C8_11 
REMARK    2  A    between atoms: C11_14  and  O2_15 
REMARK    3  A    between atoms: O2_15  and  C12_16 
REMARK    4  A    between atoms: C16_22  and  O3_23 
REMARK    5  A    between atoms: C18_25  and  O4_26 
ROOT
HETATM    1  C8  UNL     1      20.732   3.546  52.253  1.00  0.00     0.135 A 
HETATM    2  C9  UNL     1      19.526   2.694  52.081  1.00  0.00     0.005 A 
HETATM    3  C10 UNL     1      19.866   1.423  51.932  1.00  0.00     0.035 A 
HETATM    4  C11 UNL     1      21.320   1.315  51.990  1.00  0.00     0.076 A 
HETATM    5  C22 UNL     1      21.823   2.542  52.176  1.00  0.00     0.039 A 
ENDROOT
BRANCH   4   6
HETATM    6  O2  UNL     1      22.307   0.341  51.912  1.00  0.00    -0.291 OA
BRANCH   6   7
HETATM    7  C12 UNL     1      22.874  -0.185  53.087  1.00  0.00     0.183 A 
HETATM    8  N3  UNL     1      22.176  -0.982  53.920  1.00  0.00    -0.217 NA
HETATM    9  C13 UNL     1      22.693  -1.496  55.044  1.00  0.00     0.236 A 
HETATM   10  N4  UNL     1      23.948  -1.251  55.419  1.00  0.00    -0.241 NA
HETATM   11  C14 UNL     1      24.691  -0.458  54.620  1.00  0.00     0.075 A 
HETATM   12  C15 UNL     1      25.997  -0.140  54.912  1.00  0.00     0.072 A 
HETATM   13  C21 UNL     1      24.184   0.088  53.452  1.00  0.00     0.049 A 
HETATM   14  C16 UNL     1      26.785   0.669  54.115  1.00  0.00     0.103 A 
HETATM   15  C18 UNL     1      26.250   1.201  52.949  1.00  0.00     0.102 A 
HETATM   16  C20 UNL     1      24.941   0.883  52.656  1.00  0.00     0.057 A 
BRANCH  14  17
HETATM   17  O3  UNL     1      28.097   0.918  54.518  1.00  0.00    -0.353 OA
HETATM   18  C17 UNL     1      29.016  -0.131  54.474  1.00  0.00     0.210 C 
ENDBRANCH  14  17
BRANCH  15  19
HETATM   19  O4  UNL     1      27.130   1.996  52.230  1.00  0.00    -0.353 OA
HETATM   20  C19 UNL     1      26.666   2.716  51.081  1.00  0.00     0.210 C 
ENDBRANCH  15  19
ENDBRANCH   6   7
ENDBRANCH   4   6
BRANCH   1  21
HETATM   21  N2  UNL     1      20.778   4.501  51.178  1.00  0.00    -0.332 N 
HETATM   22  C7  UNL     1      21.652   5.603  51.185  1.00  0.00     0.323 C 
HETATM   23  N1  UNL     1      21.652   6.526  50.077  1.00  0.00    -0.304 N 
HETATM   24  O1  UNL     1      22.378   5.670  52.207  1.00  0.00    -0.247 OA
HETATM   25  C2  UNL     1      22.567   7.640  50.132  1.00  0.00     0.007 C 
HETATM   26  C6  UNL     1      20.827   6.473  48.886  1.00  0.00     0.133 C 
HETATM   27  C1  UNL     1      23.662   7.608  50.874  1.00  0.00     0.038 C 
HETATM   28  C3  UNL     1      22.143   8.806  49.272  1.00  0.00     0.056 C 
HETATM   29  C4  UNL     1      20.630   8.893  49.517  1.00  0.00     0.007 C 
HETATM   30  C5  UNL     1      19.924   7.688  48.949  1.00  0.00     0.021 C 
HETATM   31  H11 UNL     1      20.106   4.293  50.405  1.00  0.00     0.165 HD
ENDBRANCH   1  21
TORSDOF 5
ENDMDL
MODEL 5
REMARK VINA RESULT:      -7.9      2.512      8.952
REMARK  5 active torsions:
REMARK  status: ('A' for Active; 'I' for Inactive)
REMARK       I    between atoms: N1_7  and  C7_8 
REMARK       I    between atoms: C7_8  and  N2_10 
REMARK    1  A    between atoms: N2_10  and  C8_11 
REMARK    2  A    between atoms: C11_14  and  O2_15 
REMARK    3  A    between atoms: O2_15  and  C12_16 
REMARK    4  A    between atoms: C16_22  and  O3_23 
REMARK    5  A    between atoms: C18_25  and  O4_26 
ROOT
HETATM    1  C8  UNL     1      26.162   7.592  49.136  1.00  0.00     0.135 A 
HETATM    2  C9  UNL     1      25.418   6.654  48.254  1.00  0.00     0.005 A 
HETATM    3  C10 UNL     1      24.586   5.906  48.962  1.00  0.00     0.035 A 
HETATM    4  C11 UNL     1      24.700   6.275  50.369  1.00  0.00     0.076 A 
HETATM    5  C22 UNL     1      25.612   7.250  50.472  1.00  0.00     0.039 A 
ENDROOT
BRANCH   4   6
HETATM    6  O2  UNL     1      24.156   5.922  51.597  1.00  0.00    -0.291 OA
BRANCH   6   7
HETATM    7  C12 UNL     1      23.073   5.027  51.659  1.00  0.00     0.183 A 
HETATM    8  N3  UNL     1      21.828   5.389  51.290  1.00  0.00    -0.217 NA
HETATM    9  C13 UNL     1      20.780   4.556  51.340  1.00  0.00     0.236 A 
HETATM   10  N4  UNL     1      20.899   3.297  51.761  1.00  0.00    -0.241 NA
HETATM   11  C14 UNL     1      22.125   2.883  52.142  1.00  0.00     0.075 A 
HETATM   12  C15 UNL     1      22.360   1.605  52.593  1.00  0.00     0.072 A 
HETATM   13  C21 UNL     1      23.227   3.722  52.102  1.00  0.00     0.049 A 
HETATM   14  C16 UNL     1      23.603   1.150  52.990  1.00  0.00     0.103 A 
HETATM   15  C18 UNL     1      24.690   2.013  52.939  1.00  0.00     0.102 A 
HETATM   16  C20 UNL     1      24.455   3.294  52.486  1.00  0.00     0.057 A 
BRANCH  14  17
HETATM   17  O3  UNL     1      23.715  -0.169  53.430  1.00  0.00    -0.353 OA
HETATM   18  C17 UNL     1      22.545  -0.907  53.617  1.00  0.00     0.210 C 
ENDBRANCH  14  17
BRANCH  15  19
HETATM   19  O4  UNL     1      25.885   1.449  53.361  1.00  0.00    -0.353 OA
HETATM   20  C19 UNL     1      27.109   1.785  52.693  1.00  0.00     0.210 C 
ENDBRANCH  15  19
ENDBRANCH   6   7
ENDBRANCH   4   6
BRANCH   1  21
HETATM   21  N2  UNL     1      27.568   7.309  49.025  1.00  0.00    -0.332 N 
HETATM   22  C7  UNL     1      28.540   8.325  48.966  1.00  0.00     0.323 C 
HETATM   23  N1  UNL     1      29.935   7.978  48.855  1.00  0.00    -0.304 N 
HETATM   24  O1  UNL     1      28.065   9.486  49.018  1.00  0.00    -0.247 OA
HETATM   25  C2  UNL     1      30.892   9.057  48.797  1.00  0.00     0.007 C 
HETATM   26  C6  UNL     1      30.510   6.649  48.792  1.00  0.00     0.133 C 
HETATM   27  C1  UNL     1      30.618  10.259  49.277  1.00  0.00     0.038 C 
HETATM   28  C3  UNL     1      32.197   8.664  48.148  1.00  0.00     0.056 C 
HETATM   29  C4  UNL     1      31.753   7.813  46.950  1.00  0.00     0.007 C 
HETATM   30  C5  UNL     1      31.124   6.524  47.413  1.00  0.00     0.021 C 
HETATM   31  H11 UNL     1      27.788   6.288  48.994  1.00  0.00     0.165 HD
ENDBRANCH   1  21
TORSDOF 5
ENDMDL
MODEL 6
REMARK VINA RESULT:      -7.8      2.209      3.234
REMARK  5 active torsions:
REMARK  status: ('A' for Active; 'I' for Inactive)
REMARK       I    between atoms: N1_7  and  C7_8 
REMARK       I    between atoms: C7_8  and  N2_10 
REMARK    1  A    between atoms: N2_10  and  C8_11 
REMARK    2  A    between atoms: C11_14  and  O2_15 
REMARK    3  A    between atoms: O2_15  and  C12_16 
REMARK    4  A    between atoms: C16_22  and  O3_23 
REMARK    5  A    between atoms: C18_25  and  O4_26 
ROOT
HETATM    1  C8  UNL     1      25.297   4.966  49.996  1.00  0.00     0.135 A 
HETATM    2  C9  UNL     1      26.298   3.878  49.840  1.00  0.00     0.005 A 
HETATM    3  C10 UNL     1      27.286   4.260  49.047  1.00  0.00     0.035 A 
HETATM    4  C11 UNL     1      27.035   5.628  48.605  1.00  0.00     0.076 A 
HETATM    5  C22 UNL     1      25.884   6.039  49.153  1.00  0.00     0.039 A 
ENDROOT
BRANCH   4   6
HETATM    6  O2  UNL     1      27.622   6.601  47.808  1.00  0.00    -0.291 OA
BRANCH   6   7
HETATM    7  C12 UNL     1      28.597   7.461  48.344  1.00  0.00     0.183 A 
HETATM    8  N3  UNL     1      28.302   8.718  48.732  1.00  0.00    -0.217 NA
HETATM    9  C13 UNL     1      29.212   9.557  49.246  1.00  0.00     0.236 A 
HETATM   10  N4  UNL     1      30.485   9.200  49.411  1.00  0.00    -0.241 NA
HETATM   11  C14 UNL     1      30.834   7.951  49.039  1.00  0.00     0.075 A 
HETATM   12  C15 UNL     1      32.120   7.480  49.165  1.00  0.00     0.072 A 
HETATM   13  C21 UNL     1      29.915   7.063  48.504  1.00  0.00     0.049 A 
HETATM   14  C16 UNL     1      32.510   6.208  48.794  1.00  0.00     0.103 A 
HETATM   15  C18 UNL     1      31.567   5.337  48.261  1.00  0.00     0.102 A 
HETATM   16  C20 UNL     1      30.277   5.808  48.134  1.00  0.00     0.057 A 
BRANCH  14  17
HETATM   17  O3  UNL     1      33.845   5.846  48.971  1.00  0.00    -0.353 OA
HETATM   18  C17 UNL     1      34.834   6.726  48.531  1.00  0.00     0.210 C 
ENDBRANCH  14  17
BRANCH  15  19
HETATM   19  O4  UNL     1      32.070   4.089  47.925  1.00  0.00    -0.353 OA
HETATM   20  C19 UNL     1      32.221   3.729  46.545  1.00  0.00     0.210 C 
ENDBRANCH  15  19
ENDBRANCH   6   7
ENDBRANCH   4   6
BRANCH   1  21
HETATM   21  N2  UNL     1      24.030   4.500  49.499  1.00  0.00    -0.332 N 
HETATM   22  C7  UNL     1      22.984   4.104  50.353  1.00  0.00     0.323 C 
HETATM   23  N1  UNL     1      21.736   3.646  49.794  1.00  0.00    -0.304 N 
HETATM   24  O1  UNL     1      23.262   4.196  51.574  1.00  0.00    -0.247 OA
HETATM   25  C2  UNL     1      20.695   3.250  50.713  1.00  0.00     0.007 C 
HETATM   26  C6  UNL     1      21.388   3.529  48.392  1.00  0.00     0.133 C 
HETATM   27  C1  UNL     1      20.657   3.696  51.958  1.00  0.00     0.038 C 
HETATM   28  C3  UNL     1      19.689   2.304  50.105  1.00  0.00     0.056 C 
HETATM   29  C4  UNL     1      20.561   1.338  49.291  1.00  0.00     0.007 C 
HETATM   30  C5  UNL     1      21.207   2.049  48.129  1.00  0.00     0.021 C 
HETATM   31  H11 UNL     1      23.969   4.487  48.456  1.00  0.00     0.165 HD
ENDBRANCH   1  21
TORSDOF 5
ENDMDL
MODEL 7
REMARK VINA RESULT:      -7.7      2.926      9.733
REMARK  5 active torsions:
REMARK  status: ('A' for Active; 'I' for Inactive)
REMARK       I    between atoms: N1_7  and  C7_8 
REMARK       I    between atoms: C7_8  and  N2_10 
REMARK    1  A    between atoms: N2_10  and  C8_11 
REMARK    2  A    between atoms: C11_14  and  O2_15 
REMARK    3  A    between atoms: O2_15  and  C12_16 
REMARK    4  A    between atoms: C16_22  and  O3_23 
REMARK    5  A    between atoms: C18_25  and  O4_26 
ROOT
HETATM    1  C8  UNL     1      26.449   5.832  48.682  1.00  0.00     0.135 A 
HETATM    2  C9  UNL     1      27.399   4.689  48.628  1.00  0.00     0.005 A 
HETATM    3  C10 UNL     1      27.068   3.763  49.514  1.00  0.00     0.035 A 
HETATM    4  C11 UNL     1      25.877   4.202  50.233  1.00  0.00     0.076 A 
HETATM    5  C22 UNL     1      25.517   5.400  49.754  1.00  0.00     0.039 A 
ENDROOT
BRANCH   4   6
HETATM    6  O2  UNL     1      25.031   3.756  51.240  1.00  0.00    -0.291 OA
BRANCH   6   7
HETATM    7  C12 UNL     1      25.358   2.606  51.980  1.00  0.00     0.183 A 
HETATM    8  N3  UNL     1      26.616   2.365  52.403  1.00  0.00    -0.217 NA
HETATM    9  C13 UNL     1      26.954   1.278  53.109  1.00  0.00     0.236 A 
HETATM   10  N4  UNL     1      26.059   0.350  53.445  1.00  0.00    -0.241 NA
HETATM   11  C14 UNL     1      24.785   0.542  53.046  1.00  0.00     0.075 A 
HETATM   12  C15 UNL     1      23.782  -0.353  53.339  1.00  0.00     0.072 A 
HETATM   13  C21 UNL     1      24.406   1.656  52.315  1.00  0.00     0.049 A 
HETATM   14  C16 UNL     1      22.468  -0.186  52.945  1.00  0.00     0.103 A 
HETATM   15  C18 UNL     1      22.116   0.942  52.213  1.00  0.00     0.102 A 
HETATM   16  C20 UNL     1      23.121   1.839  51.920  1.00  0.00     0.057 A 
BRANCH  14  17
HETATM   17  O3  UNL     1      21.541  -1.164  53.302  1.00  0.00    -0.353 OA
HETATM   18  C17 UNL     1      21.472  -1.556  54.640  1.00  0.00     0.210 C 
ENDBRANCH  14  17
BRANCH  15  19
HETATM   19  O4  UNL     1      20.773   1.004  51.874  1.00  0.00    -0.353 OA
HETATM   20  C19 UNL     1      19.956   2.067  52.383  1.00  0.00     0.210 C 
ENDBRANCH  15  19
ENDBRANCH   6   7
ENDBRANCH   4   6
BRANCH   1  21
HETATM   21  N2  UNL     1      27.181   7.022  49.028  1.00  0.00    -0.332 N 
HETATM   22  C7  UNL     1      27.304   8.114  48.149  1.00  0.00     0.323 C 
HETATM   23  N1  UNL     1      28.051   9.279  48.554  1.00  0.00    -0.304 N 
HETATM   24  O1  UNL     1      26.722   7.950  47.050  1.00  0.00    -0.247 OA
HETATM   25  C2  UNL     1      28.148  10.372  47.616  1.00  0.00     0.007 C 
HETATM   26  C6  UNL     1      28.732   9.495  49.815  1.00  0.00     0.133 C 
HETATM   27  C1  UNL     1      27.260  10.545  46.651  1.00  0.00     0.038 C 
HETATM   28  C3  UNL     1      29.341  11.265  47.860  1.00  0.00     0.056 C 
HETATM   29  C4  UNL     1      30.467  10.270  48.176  1.00  0.00     0.007 C 
HETATM   30  C5  UNL     1      30.209   9.567  49.484  1.00  0.00     0.021 C 
HETATM   31  H11 UNL     1      27.603   6.989  49.983  1.00  0.00     0.165 HD
ENDBRANCH   1  21
TORSDOF 5
ENDMDL
MODEL 8
REMARK VINA RESULT:      -7.6      3.889      5.750
REMARK  5 active torsions:
REMARK  status: ('A' for Active; 'I' for Inactive)
REMARK       I    between atoms: N1_7  and  C7_8 
REMARK       I    between atoms: C7_8  and  N2_10 
REMARK    1  A    between atoms: N2_10  and  C8_11 
REMARK    2  A    between atoms: C11_14  and  O2_15 
REMARK    3  A    between atoms: O2_15  and  C12_16 
REMARK    4  A    between atoms: C16_22  and  O3_23 
REMARK    5  A    between atoms: C18_25  and  O4_26 
ROOT
HETATM    1  C8  UNL     1      23.956   2.881  52.636  1.00  0.00     0.135 A 
HETATM    2  C9  UNL     1      23.809   4.295  53.072  1.00  0.00     0.005 A 
HETATM    3  C10 UNL     1      23.340   5.044  52.086  1.00  0.00     0.035 A 
HETATM    4  C11 UNL     1      23.134   4.202  50.912  1.00  0.00     0.076 A 
HETATM    5  C22 UNL     1      23.491   2.950  51.228  1.00  0.00     0.039 A 
ENDROOT
BRANCH   4   6
HETATM    6  O2  UNL     1      22.691   4.315  49.601  1.00  0.00    -0.291 OA
BRANCH   6   7
HETATM    7  C12 UNL     1      22.534   5.583  49.015  1.00  0.00     0.183 A 
HETATM    8  N3  UNL     1      21.319   6.135  48.822  1.00  0.00    -0.217 NA
HETATM    9  C13 UNL     1      21.143   7.340  48.266  1.00  0.00     0.236 A 
HETATM   10  N4  UNL     1      22.170   8.087  47.862  1.00  0.00    -0.241 NA
HETATM   11  C14 UNL     1      23.410   7.582  48.032  1.00  0.00     0.075 A 
HETATM   12  C15 UNL     1      24.540   8.268  47.651  1.00  0.00     0.072 A 
HETATM   13  C21 UNL     1      23.622   6.338  48.603  1.00  0.00     0.049 A 
HETATM   14  C16 UNL     1      25.822   7.779  47.810  1.00  0.00     0.103 A 
HETATM   15  C18 UNL     1      26.006   6.529  48.387  1.00  0.00     0.102 A 
HETATM   16  C20 UNL     1      24.874   5.841  48.770  1.00  0.00     0.057 A 
BRANCH  14  17
HETATM   17  O3  UNL     1      26.889   8.569  47.383  1.00  0.00    -0.353 OA
HETATM   18  C17 UNL     1      26.951   9.893  47.820  1.00  0.00     0.210 C 
ENDBRANCH  14  17
BRANCH  15  19
HETATM   19  O4  UNL     1      27.333   6.142  48.497  1.00  0.00    -0.353 OA
HETATM   20  C19 UNL     1      27.661   4.756  48.669  1.00  0.00     0.210 C 
ENDBRANCH  15  19
ENDBRANCH   6   7
ENDBRANCH   4   6
BRANCH   1  21
HETATM   21  N2  UNL     1      25.341   2.508  52.746  1.00  0.00    -0.332 N 
HETATM   22  C7  UNL     1      25.759   1.166  52.795  1.00  0.00     0.323 C 
HETATM   23  N1  UNL     1      27.163   0.855  52.906  1.00  0.00    -0.304 N 
HETATM   24  O1  UNL     1      24.818   0.337  52.735  1.00  0.00    -0.247 OA
HETATM   25  C2  UNL     1      27.539  -0.538  52.953  1.00  0.00     0.007 C 
HETATM   26  C6  UNL     1      28.269   1.788  52.978  1.00  0.00     0.133 C 
HETATM   27  C1  UNL     1      26.760  -1.489  52.464  1.00  0.00     0.038 C 
HETATM   28  C3  UNL     1      28.882  -0.772  53.602  1.00  0.00     0.056 C 
HETATM   29  C4  UNL     1      28.862   0.178  54.808  1.00  0.00     0.007 C 
HETATM   30  C5  UNL     1      28.872   1.616  54.357  1.00  0.00     0.021 C 
HETATM   31  H11 UNL     1      25.992   3.325  52.785  1.00  0.00     0.165 HD
ENDBRANCH   1  21
TORSDOF 5
ENDMDL
MODEL 9
REMARK VINA RESULT:      -7.5      2.175      3.049
REMARK  5 active torsions:
REMARK  status: ('A' for Active; 'I' for Inactive)
REMARK       I    between atoms: N1_7  and  C7_8 
REMARK       I    between atoms: C7_8  and  N2_10 
REMARK    1  A    between atoms: N2_10  and  C8_11 
REMARK    2  A    between atoms: C11_14  and  O2_15 
REMARK    3  A    between atoms: O2_15  and  C12_16 
REMARK    4  A    between atoms: C16_22  and  O3_23 
REMARK    5  A    between atoms: C18_25  and  O4_26 
ROOT
HETATM    1  C8  UNL     1      25.213   3.515  49.385  1.00  0.00     0.135 A 
HETATM    2  C9  UNL     1      23.948   4.152  48.936  1.00  0.00     0.005 A 
HETATM    3  C10 UNL     1      24.109   5.457  48.780  1.00  0.00     0.035 A 
HETATM    4  C11 UNL     1      25.487   5.804  49.111  1.00  0.00     0.076 A 
HETATM    5  C22 UNL     1      26.128   4.682  49.462  1.00  0.00     0.039 A 
ENDROOT
BRANCH   4   6
HETATM    6  O2  UNL     1      26.305   6.925  49.167  1.00  0.00    -0.291 OA
BRANCH   6   7
HETATM    7  C12 UNL     1      26.715   7.560  47.982  1.00  0.00     0.183 A 
HETATM    8  N3  UNL     1      25.865   8.296  47.237  1.00  0.00    -0.217 NA
HETATM    9  C13 UNL     1      26.230   8.910  46.104  1.00  0.00     0.236 A 
HETATM   10  N4  UNL     1      27.474   8.837  45.631  1.00  0.00    -0.241 NA
HETATM   11  C14 UNL     1      28.365   8.112  46.339  1.00  0.00     0.075 A 
HETATM   12  C15 UNL     1      29.674   7.970  45.942  1.00  0.00     0.072 A 
HETATM   13  C21 UNL     1      28.017   7.465  47.513  1.00  0.00     0.049 A 
HETATM   14  C16 UNL     1      30.612   7.235  46.643  1.00  0.00     0.103 A 
HETATM   15  C18 UNL     1      30.234   6.597  47.818  1.00  0.00     0.102 A 
HETATM   16  C20 UNL     1      28.922   6.740  48.217  1.00  0.00     0.057 A 
BRANCH  14  17
HETATM   17  O3  UNL     1      31.910   7.165  46.138  1.00  0.00    -0.353 OA
HETATM   18  C17 UNL     1      32.742   8.275  46.289  1.00  0.00     0.210 C 
ENDBRANCH  14  17
BRANCH  15  19
HETATM   19  O4  UNL     1      31.255   5.891  48.436  1.00  0.00    -0.353 OA
HETATM   20  C19 UNL     1      31.839   6.391  49.646  1.00  0.00     0.210 C 
ENDBRANCH  15  19
ENDBRANCH   6   7
ENDBRANCH   4   6
BRANCH   1  21
HETATM   21  N2  UNL     1      24.989   2.900  50.667  1.00  0.00    -0.332 N 
HETATM   22  C7  UNL     1      26.043   2.534  51.523  1.00  0.00     0.323 C 
HETATM   23  N1  UNL     1      25.753   1.921  52.796  1.00  0.00    -0.304 N 
HETATM   24  O1  UNL     1      27.183   2.794  51.066  1.00  0.00    -0.247 OA
HETATM   25  C2  UNL     1      26.871   1.565  53.638  1.00  0.00     0.007 C 
HETATM   26  C6  UNL     1      24.450   1.610  53.348  1.00  0.00     0.133 C 
HETATM   27  C1  UNL     1      28.049   2.153  53.520  1.00  0.00     0.038 C 
HETATM   28  C3  UNL     1      26.545   0.480  54.636  1.00  0.00     0.056 C 
HETATM   29  C4  UNL     1      25.705  -0.511  53.818  1.00  0.00     0.007 C 
HETATM   30  C5  UNL     1      24.381   0.099  53.432  1.00  0.00     0.021 C 
HETATM   31  H11 UNL     1      23.978   2.756  50.889  1.00  0.00     0.165 HD
ENDBRANCH   1  21
TORSDOF 5
ENDMDL
