MODEL 1
REMARK VINA RESULT:      -6.6      0.000      0.000
REMARK  6 active torsions:
REMARK  status: ('A' for Active; 'I' for Inactive)
REMARK    1  A    between atoms: O1_2  and  C2_3 
REMARK    2  A    between atoms: C7_10  and  N2_11 
REMARK    3  A    between atoms: N2_11  and  C8_12 
REMARK    4  A    between atoms: C9_13  and  C10_14 
REMARK    5  A    between atoms: C10_14  and  C11_15 
REMARK    6  A    between atoms: C14_19  and  O3_20 
ROOT
HETATM    1  C2  UNL     1      25.895  -0.445  53.561  1.00  0.00     0.102 C 
HETATM    2  C3  UNL     1      24.565  -0.374  53.980  1.00  0.00     0.059 C 
HETATM    3  C4  UNL     1      23.265  -0.192  53.488  1.00  0.00     0.119 C 
HETATM    4  N1  UNL     1      23.631   1.085  53.351  1.00  0.00    -0.271 NA
HETATM    5  C5  UNL     1      23.044   1.839  52.403  1.00  0.00     0.142 C 
HETATM    6  C6  UNL     1      23.847   2.099  51.316  1.00  0.00     0.078 C 
HETATM    7 CL1  UNL     1      23.062   1.830  49.784  1.00  0.00    -0.080 Cl
HETATM    8  C7  UNL     1      25.142   2.527  51.318  1.00  0.00     0.055 C 
HETATM    9  C12 UNL     1      26.496   2.284  51.360  1.00  0.00     0.034 C 
HETATM   10  C13 UNL     1      27.182   1.353  52.103  1.00  0.00     0.042 C 
HETATM   11  C14 UNL     1      26.727   0.569  53.138  1.00  0.00     0.101 C 
ENDROOT
BRANCH   8  12
HETATM   12  N2  UNL     1      24.720   3.890  51.232  1.00  0.00    -0.365 N 
HETATM   13  H7  UNL     1      24.176   4.788  51.349  1.00  0.00     0.165 HD
BRANCH  12  14
HETATM   14  C8  UNL     1      25.641   4.636  50.429  1.00  0.00     0.088 C 
HETATM   15  C9  UNL     1      25.680   5.162  49.197  1.00  0.00     0.021 C 
BRANCH  15  16
HETATM   16  C10 UNL     1      26.737   5.909  48.541  1.00  0.00     0.060 C 
BRANCH  16  17
HETATM   17  C11 UNL     1      27.905   5.326  48.539  1.00  0.00     0.221 C 
HETATM   18  O2  UNL     1      29.100   5.034  48.283  1.00  0.00    -0.284 OA
ENDBRANCH  16  17
ENDBRANCH  15  16
ENDBRANCH  12  14
ENDBRANCH   8  12
BRANCH  11  19
HETATM   19  O3  UNL     1      27.294   0.827  54.378  1.00  0.00    -0.353 OA
HETATM   20  C15 UNL     1      28.656   0.677  54.643  1.00  0.00     0.210 C 
ENDBRANCH  11  19
BRANCH   1  21
HETATM   21  O1  UNL     1      26.555  -1.655  53.531  1.00  0.00    -0.353 OA
HETATM   22  C1  UNL     1      26.930  -2.289  52.308  1.00  0.00     0.210 C 
ENDBRANCH   1  21
TORSDOF 6
ENDMDL
MODEL 2
REMARK VINA RESULT:      -6.5      3.267      5.541
REMARK  6 active torsions:
REMARK  status: ('A' for Active; 'I' for Inactive)
REMARK    1  A    between atoms: O1_2  and  C2_3 
REMARK    2  A    between atoms: C7_10  and  N2_11 
REMARK    3  A    between atoms: N2_11  and  C8_12 
REMARK    4  A    between atoms: C9_13  and  C10_14 
REMARK    5  A    between atoms: C10_14  and  C11_15 
REMARK    6  A    between atoms: C14_19  and  O3_20 
ROOT
HETATM    1  C2  UNL     1      21.665   0.914  52.270  1.00  0.00     0.102 C 
HETATM    2  C3  UNL     1      21.644   2.307  52.170  1.00  0.00     0.059 C 
HETATM    3  C4  UNL     1      22.358   3.381  51.623  1.00  0.00     0.119 C 
HETATM    4  N1  UNL     1      23.227   3.141  52.608  1.00  0.00    -0.271 NA
HETATM    5  C5  UNL     1      24.522   3.464  52.435  1.00  0.00     0.142 C 
HETATM    6  C6  UNL     1      25.347   2.382  52.230  1.00  0.00     0.078 C 
HETATM    7 CL1  UNL     1      26.439   2.578  50.887  1.00  0.00    -0.080 Cl
HETATM    8  C7  UNL     1      25.392   1.220  52.942  1.00  0.00     0.055 C 
HETATM    9  C12 UNL     1      24.959  -0.062  53.193  1.00  0.00     0.034 C 
HETATM   10  C13 UNL     1      23.681  -0.567  53.143  1.00  0.00     0.042 C 
HETATM   11  C14 UNL     1      22.490   0.112  53.030  1.00  0.00     0.101 C 
ENDROOT
BRANCH   8  12
HETATM   12  N2  UNL     1      26.422   1.743  53.784  1.00  0.00    -0.365 N 
HETATM   13  H7  UNL     1      26.971   2.359  54.444  1.00  0.00     0.165 HD
BRANCH  12  14
HETATM   14  C8  UNL     1      27.547   0.857  53.790  1.00  0.00     0.088 C 
HETATM   15  C9  UNL     1      28.854   0.914  53.505  1.00  0.00     0.021 C 
BRANCH  15  16
HETATM   16  C10 UNL     1      29.865  -0.124  53.575  1.00  0.00     0.060 C 
BRANCH  16  17
HETATM   17  C11 UNL     1      29.402  -1.344  53.586  1.00  0.00     0.221 C 
HETATM   18  O2  UNL     1      28.790  -2.399  53.281  1.00  0.00    -0.284 OA
ENDBRANCH  16  17
ENDBRANCH  15  16
ENDBRANCH  12  14
ENDBRANCH   8  12
BRANCH  11  19
HETATM   19  O3  UNL     1      21.644   0.022  54.127  1.00  0.00    -0.353 OA
HETATM   20  C15 UNL     1      21.253  -1.192  54.694  1.00  0.00     0.210 C 
ENDBRANCH  11  19
BRANCH   1  21
HETATM   21  O1  UNL     1      20.779   0.146  51.547  1.00  0.00    -0.353 OA
HETATM   22  C1  UNL     1      19.372   0.388  51.560  1.00  0.00     0.210 C 
ENDBRANCH   1  21
TORSDOF 6
ENDMDL
MODEL 3
REMARK VINA RESULT:      -6.5      3.179      5.753
REMARK  6 active torsions:
REMARK  status: ('A' for Active; 'I' for Inactive)
REMARK    1  A    between atoms: O1_2  and  C2_3 
REMARK    2  A    between atoms: C7_10  and  N2_11 
REMARK    3  A    between atoms: N2_11  and  C8_12 
REMARK    4  A    between atoms: C9_13  and  C10_14 
REMARK    5  A    between atoms: C10_14  and  C11_15 
REMARK    6  A    between atoms: C14_19  and  O3_20 
ROOT
HETATM    1  C2  UNL     1      21.774   2.425  52.116  1.00  0.00     0.102 C 
HETATM    2  C3  UNL     1      21.043   1.250  51.927  1.00  0.00     0.059 C 
HETATM    3  C4  UNL     1      20.712   0.047  52.564  1.00  0.00     0.119 C 
HETATM    4  N1  UNL     1      21.968  -0.303  52.279  1.00  0.00    -0.271 NA
HETATM    5  C5  UNL     1      22.598  -1.194  53.067  1.00  0.00     0.142 C 
HETATM    6  C6  UNL     1      23.555  -0.641  53.887  1.00  0.00     0.078 C 
HETATM    7 CL1  UNL     1      23.449  -1.168  55.544  1.00  0.00    -0.080 Cl
HETATM    8  C7  UNL     1      24.535   0.243  53.545  1.00  0.00     0.055 C 
HETATM    9  C12 UNL     1      24.989   1.526  53.342  1.00  0.00     0.034 C 
HETATM   10  C13 UNL     1      24.333   2.595  52.779  1.00  0.00     0.042 C 
HETATM   11  C14 UNL     1      23.139   2.611  52.094  1.00  0.00     0.101 C 
ENDROOT
BRANCH   8  12
HETATM   12  N2  UNL     1      25.459  -0.825  53.323  1.00  0.00    -0.365 N 
HETATM   13  H7  UNL     1      25.874  -1.772  53.105  1.00  0.00     0.165 HD
BRANCH  12  14
HETATM   14  C8  UNL     1      26.800  -0.358  53.508  1.00  0.00     0.088 C 
HETATM   15  C9  UNL     1      28.043  -0.826  53.336  1.00  0.00     0.021 C 
BRANCH  15  16
HETATM   16  C10 UNL     1      29.319  -0.183  53.588  1.00  0.00     0.060 C 
BRANCH  16  17
HETATM   17  C11 UNL     1      29.244   0.967  54.203  1.00  0.00     0.221 C 
HETATM   18  O2  UNL     1      28.995   2.168  54.476  1.00  0.00    -0.284 OA
ENDBRANCH  16  17
ENDBRANCH  15  16
ENDBRANCH  12  14
ENDBRANCH   8  12
BRANCH  11  19
HETATM   19  O3  UNL     1      23.224   2.958  50.754  1.00  0.00    -0.353 OA
HETATM   20  C15 UNL     1      24.030   3.994  50.280  1.00  0.00     0.210 C 
ENDBRANCH  11  19
BRANCH   1  21
HETATM   21  O1  UNL     1      21.129   3.618  52.365  1.00  0.00    -0.353 OA
HETATM   22  C1  UNL     1      19.984   4.037  51.623  1.00  0.00     0.210 C 
ENDBRANCH   1  21
TORSDOF 6
ENDMDL
MODEL 4
REMARK VINA RESULT:      -6.5      2.249      5.846
REMARK  6 active torsions:
REMARK  status: ('A' for Active; 'I' for Inactive)
REMARK    1  A    between atoms: O1_2  and  C2_3 
REMARK    2  A    between atoms: C7_10  and  N2_11 
REMARK    3  A    between atoms: N2_11  and  C8_12 
REMARK    4  A    between atoms: C9_13  and  C10_14 
REMARK    5  A    between atoms: C10_14  and  C11_15 
REMARK    6  A    between atoms: C14_19  and  O3_20 
ROOT
HETATM    1  C2  UNL     1      26.898   2.193  51.656  1.00  0.00     0.102 C 
HETATM    2  C3  UNL     1      26.595   2.876  50.476  1.00  0.00     0.059 C 
HETATM    3  C4  UNL     1      25.809   3.927  49.984  1.00  0.00     0.119 C 
HETATM    4  N1  UNL     1      24.796   3.071  50.131  1.00  0.00    -0.271 NA
HETATM    5  C5  UNL     1      23.558   3.549  50.354  1.00  0.00     0.142 C 
HETATM    6  C6  UNL     1      23.118   3.388  51.648  1.00  0.00     0.078 C 
HETATM    7 CL1  UNL     1      22.417   4.827  52.335  1.00  0.00    -0.080 Cl
HETATM    8  C7  UNL     1      23.175   2.261  52.414  1.00  0.00     0.055 C 
HETATM    9  C12 UNL     1      23.832   1.425  53.289  1.00  0.00     0.034 C 
HETATM   10  C13 UNL     1      25.160   1.070  53.310  1.00  0.00     0.042 C 
HETATM   11  C14 UNL     1      26.127   1.290  52.357  1.00  0.00     0.101 C 
ENDROOT
BRANCH   8  12
HETATM   12  N2  UNL     1      21.860   1.883  52.005  1.00  0.00    -0.365 N 
HETATM   13  H7  UNL     1      20.910   1.872  51.542  1.00  0.00     0.165 HD
BRANCH  12  14
HETATM   14  C8  UNL     1      21.493   0.643  52.622  1.00  0.00     0.088 C 
HETATM   15  C9  UNL     1      20.511   0.179  53.405  1.00  0.00     0.021 C 
BRANCH  15  16
HETATM   16  C10 UNL     1      20.304  -1.152  53.944  1.00  0.00     0.060 C 
BRANCH  16  17
HETATM   17  C11 UNL     1      21.356  -1.690  54.500  1.00  0.00     0.221 C 
HETATM   18  O2  UNL     1      22.249  -2.003  55.328  1.00  0.00    -0.284 OA
ENDBRANCH  16  17
ENDBRANCH  15  16
ENDBRANCH  12  14
ENDBRANCH   8  12
BRANCH  11  19
HETATM   19  O3  UNL     1      26.639   0.152  51.751  1.00  0.00    -0.353 OA
HETATM   20  C15 UNL     1      26.880  -1.039  52.438  1.00  0.00     0.210 C 
ENDBRANCH  11  19
BRANCH   1  21
HETATM   21  O1  UNL     1      28.110   2.382  52.283  1.00  0.00    -0.353 OA
HETATM   22  C1  UNL     1      28.250   2.337  53.703  1.00  0.00     0.210 C 
ENDBRANCH   1  21
TORSDOF 6
ENDMDL
MODEL 5
REMARK VINA RESULT:      -6.3      3.178      5.624
REMARK  6 active torsions:
REMARK  status: ('A' for Active; 'I' for Inactive)
REMARK    1  A    between atoms: O1_2  and  C2_3 
REMARK    2  A    between atoms: C7_10  and  N2_11 
REMARK    3  A    between atoms: N2_11  and  C8_12 
REMARK    4  A    between atoms: C9_13  and  C10_14 
REMARK    5  A    between atoms: C10_14  and  C11_15 
REMARK    6  A    between atoms: C14_19  and  O3_20 
ROOT
HETATM    1  C2  UNL     1      20.676   1.776  52.003  1.00  0.00     0.102 C 
HETATM    2  C3  UNL     1      20.521   3.164  52.005  1.00  0.00     0.059 C 
HETATM    3  C4  UNL     1      21.117   4.338  51.525  1.00  0.00     0.119 C 
HETATM    4  N1  UNL     1      22.029   4.113  52.473  1.00  0.00    -0.271 NA
HETATM    5  C5  UNL     1      23.284   4.569  52.301  1.00  0.00     0.142 C 
HETATM    6  C6  UNL     1      24.201   3.588  52.002  1.00  0.00     0.078 C 
HETATM    7 CL1  UNL     1      25.236   3.982  50.657  1.00  0.00    -0.080 Cl
HETATM    8  C7  UNL     1      24.373   2.388  52.627  1.00  0.00     0.055 C 
HETATM    9  C12 UNL     1      24.069   1.056  52.792  1.00  0.00     0.034 C 
HETATM   10  C13 UNL     1      22.843   0.437  52.729  1.00  0.00     0.042 C 
HETATM   11  C14 UNL     1      21.590   1.005  52.688  1.00  0.00     0.101 C 
ENDROOT
BRANCH   8  12
HETATM   12  N2  UNL     1      25.370   2.946  53.485  1.00  0.00    -0.365 N 
HETATM   13  H7  UNL     1      25.892   3.588  54.143  1.00  0.00     0.165 HD
BRANCH  12  14
HETATM   14  C8  UNL     1      26.500   2.069  53.559  1.00  0.00     0.088 C 
HETATM   15  C9  UNL     1      27.827   2.149  53.397  1.00  0.00     0.021 C 
BRANCH  15  16
HETATM   16  C10 UNL     1      28.839   1.116  53.518  1.00  0.00     0.060 C 
BRANCH  16  17
HETATM   17  C11 UNL     1      28.376  -0.096  53.664  1.00  0.00     0.221 C 
HETATM   18  O2  UNL     1      28.296  -1.345  53.774  1.00  0.00    -0.284 OA
ENDBRANCH  16  17
ENDBRANCH  15  16
ENDBRANCH  12  14
ENDBRANCH   8  12
BRANCH  11  19
HETATM   19  O3  UNL     1      20.785   0.757  53.790  1.00  0.00    -0.353 OA
HETATM   20  C15 UNL     1      21.157  -0.091  54.834  1.00  0.00     0.210 C 
ENDBRANCH  11  19
BRANCH   1  21
HETATM   21  O1  UNL     1      19.847   0.980  51.242  1.00  0.00    -0.353 OA
HETATM   22  C1  UNL     1      18.429   1.140  51.237  1.00  0.00     0.210 C 
ENDBRANCH   1  21
TORSDOF 6
ENDMDL
MODEL 6
REMARK VINA RESULT:      -6.2      2.848      5.821
REMARK  6 active torsions:
REMARK  status: ('A' for Active; 'I' for Inactive)
REMARK    1  A    between atoms: O1_2  and  C2_3 
REMARK    2  A    between atoms: C7_10  and  N2_11 
REMARK    3  A    between atoms: N2_11  and  C8_12 
REMARK    4  A    between atoms: C9_13  and  C10_14 
REMARK    5  A    between atoms: C10_14  and  C11_15 
REMARK    6  A    between atoms: C14_19  and  O3_20 
ROOT
HETATM    1  C2  UNL     1      22.694   3.353  50.391  1.00  0.00     0.102 C 
HETATM    2  C3  UNL     1      21.747   2.430  49.943  1.00  0.00     0.059 C 
HETATM    3  C4  UNL     1      20.767   1.544  50.410  1.00  0.00     0.119 C 
HETATM    4  N1  UNL     1      21.804   0.791  50.782  1.00  0.00    -0.271 NA
HETATM    5  C5  UNL     1      21.666  -0.049  51.825  1.00  0.00     0.142 C 
HETATM    6  C6  UNL     1      22.305   0.368  52.970  1.00  0.00     0.078 C 
HETATM    7 CL1  UNL     1      21.315   0.271  54.400  1.00  0.00    -0.080 Cl
HETATM    8  C7  UNL     1      23.581   0.832  53.091  1.00  0.00     0.055 C 
HETATM    9  C12 UNL     1      24.506   1.851  53.058  1.00  0.00     0.034 C 
HETATM   10  C13 UNL     1      24.589   2.913  52.189  1.00  0.00     0.042 C 
HETATM   11  C14 UNL     1      23.901   3.124  51.017  1.00  0.00     0.101 C 
ENDROOT
BRANCH   8  12
HETATM   12  N2  UNL     1      24.058  -0.479  53.400  1.00  0.00    -0.365 N 
HETATM   13  H7  UNL     1      24.103  -1.514  53.614  1.00  0.00     0.165 HD
BRANCH  12  14
HETATM   14  C8  UNL     1      25.485  -0.465  53.522  1.00  0.00     0.088 C 
HETATM   15  C9  UNL     1      26.538  -0.990  52.883  1.00  0.00     0.021 C 
BRANCH  15  16
HETATM   16  C10 UNL     1      27.955  -0.857  53.167  1.00  0.00     0.060 C 
BRANCH  16  17
HETATM   17  C11 UNL     1      28.241  -0.140  54.220  1.00  0.00     0.221 C 
HETATM   18  O2  UNL     1      28.365   0.822  55.020  1.00  0.00    -0.284 OA
ENDBRANCH  16  17
ENDBRANCH  15  16
ENDBRANCH  12  14
ENDBRANCH   8  12
BRANCH  11  19
HETATM   19  O3  UNL     1      24.672   3.129  49.864  1.00  0.00    -0.353 OA
HETATM   20  C15 UNL     1      26.038   3.416  49.857  1.00  0.00     0.210 C 
ENDBRANCH  11  19
BRANCH   1  21
HETATM   21  O1  UNL     1      22.482   4.706  50.234  1.00  0.00    -0.353 OA
HETATM   22  C1  UNL     1      21.887   5.509  51.253  1.00  0.00     0.210 C 
ENDBRANCH   1  21
TORSDOF 6
ENDMDL
MODEL 7
REMARK VINA RESULT:      -5.9      2.584      3.950
REMARK  6 active torsions:
REMARK  status: ('A' for Active; 'I' for Inactive)
REMARK    1  A    between atoms: O1_2  and  C2_3 
REMARK    2  A    between atoms: C7_10  and  N2_11 
REMARK    3  A    between atoms: N2_11  and  C8_12 
REMARK    4  A    between atoms: C9_13  and  C10_14 
REMARK    5  A    between atoms: C10_14  and  C11_15 
REMARK    6  A    between atoms: C14_19  and  O3_20 
ROOT
HETATM    1  C2  UNL     1      24.222   2.644  51.617  1.00  0.00     0.102 C 
HETATM    2  C3  UNL     1      23.464   3.709  52.109  1.00  0.00     0.059 C 
HETATM    3  C4  UNL     1      22.787   4.862  51.692  1.00  0.00     0.119 C 
HETATM    4  N1  UNL     1      24.010   5.376  51.545  1.00  0.00    -0.271 NA
HETATM    5  C5  UNL     1      24.209   6.349  50.637  1.00  0.00     0.142 C 
HETATM    6  C6  UNL     1      24.880   5.936  49.509  1.00  0.00     0.078 C 
HETATM    7 CL1  UNL     1      24.138   6.457  48.022  1.00  0.00    -0.080 Cl
HETATM    8  C7  UNL     1      26.019   5.189  49.442  1.00  0.00     0.055 C 
HETATM    9  C12 UNL     1      26.670   3.977  49.407  1.00  0.00     0.034 C 
HETATM   10  C13 UNL     1      26.388   2.825  50.103  1.00  0.00     0.042 C 
HETATM   11  C14 UNL     1      25.521   2.644  51.156  1.00  0.00     0.101 C 
ENDROOT
BRANCH   8  12
HETATM   12  N2  UNL     1      26.823   6.369  49.390  1.00  0.00    -0.365 N 
HETATM   13  H7  UNL     1      27.187   7.351  49.536  1.00  0.00     0.165 HD
BRANCH  12  14
HETATM   14  C8  UNL     1      27.981   6.137  48.581  1.00  0.00     0.088 C 
HETATM   15  C9  UNL     1      29.070   6.814  48.194  1.00  0.00     0.021 C 
BRANCH  15  16
HETATM   16  C10 UNL     1      30.169   6.395  47.344  1.00  0.00     0.060 C 
BRANCH  16  17
HETATM   17  C11 UNL     1      31.069   5.654  47.932  1.00  0.00     0.221 C 
HETATM   18  O2  UNL     1      31.684   4.672  48.418  1.00  0.00    -0.284 OA
ENDBRANCH  16  17
ENDBRANCH  15  16
ENDBRANCH  12  14
ENDBRANCH   8  12
BRANCH  11  19
HETATM   19  O3  UNL     1      26.111   2.301  52.363  1.00  0.00    -0.353 OA
HETATM   20  C15 UNL     1      27.487   2.138  52.524  1.00  0.00     0.210 C 
ENDBRANCH  11  19
BRANCH   1  21
HETATM   21  O1  UNL     1      23.683   1.378  51.540  1.00  0.00    -0.353 OA
HETATM   22  C1  UNL     1      22.795   0.866  52.533  1.00  0.00     0.210 C 
ENDBRANCH   1  21
TORSDOF 6
ENDMDL
MODEL 8
REMARK VINA RESULT:      -5.7      3.759      6.717
REMARK  6 active torsions:
REMARK  status: ('A' for Active; 'I' for Inactive)
REMARK    1  A    between atoms: O1_2  and  C2_3 
REMARK    2  A    between atoms: C7_10  and  N2_11 
REMARK    3  A    between atoms: N2_11  and  C8_12 
REMARK    4  A    between atoms: C9_13  and  C10_14 
REMARK    5  A    between atoms: C10_14  and  C11_15 
REMARK    6  A    between atoms: C14_19  and  O3_20 
ROOT
HETATM    1  C2  UNL     1      21.559   5.337  49.822  1.00  0.00     0.102 C 
HETATM    2  C3  UNL     1      21.981   6.520  50.434  1.00  0.00     0.059 C 
HETATM    3  C4  UNL     1      22.976   7.503  50.356  1.00  0.00     0.119 C 
HETATM    4  N1  UNL     1      23.768   6.566  50.882  1.00  0.00    -0.271 NA
HETATM    5  C5  UNL     1      25.088   6.599  50.622  1.00  0.00     0.142 C 
HETATM    6  C6  UNL     1      25.510   5.634  49.737  1.00  0.00     0.078 C 
HETATM    7 CL1  UNL     1      26.541   6.245  48.473  1.00  0.00    -0.080 Cl
HETATM    8  C7  UNL     1      25.214   4.303  49.749  1.00  0.00     0.055 C 
HETATM    9  C12 UNL     1      24.404   3.241  49.415  1.00  0.00     0.034 C 
HETATM   10  C13 UNL     1      23.031   3.177  49.393  1.00  0.00     0.042 C 
HETATM   11  C14 UNL     1      22.117   4.079  49.888  1.00  0.00     0.101 C 
ENDROOT
BRANCH   8  12
HETATM   12  N2  UNL     1      26.396   4.018  50.499  1.00  0.00    -0.365 N 
HETATM   13  H7  UNL     1      27.315   4.116  51.013  1.00  0.00     0.165 HD
BRANCH  12  14
HETATM   14  C8  UNL     1      26.443   2.625  50.829  1.00  0.00     0.088 C 
HETATM   15  C9  UNL     1      26.724   1.870  51.899  1.00  0.00     0.021 C 
BRANCH  15  16
HETATM   16  C10 UNL     1      26.716   0.426  52.043  1.00  0.00     0.060 C 
BRANCH  16  17
HETATM   17  C11 UNL     1      27.401  -0.030  53.056  1.00  0.00     0.221 C 
HETATM   18  O2  UNL     1      27.876  -0.785  53.941  1.00  0.00    -0.284 OA
ENDBRANCH  16  17
ENDBRANCH  15  16
ENDBRANCH  12  14
ENDBRANCH   8  12
BRANCH  11  19
HETATM   19  O3  UNL     1      21.341   3.625  50.945  1.00  0.00    -0.353 OA
HETATM   20  C15 UNL     1      21.881   3.081  52.112  1.00  0.00     0.210 C 
ENDBRANCH  11  19
BRANCH   1  21
HETATM   21  O1  UNL     1      20.438   5.326  49.019  1.00  0.00    -0.353 OA
HETATM   22  C1  UNL     1      19.205   5.922  49.422  1.00  0.00     0.210 C 
ENDBRANCH   1  21
TORSDOF 6
ENDMDL
MODEL 9
REMARK VINA RESULT:      -5.7      3.570      7.495
REMARK  6 active torsions:
REMARK  status: ('A' for Active; 'I' for Inactive)
REMARK    1  A    between atoms: O1_2  and  C2_3 
REMARK    2  A    between atoms: C7_10  and  N2_11 
REMARK    3  A    between atoms: N2_11  and  C8_12 
REMARK    4  A    between atoms: C9_13  and  C10_14 
REMARK    5  A    between atoms: C10_14  and  C11_15 
REMARK    6  A    between atoms: C14_19  and  O3_20 
ROOT
HETATM    1  C2  UNL     1      22.806   5.775  47.477  1.00  0.00     0.102 C 
HETATM    2  C3  UNL     1      23.484   6.971  47.723  1.00  0.00     0.059 C 
HETATM    3  C4  UNL     1      24.776   7.510  47.784  1.00  0.00     0.119 C 
HETATM    4  N1  UNL     1      24.862   6.846  48.939  1.00  0.00    -0.271 NA
HETATM    5  C5  UNL     1      26.069   6.439  49.375  1.00  0.00     0.142 C 
HETATM    6  C6  UNL     1      26.283   5.085  49.251  1.00  0.00     0.078 C 
HETATM    7 CL1  UNL     1      27.820   4.681  48.539  1.00  0.00    -0.080 Cl
HETATM    8  C7  UNL     1      25.446   4.071  49.613  1.00  0.00     0.055 C 
HETATM    9  C12 UNL     1      24.406   3.208  49.350  1.00  0.00     0.034 C 
HETATM   10  C13 UNL     1      23.231   3.452  48.678  1.00  0.00     0.042 C 
HETATM   11  C14 UNL     1      22.701   4.657  48.277  1.00  0.00     0.101 C 
ENDROOT
BRANCH   8  12
HETATM   12  N2  UNL     1      26.075   3.972  50.892  1.00  0.00    -0.365 N 
HETATM   13  H7  UNL     1      26.495   4.210  51.833  1.00  0.00     0.165 HD
BRANCH  12  14
HETATM   14  C8  UNL     1      26.398   2.606  51.174  1.00  0.00     0.088 C 
HETATM   15  C9  UNL     1      26.668   1.854  52.249  1.00  0.00     0.021 C 
BRANCH  15  16
HETATM   16  C10 UNL     1      26.982   0.440  52.337  1.00  0.00     0.060 C 
BRANCH  16  17
HETATM   17  C11 UNL     1      27.338   0.027  53.523  1.00  0.00     0.221 C 
HETATM   18  O2  UNL     1      27.878  -0.615  54.459  1.00  0.00    -0.284 OA
ENDBRANCH  16  17
ENDBRANCH  15  16
ENDBRANCH  12  14
ENDBRANCH   8  12
BRANCH  11  19
HETATM   19  O3  UNL     1      21.514   5.022  48.894  1.00  0.00    -0.353 OA
HETATM   20  C15 UNL     1      20.629   4.102  49.459  1.00  0.00     0.210 C 
ENDBRANCH  11  19
BRANCH   1  21
HETATM   21  O1  UNL     1      22.116   5.590  46.299  1.00  0.00    -0.353 OA
HETATM   22  C1  UNL     1      22.084   6.579  45.270  1.00  0.00     0.210 C 
ENDBRANCH   1  21
TORSDOF 6
ENDMDL
