MODEL 1
REMARK VINA RESULT:      -8.1      0.000      0.000
REMARK  0 active torsions:
REMARK  status: ('A' for Active; 'I' for Inactive)
ROOT
HETATM    1  F1  UNL     1      21.917  -2.634  54.953  1.00  0.00    -0.209 F 
HETATM    2  C1  UNL     1      21.630  -1.381  54.425  1.00  0.00     0.111 C 
HETATM    3  C2  UNL     1      21.185  -0.101  54.307  1.00  0.00     0.036 C 
HETATM    4  C3  UNL     1      20.794   1.280  53.913  1.00  0.00    -0.013 C 
HETATM    5  C4  UNL     1      21.119   1.367  52.652  1.00  0.00     0.058 C 
HETATM    6  C5  UNL     1      21.266   1.995  51.407  1.00  0.00    -0.009 A 
HETATM    7 BR1  UNL     1      21.542   0.983  49.831  1.00  0.00    -0.114 Br
HETATM    8  C6  UNL     1      21.290   2.873  50.455  1.00  0.00     0.078 A 
HETATM    9  C7  UNL     1      20.875   3.735  51.592  1.00  0.00     0.025 C 
HETATM   10  C8  UNL     1      22.245   4.023  51.688  1.00  0.00     0.003 C 
HETATM   11  C9  UNL     1      23.319   3.514  52.650  1.00  0.00     0.057 C 
HETATM   12  C10 UNL     1      24.273   2.551  52.032  1.00  0.00     0.021 C 
HETATM   13  C11 UNL     1      25.112   1.851  53.082  1.00  0.00     0.058 A 
HETATM   14  C12 UNL     1      26.510   1.863  52.528  1.00  0.00    -0.016 A 
HETATM   15  C13 UNL     1      26.938   0.630  52.332  1.00  0.00    -0.001 A 
HETATM   16  C14 UNL     1      25.908  -0.323  52.725  1.00  0.00     0.025 A 
HETATM   17  C15 UNL     1      24.844   0.372  53.161  1.00  0.00     0.013 A 
HETATM   18  N1  UNL     1      23.703  -0.393  53.619  1.00  0.00    -0.386 N 
HETATM   19  C16 UNL     1      22.396  -0.899  53.225  1.00  0.00     0.189 C 
HETATM   20  N2  UNL     1      22.160   4.932  50.564  1.00  0.00    -0.391 N 
HETATM   21  C17 UNL     1      21.185   4.167  49.744  1.00  0.00     0.149 C 
HETATM   22  H13 UNL     1      23.955  -0.678  54.621  1.00  0.00     0.159 HD
HETATM   23  H16 UNL     1      22.750   5.832  50.569  1.00  0.00     0.159 HD
ENDROOT
TORSDOF 0
ENDMDL
MODEL 2
REMARK VINA RESULT:      -8.1      2.250      4.216
REMARK  0 active torsions:
REMARK  status: ('A' for Active; 'I' for Inactive)
ROOT
HETATM    1  F1  UNL     1      28.032  -0.391  54.487  1.00  0.00    -0.209 F 
HETATM    2  C1  UNL     1      27.305   0.320  53.541  1.00  0.00     0.111 C 
HETATM    3  C2  UNL     1      26.866   0.807  52.349  1.00  0.00     0.036 C 
HETATM    4  C3  UNL     1      26.205   1.489  51.203  1.00  0.00    -0.013 C 
HETATM    5  C4  UNL     1      25.336   2.292  51.754  1.00  0.00     0.058 C 
HETATM    6  C5  UNL     1      24.305   3.243  51.780  1.00  0.00    -0.009 A 
HETATM    7 BR1  UNL     1      23.916   4.216  53.356  1.00  0.00    -0.114 Br
HETATM    8  C6  UNL     1      23.364   4.062  51.433  1.00  0.00     0.078 A 
HETATM    9  C7  UNL     1      23.723   3.503  50.103  1.00  0.00     0.025 C 
HETATM   10  C8  UNL     1      22.660   2.620  50.346  1.00  0.00     0.003 C 
HETATM   11  C9  UNL     1      22.643   1.160  50.797  1.00  0.00     0.057 C 
HETATM   12  C10 UNL     1      22.208   0.971  52.210  1.00  0.00     0.021 C 
HETATM   13  C11 UNL     1      22.499  -0.434  52.696  1.00  0.00     0.058 A 
HETATM   14  C12 UNL     1      21.257  -0.849  53.438  1.00  0.00    -0.016 A 
HETATM   15  C13 UNL     1      21.534  -1.075  54.708  1.00  0.00    -0.001 A 
HETATM   16  C14 UNL     1      22.952  -0.848  54.957  1.00  0.00     0.025 A 
HETATM   17  C15 UNL     1      23.523  -0.475  53.799  1.00  0.00     0.013 A 
HETATM   18  N1  UNL     1      24.946  -0.214  53.823  1.00  0.00    -0.386 N 
HETATM   19  C16 UNL     1      25.943   0.844  53.906  1.00  0.00     0.189 C 
HETATM   20  N2  UNL     1      21.696   3.644  50.000  1.00  0.00    -0.391 N 
HETATM   21  C17 UNL     1      22.401   4.810  50.594  1.00  0.00     0.149 C 
HETATM   22  H13 UNL     1      25.399  -1.184  53.759  1.00  0.00     0.159 HD
HETATM   23  H16 UNL     1      20.801   3.367  49.470  1.00  0.00     0.159 HD
ENDROOT
TORSDOF 0
ENDMDL
MODEL 3
REMARK VINA RESULT:      -7.6      2.244      4.308
REMARK  0 active torsions:
REMARK  status: ('A' for Active; 'I' for Inactive)
ROOT
HETATM    1  F1  UNL     1      24.568  -1.133  54.676  1.00  0.00    -0.209 F 
HETATM    2  C1  UNL     1      24.788  -0.166  53.704  1.00  0.00     0.111 C 
HETATM    3  C2  UNL     1      25.316   0.500  52.641  1.00  0.00     0.036 C 
HETATM    4  C3  UNL     1      25.699   1.425  51.540  1.00  0.00    -0.013 C 
HETATM    5  C4  UNL     1      24.920   2.460  51.693  1.00  0.00     0.058 C 
HETATM    6  C5  UNL     1      24.379   3.715  51.378  1.00  0.00    -0.009 A 
HETATM    7 BR1  UNL     1      23.373   4.691  52.651  1.00  0.00    -0.114 Br
HETATM    8  C6  UNL     1      24.099   4.833  50.785  1.00  0.00     0.078 A 
HETATM    9  C7  UNL     1      25.038   4.243  49.796  1.00  0.00     0.025 C 
HETATM   10  C8  UNL     1      23.867   3.790  49.168  1.00  0.00     0.003 C 
HETATM   11  C9  UNL     1      23.202   2.414  49.144  1.00  0.00     0.057 C 
HETATM   12  C10 UNL     1      21.962   2.331  49.968  1.00  0.00     0.021 C 
HETATM   13  C11 UNL     1      21.520   0.894  50.158  1.00  0.00     0.058 A 
HETATM   14  C12 UNL     1      20.031   0.919  49.943  1.00  0.00    -0.016 A 
HETATM   15  C13 UNL     1      19.402   0.551  51.043  1.00  0.00    -0.001 A 
HETATM   16  C14 UNL     1      20.367   0.242  52.090  1.00  0.00     0.025 A 
HETATM   17  C15 UNL     1      21.599   0.438  51.590  1.00  0.00     0.013 A 
HETATM   18  N1  UNL     1      22.715   0.170  52.472  1.00  0.00    -0.386 N 
HETATM   19  C16 UNL     1      23.682   0.795  53.363  1.00  0.00     0.189 C 
HETATM   20  N2  UNL     1      23.623   5.106  48.616  1.00  0.00    -0.391 N 
HETATM   21  C17 UNL     1      24.086   5.914  49.774  1.00  0.00     0.149 C 
HETATM   22  H13 UNL     1      22.843  -0.894  52.428  1.00  0.00     0.159 HD
HETATM   23  H16 UNL     1      23.207   5.193  47.627  1.00  0.00     0.159 HD
ENDROOT
TORSDOF 0
ENDMDL
MODEL 4
REMARK VINA RESULT:      -7.4      3.365      4.703
REMARK  0 active torsions:
REMARK  status: ('A' for Active; 'I' for Inactive)
ROOT
HETATM    1  F1  UNL     1      27.721   4.361  49.094  1.00  0.00    -0.209 F 
HETATM    2  C1  UNL     1      26.402   3.970  49.288  1.00  0.00     0.111 C 
HETATM    3  C2  UNL     1      25.168   3.438  49.074  1.00  0.00     0.036 C 
HETATM    4  C3  UNL     1      23.762   2.952  49.101  1.00  0.00    -0.013 C 
HETATM    5  C4  UNL     1      23.294   3.359  50.248  1.00  0.00     0.058 C 
HETATM    6  C5  UNL     1      22.339   3.501  51.266  1.00  0.00    -0.009 A 
HETATM    7 BR1  UNL     1      22.538   4.816  52.613  1.00  0.00    -0.114 Br
HETATM    8  C6  UNL     1      21.265   3.399  51.983  1.00  0.00     0.078 A 
HETATM    9  C7  UNL     1      20.918   2.483  50.865  1.00  0.00     0.025 C 
HETATM   10  C8  UNL     1      21.405   1.483  51.721  1.00  0.00     0.003 C 
HETATM   11  C9  UNL     1      22.734   0.728  51.739  1.00  0.00     0.057 C 
HETATM   12  C10 UNL     1      23.648   1.145  52.840  1.00  0.00     0.021 C 
HETATM   13  C11 UNL     1      25.047   0.600  52.633  1.00  0.00     0.058 A 
HETATM   14  C12 UNL     1      25.467   0.098  53.988  1.00  0.00    -0.016 A 
HETATM   15  C13 UNL     1      26.519   0.768  54.421  1.00  0.00    -0.001 A 
HETATM   16  C14 UNL     1      26.915   1.765  53.435  1.00  0.00     0.025 A 
HETATM   17  C15 UNL     1      26.070   1.679  52.394  1.00  0.00     0.013 A 
HETATM   18  N1  UNL     1      26.299   2.581  51.285  1.00  0.00    -0.386 N 
HETATM   19  C16 UNL     1      25.876   3.841  50.691  1.00  0.00     0.189 C 
HETATM   20  N2  UNL     1      20.179   1.509  52.491  1.00  0.00    -0.391 N 
HETATM   21  C17 UNL     1      19.922   2.972  52.435  1.00  0.00     0.149 C 
HETATM   22  H13 UNL     1      27.081   2.115  50.717  1.00  0.00     0.159 HD
HETATM   23  H16 UNL     1      19.786   0.588  52.887  1.00  0.00     0.159 HD
ENDROOT
TORSDOF 0
ENDMDL
MODEL 5
REMARK VINA RESULT:      -7.4      1.889      2.392
REMARK  0 active torsions:
REMARK  status: ('A' for Active; 'I' for Inactive)
ROOT
HETATM    1  F1  UNL     1      19.230  -0.717  52.477  1.00  0.00    -0.209 F 
HETATM    2  C1  UNL     1      19.773   0.541  52.248  1.00  0.00     0.111 C 
HETATM    3  C2  UNL     1      19.995   1.882  52.308  1.00  0.00     0.036 C 
HETATM    4  C3  UNL     1      20.441   3.296  52.183  1.00  0.00    -0.013 C 
HETATM    5  C4  UNL     1      21.374   3.268  51.271  1.00  0.00     0.058 C 
HETATM    6  C5  UNL     1      22.376   3.799  50.445  1.00  0.00    -0.009 A 
HETATM    7 BR1  UNL     1      23.007   2.842  48.939  1.00  0.00    -0.114 Br
HETATM    8  C6  UNL     1      23.230   4.597  49.886  1.00  0.00     0.078 A 
HETATM    9  C7  UNL     1      22.663   5.506  50.916  1.00  0.00     0.025 C 
HETATM   10  C8  UNL     1      23.769   5.100  51.679  1.00  0.00     0.003 C 
HETATM   11  C9  UNL     1      23.889   4.102  52.830  1.00  0.00     0.057 C 
HETATM   12  C10 UNL     1      24.560   2.825  52.453  1.00  0.00     0.021 C 
HETATM   13  C11 UNL     1      24.382   1.769  53.524  1.00  0.00     0.058 A 
HETATM   14  C12 UNL     1      25.738   1.134  53.667  1.00  0.00    -0.016 A 
HETATM   15  C13 UNL     1      25.684  -0.145  53.345  1.00  0.00    -0.001 A 
HETATM   16  C14 UNL     1      24.324  -0.505  52.965  1.00  0.00     0.025 A 
HETATM   17  C15 UNL     1      23.559   0.595  53.063  1.00  0.00     0.013 A 
HETATM   18  N1  UNL     1      22.155   0.450  52.742  1.00  0.00    -0.386 N 
HETATM   19  C16 UNL     1      21.167   0.646  51.692  1.00  0.00     0.189 C 
HETATM   20  N2  UNL     1      24.640   5.984  50.933  1.00  0.00    -0.391 N 
HETATM   21  C17 UNL     1      24.024   5.811  49.592  1.00  0.00     0.149 C 
HETATM   22  H13 UNL     1      21.717   0.040  53.630  1.00  0.00     0.159 HD
HETATM   23  H16 UNL     1      25.439   6.492  51.446  1.00  0.00     0.159 HD
ENDROOT
TORSDOF 0
ENDMDL
MODEL 6
REMARK VINA RESULT:      -7.3      2.668      4.703
REMARK  0 active torsions:
REMARK  status: ('A' for Active; 'I' for Inactive)
ROOT
HETATM    1  F1  UNL     1      27.120   2.226  51.636  1.00  0.00    -0.209 F 
HETATM    2  C1  UNL     1      25.792   1.856  51.808  1.00  0.00     0.111 C 
HETATM    3  C2  UNL     1      24.647   1.380  52.367  1.00  0.00     0.036 C 
HETATM    4  C3  UNL     1      23.277   0.923  52.727  1.00  0.00    -0.013 C 
HETATM    5  C4  UNL     1      22.579   1.083  51.638  1.00  0.00     0.058 C 
HETATM    6  C5  UNL     1      21.425   1.062  50.839  1.00  0.00    -0.009 A 
HETATM    7 BR1  UNL     1      21.544   1.152  48.952  1.00  0.00    -0.114 Br
HETATM    8  C6  UNL     1      20.201   0.952  50.430  1.00  0.00     0.078 A 
HETATM    9  C7  UNL     1      20.016   0.672  51.878  1.00  0.00     0.025 C 
HETATM   10  C8  UNL     1      19.708   2.039  51.957  1.00  0.00     0.003 C 
HETATM   11  C9  UNL     1      20.532   3.233  52.439  1.00  0.00     0.057 C 
HETATM   12  C10 UNL     1      21.013   4.116  51.338  1.00  0.00     0.021 C 
HETATM   13  C11 UNL     1      22.063   5.091  51.830  1.00  0.00     0.058 A 
HETATM   14  C12 UNL     1      21.686   6.408  51.207  1.00  0.00    -0.016 A 
HETATM   15  C13 UNL     1      22.643   6.826  50.400  1.00  0.00    -0.001 A 
HETATM   16  C14 UNL     1      23.741   5.868  50.391  1.00  0.00     0.025 A 
HETATM   17  C15 UNL     1      23.418   4.858  51.215  1.00  0.00     0.013 A 
HETATM   18  N1  UNL     1      24.390   3.795  51.365  1.00  0.00    -0.386 N 
HETATM   19  C16 UNL     1      24.742   2.457  50.914  1.00  0.00     0.189 C 
HETATM   20  N2  UNL     1      18.383   1.799  51.424  1.00  0.00    -0.391 N 
HETATM   21  C17 UNL     1      18.736   0.740  50.444  1.00  0.00     0.149 C 
HETATM   22  H13 UNL     1      25.097   4.176  52.075  1.00  0.00     0.159 HD
HETATM   23  H16 UNL     1      17.553   2.372  51.800  1.00  0.00     0.159 HD
ENDROOT
TORSDOF 0
ENDMDL
MODEL 7
REMARK VINA RESULT:      -7.2      2.662      4.112
REMARK  0 active torsions:
REMARK  status: ('A' for Active; 'I' for Inactive)
ROOT
HETATM    1  F1  UNL     1      17.251   2.586  51.669  1.00  0.00    -0.209 F 
HETATM    2  C1  UNL     1      18.526   3.112  51.506  1.00  0.00     0.111 C 
HETATM    3  C2  UNL     1      19.598   3.947  51.583  1.00  0.00     0.036 C 
HETATM    4  C3  UNL     1      20.900   4.664  51.508  1.00  0.00    -0.013 C 
HETATM    5  C4  UNL     1      21.644   3.917  50.741  1.00  0.00     0.058 C 
HETATM    6  C5  UNL     1      22.813   3.539  50.063  1.00  0.00    -0.009 A 
HETATM    7 BR1  UNL     1      22.762   2.254  48.674  1.00  0.00    -0.114 Br
HETATM    8  C6  UNL     1      24.031   3.485  49.624  1.00  0.00     0.078 A 
HETATM    9  C7  UNL     1      24.141   4.642  50.551  1.00  0.00     0.025 C 
HETATM   10  C8  UNL     1      24.589   3.680  51.470  1.00  0.00     0.003 C 
HETATM   11  C9  UNL     1      23.881   2.993  52.638  1.00  0.00     0.057 C 
HETATM   12  C10 UNL     1      23.530   1.568  52.375  1.00  0.00     0.021 C 
HETATM   13  C11 UNL     1      22.574   1.032  53.421  1.00  0.00     0.058 A 
HETATM   14  C12 UNL     1      23.107  -0.332  53.765  1.00  0.00    -0.016 A 
HETATM   15  C13 UNL     1      22.225  -1.263  53.453  1.00  0.00    -0.001 A 
HETATM   16  C14 UNL     1      21.032  -0.648  52.884  1.00  0.00     0.025 A 
HETATM   17  C15 UNL     1      21.222   0.682  52.859  1.00  0.00     0.013 A 
HETATM   18  N1  UNL     1      20.139   1.490  52.340  1.00  0.00    -0.386 N 
HETATM   19  C16 UNL     1      19.661   2.189  51.156  1.00  0.00     0.189 C 
HETATM   20  N2  UNL     1      25.896   3.656  50.848  1.00  0.00    -0.391 N 
HETATM   21  C17 UNL     1      25.463   3.804  49.434  1.00  0.00     0.149 C 
HETATM   22  H13 UNL     1      19.454   1.582  53.160  1.00  0.00     0.159 HD
HETATM   23  H16 UNL     1      26.771   3.543  51.466  1.00  0.00     0.159 HD
ENDROOT
TORSDOF 0
ENDMDL
MODEL 8
REMARK VINA RESULT:      -7.0     10.717     13.493
REMARK  0 active torsions:
REMARK  status: ('A' for Active; 'I' for Inactive)
ROOT
HETATM    1  F1  UNL     1      33.147  11.654  46.468  1.00  0.00    -0.209 F 
HETATM    2  C1  UNL     1      33.524  10.360  46.803  1.00  0.00     0.111 C 
HETATM    3  C2  UNL     1      34.107   9.309  47.442  1.00  0.00     0.036 C 
HETATM    4  C3  UNL     1      34.617   8.004  47.942  1.00  0.00    -0.013 C 
HETATM    5  C4  UNL     1      34.165   7.125  47.090  1.00  0.00     0.058 C 
HETATM    6  C5  UNL     1      33.955   5.844  46.560  1.00  0.00    -0.009 A 
HETATM    7 BR1  UNL     1      33.379   5.611  44.772  1.00  0.00    -0.114 Br
HETATM    8  C6  UNL     1      33.932   4.560  46.389  1.00  0.00     0.078 A 
HETATM    9  C7  UNL     1      34.576   4.631  47.727  1.00  0.00     0.025 C 
HETATM   10  C8  UNL     1      33.271   4.441  48.208  1.00  0.00     0.003 C 
HETATM   11  C9  UNL     1      32.260   5.422  48.799  1.00  0.00     0.057 C 
HETATM   12  C10 UNL     1      31.130   5.747  47.883  1.00  0.00     0.021 C 
HETATM   13  C11 UNL     1      30.337   6.938  48.384  1.00  0.00     0.058 A 
HETATM   14  C12 UNL     1      28.896   6.543  48.201  1.00  0.00    -0.016 A 
HETATM   15  C13 UNL     1      28.300   7.358  47.351  1.00  0.00    -0.001 A 
HETATM   16  C14 UNL     1      29.243   8.365  46.882  1.00  0.00     0.025 A 
HETATM   17  C15 UNL     1      30.428   8.132  47.473  1.00  0.00     0.013 A 
HETATM   18  N1  UNL     1      31.510   9.038  47.152  1.00  0.00    -0.386 N 
HETATM   19  C16 UNL     1      32.692   9.205  46.318  1.00  0.00     0.189 C 
HETATM   20  N2  UNL     1      33.339   3.026  47.907  1.00  0.00    -0.391 N 
HETATM   21  C17 UNL     1      34.113   3.113  46.642  1.00  0.00     0.149 C 
HETATM   22  H13 UNL     1      31.341   9.892  47.779  1.00  0.00     0.159 HD
HETATM   23  H16 UNL     1      32.869   2.323  48.573  1.00  0.00     0.159 HD
ENDROOT
TORSDOF 0
ENDMDL
MODEL 9
REMARK VINA RESULT:      -7.0      9.196     10.674
REMARK  0 active torsions:
REMARK  status: ('A' for Active; 'I' for Inactive)
ROOT
HETATM    1  F1  UNL     1      25.828   5.306  49.033  1.00  0.00    -0.209 F 
HETATM    2  C1  UNL     1      26.376   6.580  49.117  1.00  0.00     0.111 C 
HETATM    3  C2  UNL     1      26.724   7.807  49.590  1.00  0.00     0.036 C 
HETATM    4  C3  UNL     1      27.228   9.182  49.855  1.00  0.00    -0.013 C 
HETATM    5  C4  UNL     1      27.805   9.542  48.742  1.00  0.00     0.058 C 
HETATM    6  C5  UNL     1      28.524  10.389  47.886  1.00  0.00    -0.009 A 
HETATM    7 BR1  UNL     1      28.539  10.102  46.015  1.00  0.00    -0.114 Br
HETATM    8  C6  UNL     1      29.215  11.376  47.410  1.00  0.00     0.078 A 
HETATM    9  C7  UNL     1      29.100  11.802  48.829  1.00  0.00     0.025 C 
HETATM   10  C8  UNL     1      30.354  11.187  48.967  1.00  0.00     0.003 C 
HETATM   11  C9  UNL     1      30.756   9.834  49.554  1.00  0.00     0.057 C 
HETATM   12  C10 UNL     1      31.149   8.826  48.529  1.00  0.00     0.021 C 
HETATM   13  C11 UNL     1      31.238   7.436  49.125  1.00  0.00     0.058 A 
HETATM   14  C12 UNL     1      32.504   6.855  48.557  1.00  0.00    -0.016 A 
HETATM   15  C13 UNL     1      32.233   5.792  47.823  1.00  0.00    -0.001 A 
HETATM   16  C14 UNL     1      30.797   5.542  47.818  1.00  0.00     0.025 A 
HETATM   17  C15 UNL     1      30.209   6.489  48.569  1.00  0.00     0.013 A 
HETATM   18  N1  UNL     1      28.770   6.415  48.709  1.00  0.00    -0.386 N 
HETATM   19  C16 UNL     1      27.513   6.950  48.205  1.00  0.00     0.189 C 
HETATM   20  N2  UNL     1      31.009  12.325  48.355  1.00  0.00    -0.391 N 
HETATM   21  C17 UNL     1      29.974  12.645  47.338  1.00  0.00     0.149 C 
HETATM   22  H13 UNL     1      28.612   5.680  49.474  1.00  0.00     0.159 HD
HETATM   23  H16 UNL     1      31.973  12.635  48.719  1.00  0.00     0.159 HD
ENDROOT
TORSDOF 0
ENDMDL
