MODEL 1
REMARK VINA RESULT:      -8.3      0.000      0.000
REMARK  6 active torsions:
REMARK  status: ('A' for Active; 'I' for Inactive)
REMARK    1  A    between atoms: C2_2  and  O1_3 
REMARK    2  A    between atoms: O1_3  and  C3_4 
REMARK    3  A    between atoms: C7_9  and  O3_10 
REMARK    4  A    between atoms: O3_10  and  C8_11 
REMARK    5  A    between atoms: C11_14  and  N1_15 
REMARK       I    between atoms: N1_15  and  C12_16 
REMARK       I    between atoms: C12_16  and  N2_18 
REMARK    6  A    between atoms: N2_18  and  C13_19 
ROOT
HETATM    1  C8  UNL     1      25.455   4.772  50.063  1.00  0.00     0.078 A 
HETATM    2  C9  UNL     1      25.633   6.135  49.793  1.00  0.00     0.039 A 
HETATM    3  C10 UNL     1      26.689   6.592  49.054  1.00  0.00     0.032 A 
HETATM    4  C11 UNL     1      27.632   5.759  48.534  1.00  0.00     0.036 A 
HETATM    5  C19 UNL     1      27.449   4.432  48.803  1.00  0.00     0.032 A 
HETATM    6  C20 UNL     1      26.405   3.922  49.539  1.00  0.00     0.039 A 
ENDROOT
BRANCH   1   7
HETATM    7  O3  UNL     1      24.346   4.477  50.817  1.00  0.00    -0.291 OA
BRANCH   7   8
HETATM    8  C7  UNL     1      23.554   3.364  50.738  1.00  0.00     0.179 A 
HETATM    9  C6  UNL     1      23.875   2.386  51.680  1.00  0.00     0.027 A 
HETATM   10  C5  UNL     1      24.980   2.550  52.673  1.00  0.00     0.071 C 
HETATM   11  C22 UNL     1      23.175   1.206  51.736  1.00  0.00     0.101 A 
HETATM   12  C4  UNL     1      25.237   1.207  53.316  1.00  0.00     0.176 C 
HETATM   13  O2  UNL     1      24.041   0.643  53.807  1.00  0.00    -0.355 OA
HETATM   14  C3  UNL     1      23.422   0.092  52.691  1.00  0.00     0.313 C 
HETATM   15  N4  UNL     1      22.159   0.969  50.877  1.00  0.00    -0.241 NA
HETATM   16  C21 UNL     1      21.855   1.914  49.973  1.00  0.00     0.236 A 
HETATM   17  N3  UNL     1      22.534   3.070  49.911  1.00  0.00    -0.217 NA
BRANCH  14  18
HETATM   18  O1  UNL     1      22.297  -0.644  52.955  1.00  0.00    -0.356 OA
BRANCH  18  19
HETATM   19  C2  UNL     1      21.883  -0.584  54.277  1.00  0.00     0.167 C 
HETATM   20  C1  UNL     1      20.653   0.320  54.308  1.00  0.00     0.033 C 
ENDBRANCH  18  19
ENDBRANCH  14  18
ENDBRANCH   7   8
ENDBRANCH   1   7
BRANCH   4  21
HETATM   21  N1  UNL     1      28.701   6.296  47.777  1.00  0.00    -0.309 N 
HETATM   22  C12 UNL     1      30.086   6.226  47.974  1.00  0.00     0.325 C 
HETATM   23  O4  UNL     1      30.534   5.602  48.962  1.00  0.00    -0.247 OA
HETATM   24  N2  UNL     1      31.069   6.805  47.146  1.00  0.00    -0.309 N 
HETATM   25  H14 UNL     1      30.744   7.346  46.293  1.00  0.00     0.170 HD
HETATM   26  H13 UNL     1      28.480   6.849  46.911  1.00  0.00     0.170 HD
BRANCH  24  27
HETATM   27  C13 UNL     1      32.443   6.649  47.474  1.00  0.00     0.036 A 
HETATM   28  C14 UNL     1      32.932   7.767  48.155  1.00  0.00     0.029 A 
HETATM   29  C15 UNL     1      34.240   7.840  48.574  1.00  0.00     0.002 A 
HETATM   30  C16 UNL     1      35.084   6.767  48.305  1.00  0.00     0.000 A 
HETATM   31  C17 UNL     1      34.607   5.658  47.632  1.00  0.00     0.002 A 
HETATM   32  C18 UNL     1      33.294   5.599  47.218  1.00  0.00     0.029 A 
ENDBRANCH  24  27
ENDBRANCH   4  21
TORSDOF 6
ENDMDL
MODEL 2
REMARK VINA RESULT:      -8.3      1.152      1.514
REMARK  6 active torsions:
REMARK  status: ('A' for Active; 'I' for Inactive)
REMARK    1  A    between atoms: C2_2  and  O1_3 
REMARK    2  A    between atoms: O1_3  and  C3_4 
REMARK    3  A    between atoms: C7_9  and  O3_10 
REMARK    4  A    between atoms: O3_10  and  C8_11 
REMARK    5  A    between atoms: C11_14  and  N1_15 
REMARK       I    between atoms: N1_15  and  C12_16 
REMARK       I    between atoms: C12_16  and  N2_18 
REMARK    6  A    between atoms: N2_18  and  C13_19 
ROOT
HETATM    1  C8  UNL     1      25.727   5.444  49.599  1.00  0.00     0.078 A 
HETATM    2  C9  UNL     1      26.643   4.445  49.247  1.00  0.00     0.039 A 
HETATM    3  C10 UNL     1      27.806   4.732  48.588  1.00  0.00     0.032 A 
HETATM    4  C11 UNL     1      28.150   6.000  48.232  1.00  0.00     0.036 A 
HETATM    5  C19 UNL     1      27.250   6.967  48.579  1.00  0.00     0.032 A 
HETATM    6  C20 UNL     1      26.068   6.731  49.242  1.00  0.00     0.039 A 
ENDROOT
BRANCH   1   7
HETATM    7  O3  UNL     1      24.610   4.992  50.257  1.00  0.00    -0.291 OA
BRANCH   7   8
HETATM    8  C7  UNL     1      23.823   3.921  49.929  1.00  0.00     0.179 A 
HETATM    9  C6  UNL     1      23.665   3.009  50.974  1.00  0.00     0.027 A 
HETATM   10  C5  UNL     1      24.298   3.197  52.315  1.00  0.00     0.071 C 
HETATM   11  C22 UNL     1      22.904   1.877  50.812  1.00  0.00     0.101 A 
HETATM   12  C4  UNL     1      24.170   1.900  53.081  1.00  0.00     0.176 C 
HETATM   13  O2  UNL     1      22.834   1.445  53.085  1.00  0.00    -0.355 OA
HETATM   14  C3  UNL     1      22.661   0.836  51.847  1.00  0.00     0.313 C 
HETATM   15  N4  UNL     1      22.293   1.624  49.633  1.00  0.00    -0.241 NA
HETATM   16  C21 UNL     1      22.449   2.505  48.633  1.00  0.00     0.236 A 
HETATM   17  N3  UNL     1      23.192   3.614  48.783  1.00  0.00    -0.217 NA
BRANCH  14  18
HETATM   18  O1  UNL     1      21.467   0.187  51.680  1.00  0.00    -0.356 OA
BRANCH  18  19
HETATM   19  C2  UNL     1      20.450   0.661  52.496  1.00  0.00     0.167 C 
HETATM   20  C1  UNL     1      19.149   0.078  51.952  1.00  0.00     0.033 C 
ENDBRANCH  18  19
ENDBRANCH  14  18
ENDBRANCH   7   8
ENDBRANCH   1   7
BRANCH   4  21
HETATM   21  N1  UNL     1      29.369   6.231  47.550  1.00  0.00    -0.309 N 
HETATM   22  C12 UNL     1      30.696   6.062  47.966  1.00  0.00     0.325 C 
HETATM   23  O4  UNL     1      30.927   5.640  49.122  1.00  0.00    -0.247 OA
HETATM   24  N2  UNL     1      31.845   6.327  47.193  1.00  0.00    -0.309 N 
HETATM   25  H14 UNL     1      31.707   6.687  46.205  1.00  0.00     0.170 HD
HETATM   26  H13 UNL     1      29.336   6.588  46.562  1.00  0.00     0.170 HD
BRANCH  24  27
HETATM   27  C13 UNL     1      33.133   6.106  47.753  1.00  0.00     0.036 A 
HETATM   28  C14 UNL     1      33.777   7.314  48.034  1.00  0.00     0.029 A 
HETATM   29  C15 UNL     1      35.038   7.348  48.582  1.00  0.00     0.002 A 
HETATM   30  C16 UNL     1      35.673   6.141  48.858  1.00  0.00     0.000 A 
HETATM   31  C17 UNL     1      35.042   4.943  48.583  1.00  0.00     0.002 A 
HETATM   32  C18 UNL     1      33.778   4.925  48.033  1.00  0.00     0.029 A 
ENDBRANCH  24  27
ENDBRANCH   4  21
TORSDOF 6
ENDMDL
MODEL 3
REMARK VINA RESULT:      -8.2      6.847     13.569
REMARK  6 active torsions:
REMARK  status: ('A' for Active; 'I' for Inactive)
REMARK    1  A    between atoms: C2_2  and  O1_3 
REMARK    2  A    between atoms: O1_3  and  C3_4 
REMARK    3  A    between atoms: C7_9  and  O3_10 
REMARK    4  A    between atoms: O3_10  and  C8_11 
REMARK    5  A    between atoms: C11_14  and  N1_15 
REMARK       I    between atoms: N1_15  and  C12_16 
REMARK       I    between atoms: C12_16  and  N2_18 
REMARK    6  A    between atoms: N2_18  and  C13_19 
ROOT
HETATM    1  C8  UNL     1      20.432  -0.223  52.972  1.00  0.00     0.078 A 
HETATM    2  C9  UNL     1      19.725   0.397  51.935  1.00  0.00     0.039 A 
HETATM    3  C10 UNL     1      18.419   0.091  51.667  1.00  0.00     0.032 A 
HETATM    4  C11 UNL     1      17.723  -0.831  52.385  1.00  0.00     0.036 A 
HETATM    5  C19 UNL     1      18.421  -1.431  53.395  1.00  0.00     0.032 A 
HETATM    6  C20 UNL     1      19.733  -1.158  53.705  1.00  0.00     0.039 A 
ENDROOT
BRANCH   1   7
HETATM    7  O3  UNL     1      21.731   0.195  53.112  1.00  0.00    -0.291 OA
BRANCH   7   8
HETATM    8  C7  UNL     1      22.698  -0.337  53.921  1.00  0.00     0.179 A 
HETATM    9  C6  UNL     1      23.996  -0.007  53.526  1.00  0.00     0.027 A 
HETATM   10  C5  UNL     1      24.287   0.844  52.333  1.00  0.00     0.071 C 
HETATM   11  C22 UNL     1      25.084  -0.461  54.231  1.00  0.00     0.101 A 
HETATM   12  C4  UNL     1      25.765   0.744  52.032  1.00  0.00     0.176 C 
HETATM   13  O2  UNL     1      26.534   1.008  53.185  1.00  0.00    -0.355 OA
HETATM   14  C3  UNL     1      26.508  -0.178  53.911  1.00  0.00     0.313 C 
HETATM   15  N4  UNL     1      24.917  -1.237  55.325  1.00  0.00    -0.241 NA
HETATM   16  C21 UNL     1      23.667  -1.551  55.700  1.00  0.00     0.236 A 
HETATM   17  N3  UNL     1      22.598  -1.112  55.015  1.00  0.00    -0.217 NA
BRANCH  14  18
HETATM   18  O1  UNL     1      27.318  -0.201  55.015  1.00  0.00    -0.356 OA
BRANCH  18  19
HETATM   19  C2  UNL     1      28.614   0.228  54.771  1.00  0.00     0.167 C 
HETATM   20  C1  UNL     1      29.257  -0.819  53.865  1.00  0.00     0.033 C 
ENDBRANCH  18  19
ENDBRANCH  14  18
ENDBRANCH   7   8
ENDBRANCH   1   7
BRANCH   4  21
HETATM   21  N1  UNL     1      16.373  -1.102  52.056  1.00  0.00    -0.309 N 
HETATM   22  C12 UNL     1      15.192  -0.447  52.426  1.00  0.00     0.325 C 
HETATM   23  O4  UNL     1      15.255   0.557  53.171  1.00  0.00    -0.247 OA
HETATM   24  N2  UNL     1      13.887  -0.810  52.034  1.00  0.00    -0.309 N 
HETATM   25  H14 UNL     1      13.775  -1.654  51.402  1.00  0.00     0.170 HD
HETATM   26  H13 UNL     1      16.160  -1.921  51.433  1.00  0.00     0.170 HD
BRANCH  24  27
HETATM   27  C13 UNL     1      12.780  -0.045  52.491  1.00  0.00     0.036 A 
HETATM   28  C14 UNL     1      12.205  -0.614  53.631  1.00  0.00     0.029 A 
HETATM   29  C15 UNL     1      11.117  -0.046  54.250  1.00  0.00     0.002 A 
HETATM   30  C16 UNL     1      10.587   1.124  53.716  1.00  0.00     0.000 A 
HETATM   31  C17 UNL     1      11.149   1.693  52.589  1.00  0.00     0.002 A 
HETATM   32  C18 UNL     1      12.240   1.112  51.979  1.00  0.00     0.029 A 
ENDBRANCH  24  27
ENDBRANCH   4  21
TORSDOF 6
ENDMDL
MODEL 4
REMARK VINA RESULT:      -8.2      2.844      3.469
REMARK  6 active torsions:
REMARK  status: ('A' for Active; 'I' for Inactive)
REMARK    1  A    between atoms: C2_2  and  O1_3 
REMARK    2  A    between atoms: O1_3  and  C3_4 
REMARK    3  A    between atoms: C7_9  and  O3_10 
REMARK    4  A    between atoms: O3_10  and  C8_11 
REMARK    5  A    between atoms: C11_14  and  N1_15 
REMARK       I    between atoms: N1_15  and  C12_16 
REMARK       I    between atoms: C12_16  and  N2_18 
REMARK    6  A    between atoms: N2_18  and  C13_19 
ROOT
HETATM    1  C8  UNL     1      25.865   3.961  49.969  1.00  0.00     0.078 A 
HETATM    2  C9  UNL     1      27.059   4.019  49.239  1.00  0.00     0.039 A 
HETATM    3  C10 UNL     1      27.439   5.145  48.563  1.00  0.00     0.032 A 
HETATM    4  C11 UNL     1      26.687   6.279  48.554  1.00  0.00     0.036 A 
HETATM    5  C19 UNL     1      25.524   6.213  49.268  1.00  0.00     0.032 A 
HETATM    6  C20 UNL     1      25.099   5.107  49.965  1.00  0.00     0.039 A 
ENDROOT
BRANCH   1   7
HETATM    7  O3  UNL     1      25.630   2.760  50.590  1.00  0.00    -0.291 OA
BRANCH   7   8
HETATM    8  C7  UNL     1      24.461   2.325  51.153  1.00  0.00     0.179 A 
HETATM    9  C6  UNL     1      24.630   1.245  52.020  1.00  0.00     0.027 A 
HETATM   10  C5  UNL     1      25.965   0.632  52.298  1.00  0.00     0.071 C 
HETATM   11  C22 UNL     1      23.556   0.687  52.669  1.00  0.00     0.101 A 
HETATM   12  C4  UNL     1      25.740  -0.674  53.024  1.00  0.00     0.176 C 
HETATM   13  O2  UNL     1      24.896  -0.494  54.140  1.00  0.00    -0.355 OA
HETATM   14  C3  UNL     1      23.610  -0.461  53.614  1.00  0.00     0.313 C 
HETATM   15  N4  UNL     1      22.310   1.176  52.479  1.00  0.00    -0.241 NA
HETATM   16  C21 UNL     1      22.154   2.215  51.644  1.00  0.00     0.236 A 
HETATM   17  N3  UNL     1      23.199   2.766  51.005  1.00  0.00    -0.217 NA
BRANCH  14  18
HETATM   18  O1  UNL     1      22.603  -0.436  54.541  1.00  0.00    -0.356 OA
BRANCH  18  19
HETATM   19  C2  UNL     1      21.977  -1.660  54.725  1.00  0.00     0.167 C 
HETATM   20  C1  UNL     1      20.582  -1.532  54.118  1.00  0.00     0.033 C 
ENDBRANCH  18  19
ENDBRANCH  14  18
ENDBRANCH   7   8
ENDBRANCH   1   7
BRANCH   4  21
HETATM   21  N1  UNL     1      27.136   7.413  47.834  1.00  0.00    -0.309 N 
HETATM   22  C12 UNL     1      27.937   8.490  48.231  1.00  0.00     0.325 C 
HETATM   23  O4  UNL     1      28.368   8.534  49.405  1.00  0.00    -0.247 OA
HETATM   24  N2  UNL     1      28.325   9.576  47.419  1.00  0.00    -0.309 N 
HETATM   25  H14 UNL     1      27.987   9.590  46.414  1.00  0.00     0.170 HD
HETATM   26  H13 UNL     1      26.853   7.516  46.827  1.00  0.00     0.170 HD
BRANCH  24  27
HETATM   27  C13 UNL     1      29.144  10.602  47.965  1.00  0.00     0.036 A 
HETATM   28  C14 UNL     1      28.374  11.660  48.455  1.00  0.00     0.029 A 
HETATM   29  C15 UNL     1      28.953  12.767  49.030  1.00  0.00     0.002 A 
HETATM   30  C16 UNL     1      30.340  12.819  49.117  1.00  0.00     0.000 A 
HETATM   31  C17 UNL     1      31.109  11.777  48.634  1.00  0.00     0.002 A 
HETATM   32  C18 UNL     1      30.514  10.673  48.061  1.00  0.00     0.029 A 
ENDBRANCH  24  27
ENDBRANCH   4  21
TORSDOF 6
ENDMDL
MODEL 5
REMARK VINA RESULT:      -8.2      1.922      2.744
REMARK  6 active torsions:
REMARK  status: ('A' for Active; 'I' for Inactive)
REMARK    1  A    between atoms: C2_2  and  O1_3 
REMARK    2  A    between atoms: O1_3  and  C3_4 
REMARK    3  A    between atoms: C7_9  and  O3_10 
REMARK    4  A    between atoms: O3_10  and  C8_11 
REMARK    5  A    between atoms: C11_14  and  N1_15 
REMARK       I    between atoms: N1_15  and  C12_16 
REMARK       I    between atoms: C12_16  and  N2_18 
REMARK    6  A    between atoms: N2_18  and  C13_19 
ROOT
HETATM    1  C8  UNL     1      25.755   5.431  48.851  1.00  0.00     0.078 A 
HETATM    2  C9  UNL     1      26.165   6.697  48.415  1.00  0.00     0.039 A 
HETATM    3  C10 UNL     1      27.476   6.978  48.147  1.00  0.00     0.032 A 
HETATM    4  C11 UNL     1      28.465   6.053  48.284  1.00  0.00     0.036 A 
HETATM    5  C19 UNL     1      28.055   4.822  48.709  1.00  0.00     0.032 A 
HETATM    6  C20 UNL     1      26.751   4.488  48.991  1.00  0.00     0.039 A 
ENDROOT
BRANCH   1   7
HETATM    7  O3  UNL     1      24.406   5.311  49.075  1.00  0.00    -0.291 OA
BRANCH   7   8
HETATM    8  C7  UNL     1      23.783   4.920  50.230  1.00  0.00     0.179 A 
HETATM    9  C6  UNL     1      23.088   3.716  50.105  1.00  0.00     0.027 A 
HETATM   10  C5  UNL     1      23.038   2.939  48.829  1.00  0.00     0.071 C 
HETATM   11  C22 UNL     1      22.407   3.182  51.171  1.00  0.00     0.101 A 
HETATM   12  C4  UNL     1      21.973   1.875  48.968  1.00  0.00     0.176 C 
HETATM   13  O2  UNL     1      22.161   1.122  50.146  1.00  0.00    -0.355 OA
HETATM   14  C3  UNL     1      21.634   1.911  51.162  1.00  0.00     0.313 C 
HETATM   15  N4  UNL     1      22.396   3.816  52.365  1.00  0.00    -0.241 NA
HETATM   16  C21 UNL     1      23.066   4.973  52.478  1.00  0.00     0.236 A 
HETATM   17  N3  UNL     1      23.734   5.502  51.441  1.00  0.00    -0.217 NA
BRANCH  14  18
HETATM   18  O1  UNL     1      21.577   1.313  52.392  1.00  0.00    -0.356 OA
BRANCH  18  19
HETATM   19  C2  UNL     1      22.147   0.049  52.431  1.00  0.00     0.167 C 
HETATM   20  C1  UNL     1      23.373   0.151  53.334  1.00  0.00     0.033 C 
ENDBRANCH  18  19
ENDBRANCH  14  18
ENDBRANCH   7   8
ENDBRANCH   1   7
BRANCH   4  21
HETATM   21  N1  UNL     1      29.803   6.408  47.990  1.00  0.00    -0.309 N 
HETATM   22  C12 UNL     1      30.903   5.617  47.639  1.00  0.00     0.325 C 
HETATM   23  O4  UNL     1      30.762   4.376  47.548  1.00  0.00    -0.247 OA
HETATM   24  N2  UNL     1      32.205   6.084  47.365  1.00  0.00    -0.309 N 
HETATM   25  H14 UNL     1      32.381   7.128  47.428  1.00  0.00     0.170 HD
HETATM   26  H13 UNL     1      30.076   7.423  48.025  1.00  0.00     0.170 HD
BRANCH  24  27
HETATM   27  C13 UNL     1      33.225   5.156  47.020  1.00  0.00     0.036 A 
HETATM   28  C14 UNL     1      33.465   5.154  45.643  1.00  0.00     0.029 A 
HETATM   29  C15 UNL     1      34.412   4.333  45.078  1.00  0.00     0.002 A 
HETATM   30  C16 UNL     1      35.140   3.489  45.911  1.00  0.00     0.000 A 
HETATM   31  C17 UNL     1      34.909   3.485  47.273  1.00  0.00     0.002 A 
HETATM   32  C18 UNL     1      33.956   4.315  47.826  1.00  0.00     0.029 A 
ENDBRANCH  24  27
ENDBRANCH   4  21
TORSDOF 6
ENDMDL
MODEL 6
REMARK VINA RESULT:      -8.2      1.199      2.238
REMARK  6 active torsions:
REMARK  status: ('A' for Active; 'I' for Inactive)
REMARK    1  A    between atoms: C2_2  and  O1_3 
REMARK    2  A    between atoms: O1_3  and  C3_4 
REMARK    3  A    between atoms: C7_9  and  O3_10 
REMARK    4  A    between atoms: O3_10  and  C8_11 
REMARK    5  A    between atoms: C11_14  and  N1_15 
REMARK       I    between atoms: N1_15  and  C12_16 
REMARK       I    between atoms: C12_16  and  N2_18 
REMARK    6  A    between atoms: N2_18  and  C13_19 
ROOT
HETATM    1  C8  UNL     1      25.399   4.758  49.907  1.00  0.00     0.078 A 
HETATM    2  C9  UNL     1      26.407   3.941  49.382  1.00  0.00     0.039 A 
HETATM    3  C10 UNL     1      27.477   4.459  48.706  1.00  0.00     0.032 A 
HETATM    4  C11 UNL     1      27.633   5.795  48.499  1.00  0.00     0.036 A 
HETATM    5  C19 UNL     1      26.644   6.584  49.016  1.00  0.00     0.032 A 
HETATM    6  C20 UNL     1      25.550   6.113  49.703  1.00  0.00     0.039 A 
ENDROOT
BRANCH   1   7
HETATM    7  O3  UNL     1      24.396   4.084  50.558  1.00  0.00    -0.291 OA
BRANCH   7   8
HETATM    8  C7  UNL     1      24.525   3.080  51.480  1.00  0.00     0.179 A 
HETATM    9  C6  UNL     1      23.422   2.225  51.525  1.00  0.00     0.027 A 
HETATM   10  C5  UNL     1      22.225   2.400  50.648  1.00  0.00     0.071 C 
HETATM   11  C22 UNL     1      23.391   1.163  52.396  1.00  0.00     0.101 A 
HETATM   12  C4  UNL     1      21.126   1.502  51.168  1.00  0.00     0.176 C 
HETATM   13  O2  UNL     1      21.588   0.178  51.329  1.00  0.00    -0.355 OA
HETATM   14  C3  UNL     1      22.278   0.186  52.536  1.00  0.00     0.313 C 
HETATM   15  N4  UNL     1      24.429   0.926  53.228  1.00  0.00    -0.241 NA
HETATM   16  C21 UNL     1      25.486   1.753  53.179  1.00  0.00     0.236 A 
HETATM   17  N3  UNL     1      25.525   2.793  52.331  1.00  0.00    -0.217 NA
BRANCH  14  18
HETATM   18  O1  UNL     1      22.698  -1.042  52.973  1.00  0.00    -0.356 OA
BRANCH  18  19
HETATM   19  C2  UNL     1      21.841  -1.639  53.885  1.00  0.00     0.167 C 
HETATM   20  C1  UNL     1      21.519  -0.580  54.937  1.00  0.00     0.033 C 
ENDBRANCH  18  19
ENDBRANCH  14  18
ENDBRANCH   7   8
ENDBRANCH   1   7
BRANCH   4  21
HETATM   21  N1  UNL     1      28.764   6.268  47.791  1.00  0.00    -0.309 N 
HETATM   22  C12 UNL     1      30.132   6.125  48.051  1.00  0.00     0.325 C 
HETATM   23  O4  UNL     1      30.500   5.485  49.062  1.00  0.00    -0.247 OA
HETATM   24  N2  UNL     1      31.183   6.645  47.267  1.00  0.00    -0.309 N 
HETATM   25  H14 UNL     1      30.927   7.196  46.398  1.00  0.00     0.170 HD
HETATM   26  H13 UNL     1      28.613   6.826  46.913  1.00  0.00     0.170 HD
BRANCH  24  27
HETATM   27  C13 UNL     1      32.530   6.417  47.660  1.00  0.00     0.036 A 
HETATM   28  C14 UNL     1      33.018   5.220  47.130  1.00  0.00     0.029 A 
HETATM   29  C15 UNL     1      34.301   4.792  47.378  1.00  0.00     0.002 A 
HETATM   30  C16 UNL     1      35.120   5.582  48.177  1.00  0.00     0.000 A 
HETATM   31  C17 UNL     1      34.645   6.768  48.706  1.00  0.00     0.002 A 
HETATM   32  C18 UNL     1      33.356   7.184  48.448  1.00  0.00     0.029 A 
ENDBRANCH  24  27
ENDBRANCH   4  21
TORSDOF 6
ENDMDL
MODEL 7
REMARK VINA RESULT:      -8.0      6.997      9.557
REMARK  6 active torsions:
REMARK  status: ('A' for Active; 'I' for Inactive)
REMARK    1  A    between atoms: C2_2  and  O1_3 
REMARK    2  A    between atoms: O1_3  and  C3_4 
REMARK    3  A    between atoms: C7_9  and  O3_10 
REMARK    4  A    between atoms: O3_10  and  C8_11 
REMARK    5  A    between atoms: C11_14  and  N1_15 
REMARK       I    between atoms: N1_15  and  C12_16 
REMARK       I    between atoms: C12_16  and  N2_18 
REMARK    6  A    between atoms: N2_18  and  C13_19 
ROOT
HETATM    1  C8  UNL     1      19.297   0.263  51.814  1.00  0.00     0.078 A 
HETATM    2  C9  UNL     1      19.283  -0.522  52.974  1.00  0.00     0.039 A 
HETATM    3  C10 UNL     1      20.421  -0.770  53.692  1.00  0.00     0.032 A 
HETATM    4  C11 UNL     1      21.635  -0.273  53.330  1.00  0.00     0.036 A 
HETATM    5  C19 UNL     1      21.638   0.491  52.198  1.00  0.00     0.032 A 
HETATM    6  C20 UNL     1      20.524   0.770  51.442  1.00  0.00     0.039 A 
ENDROOT
BRANCH   1   7
HETATM    7  O3  UNL     1      18.074   0.416  51.211  1.00  0.00    -0.291 OA
BRANCH   7   8
HETATM    8  C7  UNL     1      16.855   0.554  51.817  1.00  0.00     0.179 A 
HETATM    9  C6  UNL     1      16.371   1.863  51.798  1.00  0.00     0.027 A 
HETATM   10  C5  UNL     1      17.122   2.995  51.175  1.00  0.00     0.071 C 
HETATM   11  C22 UNL     1      15.159   2.174  52.364  1.00  0.00     0.101 A 
HETATM   12  C4  UNL     1      16.462   4.287  51.598  1.00  0.00     0.176 C 
HETATM   13  O2  UNL     1      15.074   4.252  51.349  1.00  0.00    -0.355 OA
HETATM   14  C3  UNL     1      14.539   3.526  52.407  1.00  0.00     0.313 C 
HETATM   15  N4  UNL     1      14.409   1.214  52.951  1.00  0.00    -0.241 NA
HETATM   16  C21 UNL     1      14.880  -0.043  52.966  1.00  0.00     0.236 A 
HETATM   17  N3  UNL     1      16.065  -0.355  52.415  1.00  0.00    -0.217 NA
BRANCH  14  18
HETATM   18  O1  UNL     1      13.171   3.484  52.451  1.00  0.00    -0.356 OA
BRANCH  18  19
HETATM   19  C2  UNL     1      12.593   4.593  53.051  1.00  0.00     0.167 C 
HETATM   20  C1  UNL     1      12.204   4.169  54.465  1.00  0.00     0.033 C 
ENDBRANCH  18  19
ENDBRANCH  14  18
ENDBRANCH   7   8
ENDBRANCH   1   7
BRANCH   4  21
HETATM   21  N1  UNL     1      22.775  -0.567  54.117  1.00  0.00    -0.309 N 
HETATM   22  C12 UNL     1      24.140  -0.487  53.815  1.00  0.00     0.325 C 
HETATM   23  O4  UNL     1      24.495  -0.100  52.678  1.00  0.00    -0.247 OA
HETATM   24  N2  UNL     1      25.201  -0.809  54.686  1.00  0.00    -0.309 N 
HETATM   25  H14 UNL     1      24.957  -1.143  55.663  1.00  0.00     0.170 HD
HETATM   26  H13 UNL     1      22.635  -0.905  55.102  1.00  0.00     0.170 HD
BRANCH  24  27
HETATM   27  C13 UNL     1      26.542  -0.678  54.236  1.00  0.00     0.036 A 
HETATM   28  C14 UNL     1      27.208   0.347  54.915  1.00  0.00     0.029 A 
HETATM   29  C15 UNL     1      28.520   0.657  54.645  1.00  0.00     0.002 A 
HETATM   30  C16 UNL     1      29.187  -0.077  53.669  1.00  0.00     0.000 A 
HETATM   31  C17 UNL     1      28.536  -1.091  52.993  1.00  0.00     0.002 A 
HETATM   32  C18 UNL     1      27.220  -1.391  53.275  1.00  0.00     0.029 A 
ENDBRANCH  24  27
ENDBRANCH   4  21
TORSDOF 6
ENDMDL
MODEL 8
REMARK VINA RESULT:      -7.8      6.003     12.444
REMARK  6 active torsions:
REMARK  status: ('A' for Active; 'I' for Inactive)
REMARK    1  A    between atoms: C2_2  and  O1_3 
REMARK    2  A    between atoms: O1_3  and  C3_4 
REMARK    3  A    between atoms: C7_9  and  O3_10 
REMARK    4  A    between atoms: O3_10  and  C8_11 
REMARK    5  A    between atoms: C11_14  and  N1_15 
REMARK       I    between atoms: N1_15  and  C12_16 
REMARK       I    between atoms: C12_16  and  N2_18 
REMARK    6  A    between atoms: N2_18  and  C13_19 
ROOT
HETATM    1  C8  UNL     1      20.881   1.637  51.400  1.00  0.00     0.078 A 
HETATM    2  C9  UNL     1      20.255   2.860  51.668  1.00  0.00     0.039 A 
HETATM    3  C10 UNL     1      18.909   3.034  51.504  1.00  0.00     0.032 A 
HETATM    4  C11 UNL     1      18.091   2.036  51.072  1.00  0.00     0.036 A 
HETATM    5  C19 UNL     1      18.711   0.846  50.813  1.00  0.00     0.032 A 
HETATM    6  C20 UNL     1      20.059   0.620  50.962  1.00  0.00     0.039 A 
ENDROOT
BRANCH   1   7
HETATM    7  O3  UNL     1      22.237   1.626  51.616  1.00  0.00    -0.291 OA
BRANCH   7   8
HETATM    8  C7  UNL     1      22.936   0.853  52.503  1.00  0.00     0.179 A 
HETATM    9  C6  UNL     1      24.308   1.108  52.499  1.00  0.00     0.027 A 
HETATM   10  C5  UNL     1      24.939   2.128  51.609  1.00  0.00     0.071 C 
HETATM   11  C22 UNL     1      25.154   0.418  53.332  1.00  0.00     0.101 A 
HETATM   12  C4  UNL     1      26.437   1.926  51.649  1.00  0.00     0.176 C 
HETATM   13  O2  UNL     1      26.906   1.888  52.979  1.00  0.00    -0.355 OA
HETATM   14  C3  UNL     1      26.628   0.600  53.420  1.00  0.00     0.313 C 
HETATM   15  N4  UNL     1      24.672  -0.524  54.173  1.00  0.00    -0.241 NA
HETATM   16  C21 UNL     1      23.352  -0.764  54.171  1.00  0.00     0.236 A 
HETATM   17  N3  UNL     1      22.517  -0.094  53.360  1.00  0.00    -0.217 NA
BRANCH  14  18
HETATM   18  O1  UNL     1      27.132   0.286  54.654  1.00  0.00    -0.356 OA
BRANCH  18  19
HETATM   19  C2  UNL     1      28.506   0.098  54.670  1.00  0.00     0.167 C 
HETATM   20  C1  UNL     1      28.822  -0.899  53.559  1.00  0.00     0.033 C 
ENDBRANCH  18  19
ENDBRANCH  14  18
ENDBRANCH   7   8
ENDBRANCH   1   7
BRANCH   4  21
HETATM   21  N1  UNL     1      16.704   2.280  50.922  1.00  0.00    -0.309 N 
HETATM   22  C12 UNL     1      15.723   2.591  51.870  1.00  0.00     0.325 C 
HETATM   23  O4  UNL     1      16.045   2.688  53.077  1.00  0.00    -0.247 OA
HETATM   24  N2  UNL     1      14.357   2.817  51.605  1.00  0.00    -0.309 N 
HETATM   25  H14 UNL     1      14.029   2.747  50.598  1.00  0.00     0.170 HD
HETATM   26  H13 UNL     1      16.285   2.235  49.959  1.00  0.00     0.170 HD
BRANCH  24  27
HETATM   27  C13 UNL     1      13.475   3.124  52.676  1.00  0.00     0.036 A 
HETATM   28  C14 UNL     1      12.955   1.964  53.255  1.00  0.00     0.029 A 
HETATM   29  C15 UNL     1      12.077   2.016  54.312  1.00  0.00     0.002 A 
HETATM   30  C16 UNL     1      11.707   3.264  54.804  1.00  0.00     0.000 A 
HETATM   31  C17 UNL     1      12.216   4.416  54.236  1.00  0.00     0.002 A 
HETATM   32  C18 UNL     1      13.096   4.347  53.178  1.00  0.00     0.029 A 
ENDBRANCH  24  27
ENDBRANCH   4  21
TORSDOF 6
ENDMDL
MODEL 9
REMARK VINA RESULT:      -7.5      4.231      9.781
REMARK  6 active torsions:
REMARK  status: ('A' for Active; 'I' for Inactive)
REMARK    1  A    between atoms: C2_2  and  O1_3 
REMARK    2  A    between atoms: O1_3  and  C3_4 
REMARK    3  A    between atoms: C7_9  and  O3_10 
REMARK    4  A    between atoms: O3_10  and  C8_11 
REMARK    5  A    between atoms: C11_14  and  N1_15 
REMARK       I    between atoms: N1_15  and  C12_16 
REMARK       I    between atoms: C12_16  and  N2_18 
REMARK    6  A    between atoms: N2_18  and  C13_19 
ROOT
HETATM    1  C8  UNL     1      25.827   6.688  48.643  1.00  0.00     0.078 A 
HETATM    2  C9  UNL     1      26.664   5.566  48.610  1.00  0.00     0.039 A 
HETATM    3  C10 UNL     1      26.480   4.503  49.451  1.00  0.00     0.032 A 
HETATM    4  C11 UNL     1      25.476   4.463  50.369  1.00  0.00     0.036 A 
HETATM    5  C19 UNL     1      24.665   5.562  50.393  1.00  0.00     0.032 A 
HETATM    6  C20 UNL     1      24.808   6.655  49.570  1.00  0.00     0.039 A 
ENDROOT
BRANCH   1   7
HETATM    7  O3  UNL     1      26.145   7.668  47.736  1.00  0.00    -0.291 OA
BRANCH   7   8
HETATM    8  C7  UNL     1      26.050   9.023  47.902  1.00  0.00     0.179 A 
HETATM    9  C6  UNL     1      27.240   9.613  48.333  1.00  0.00     0.027 A 
HETATM   10  C5  UNL     1      28.487   8.830  48.584  1.00  0.00     0.071 C 
HETATM   11  C22 UNL     1      27.316  10.968  48.548  1.00  0.00     0.101 A 
HETATM   12  C4  UNL     1      29.464   9.723  49.314  1.00  0.00     0.176 C 
HETATM   13  O2  UNL     1      29.628  10.951  48.640  1.00  0.00    -0.355 OA
HETATM   14  C3  UNL     1      28.522  11.710  49.004  1.00  0.00     0.313 C 
HETATM   15  N4  UNL     1      26.237  11.756  48.346  1.00  0.00    -0.241 NA
HETATM   16  C21 UNL     1      25.096  11.182  47.932  1.00  0.00     0.236 A 
HETATM   17  N3  UNL     1      25.013   9.859  47.719  1.00  0.00    -0.217 NA
BRANCH  14  18
HETATM   18  O1  UNL     1      28.542  13.010  48.576  1.00  0.00    -0.356 OA
BRANCH  18  19
HETATM   19  C2  UNL     1      29.504  13.270  47.611  1.00  0.00     0.167 C 
HETATM   20  C1  UNL     1      29.136  14.610  46.979  1.00  0.00     0.033 C 
ENDBRANCH  18  19
ENDBRANCH  14  18
ENDBRANCH   7   8
ENDBRANCH   1   7
BRANCH   4  21
HETATM   21  N1  UNL     1      25.339   3.333  51.210  1.00  0.00    -0.309 N 
HETATM   22  C12 UNL     1      26.304   2.482  51.763  1.00  0.00     0.325 C 
HETATM   23  O4  UNL     1      27.515   2.688  51.520  1.00  0.00    -0.247 OA
HETATM   24  N2  UNL     1      26.050   1.374  52.597  1.00  0.00    -0.309 N 
HETATM   25  H14 UNL     1      25.040   1.153  52.835  1.00  0.00     0.170 HD
HETATM   26  H13 UNL     1      24.375   3.035  51.503  1.00  0.00     0.170 HD
BRANCH  24  27
HETATM   27  C13 UNL     1      27.138   0.599  53.084  1.00  0.00     0.036 A 
HETATM   28  C14 UNL     1      27.145  -0.679  52.517  1.00  0.00     0.029 A 
HETATM   29  C15 UNL     1      28.107  -1.606  52.842  1.00  0.00     0.002 A 
HETATM   30  C16 UNL     1      29.091  -1.247  53.758  1.00  0.00     0.000 A 
HETATM   31  C17 UNL     1      29.090   0.014  54.322  1.00  0.00     0.002 A 
HETATM   32  C18 UNL     1      28.119   0.933  53.987  1.00  0.00     0.029 A 
ENDBRANCH  24  27
ENDBRANCH   4  21
TORSDOF 6
ENDMDL
