MODEL 1
REMARK VINA RESULT:      -7.9      0.000      0.000
REMARK  3 active torsions:
REMARK  status: ('A' for Active; 'I' for Inactive)
REMARK    1  A    between atoms: N1_7  and  C6_8 
REMARK    2  A    between atoms: C6_8  and  C7_9 
REMARK    3  A    between atoms: C7_9  and  N2_10 
ROOT
HETATM    1  N2  UNL     1      23.869   1.914  51.826  1.00  0.00    -0.312 N 
HETATM    2  C8  UNL     1      23.282   2.458  50.642  1.00  0.00     0.248 C 
HETATM    3  O2  UNL     1      23.624   3.624  50.320  1.00  0.00    -0.271 OA
HETATM    4  C9  UNL     1      22.325   1.579  49.917  1.00  0.00     0.279 C 
HETATM    5  O3  UNL     1      21.380   1.117  50.874  1.00  0.00    -0.340 OA
HETATM    6  C10 UNL     1      21.851   0.532  52.025  1.00  0.00     0.098 A 
HETATM    7  C11 UNL     1      21.105  -0.421  52.684  1.00  0.00     0.075 A 
HETATM    8  C12 UNL     1      21.538  -1.034  53.844  1.00  0.00     0.112 A 
HETATM    9  C13 UNL     1      22.785  -0.645  54.335  1.00  0.00     0.112 A 
HETATM   10  C14 UNL     1      23.529   0.305  53.676  1.00  0.00     0.068 A 
HETATM   11  C15 UNL     1      23.094   0.915  52.519  1.00  0.00     0.073 A 
HETATM   12  N3  UNL     1      22.626  -1.570  55.429  1.00  0.00    -0.147 NA
HETATM   13  N4  UNL     1      21.492  -1.917  54.974  1.00  0.00    -0.147 NA
ENDROOT
BRANCH   1  14
HETATM   14  C7  UNL     1      25.157   2.324  52.341  1.00  0.00     0.151 C 
BRANCH  14  15
HETATM   15  C6  UNL     1      26.264   1.471  51.799  1.00  0.00     0.137 C 
BRANCH  15  16
HETATM   16  N1  UNL     1      27.250   1.026  52.671  1.00  0.00    -0.403 N 
HETATM   17  C2  UNL     1      27.160  -0.154  53.401  1.00  0.00     0.099 C 
HETATM   18  C1  UNL     1      28.084  -1.261  52.955  1.00  0.00     0.034 C 
HETATM   19  C3  UNL     1      27.385   0.190  54.871  1.00  0.00     0.192 C 
HETATM   20  O1  UNL     1      28.553   0.824  55.134  1.00  0.00    -0.388 OA
HETATM   21  C4  UNL     1      29.067   1.670  54.201  1.00  0.00     0.187 C 
HETATM   22  C5  UNL     1      28.204   2.001  53.032  1.00  0.00     0.143 C 
ENDBRANCH  15  16
ENDBRANCH  14  15
ENDBRANCH   1  14
TORSDOF 3
ENDMDL
MODEL 2
REMARK VINA RESULT:      -7.9      1.079      1.719
REMARK  3 active torsions:
REMARK  status: ('A' for Active; 'I' for Inactive)
REMARK    1  A    between atoms: N1_7  and  C6_8 
REMARK    2  A    between atoms: C6_8  and  C7_9 
REMARK    3  A    between atoms: C7_9  and  N2_10 
ROOT
HETATM    1  N2  UNL     1      24.252   1.741  51.868  1.00  0.00    -0.312 N 
HETATM    2  C8  UNL     1      23.744   2.433  50.726  1.00  0.00     0.248 C 
HETATM    3  O2  UNL     1      24.268   3.541  50.449  1.00  0.00    -0.271 OA
HETATM    4  C9  UNL     1      22.641   1.760  49.985  1.00  0.00     0.279 C 
HETATM    5  O3  UNL     1      21.649   1.414  50.943  1.00  0.00    -0.340 OA
HETATM    6  C10 UNL     1      22.036   0.703  52.053  1.00  0.00     0.098 A 
HETATM    7  C11 UNL     1      21.154  -0.146  52.686  1.00  0.00     0.075 A 
HETATM    8  C12 UNL     1      21.498  -0.878  53.806  1.00  0.00     0.112 A 
HETATM    9  C13 UNL     1      22.801  -0.726  54.282  1.00  0.00     0.112 A 
HETATM   10  C14 UNL     1      23.681   0.120  53.650  1.00  0.00     0.068 A 
HETATM   11  C15 UNL     1      23.334   0.851  52.533  1.00  0.00     0.073 A 
HETATM   12  N3  UNL     1      22.509  -1.664  55.336  1.00  0.00    -0.147 NA
HETATM   13  N4  UNL     1      21.325  -1.797  54.894  1.00  0.00    -0.147 NA
ENDROOT
BRANCH   1  14
HETATM   14  C7  UNL     1      25.598   1.907  52.369  1.00  0.00     0.151 C 
BRANCH  14  15
HETATM   15  C6  UNL     1      26.534   0.892  51.784  1.00  0.00     0.137 C 
BRANCH  15  16
HETATM   16  N1  UNL     1      27.061  -0.087  52.616  1.00  0.00    -0.403 N 
HETATM   17  C2  UNL     1      28.047   0.156  53.565  1.00  0.00     0.099 C 
HETATM   18  C1  UNL     1      27.590   0.096  55.003  1.00  0.00     0.034 C 
HETATM   19  C3  UNL     1      29.189  -0.825  53.311  1.00  0.00     0.192 C 
HETATM   20  O1  UNL     1      28.829  -2.131  53.324  1.00  0.00    -0.388 OA
HETATM   21  C4  UNL     1      27.589  -2.475  52.882  1.00  0.00     0.187 C 
HETATM   22  C5  UNL     1      26.780  -1.412  52.222  1.00  0.00     0.143 C 
ENDBRANCH  15  16
ENDBRANCH  14  15
ENDBRANCH   1  14
TORSDOF 3
ENDMDL
MODEL 3
REMARK VINA RESULT:      -7.5      2.068      5.343
REMARK  3 active torsions:
REMARK  status: ('A' for Active; 'I' for Inactive)
REMARK    1  A    between atoms: N1_7  and  C6_8 
REMARK    2  A    between atoms: C6_8  and  C7_9 
REMARK    3  A    between atoms: C7_9  and  N2_10 
ROOT
HETATM    1  N2  UNL     1      24.270   2.334  51.585  1.00  0.00    -0.312 N 
HETATM    2  C8  UNL     1      24.642   3.045  50.402  1.00  0.00     0.248 C 
HETATM    3  O2  UNL     1      23.787   3.110  49.483  1.00  0.00    -0.271 OA
HETATM    4  C9  UNL     1      26.009   3.634  50.390  1.00  0.00     0.279 C 
HETATM    5  O3  UNL     1      26.911   2.595  50.750  1.00  0.00    -0.340 OA
HETATM    6  C10 UNL     1      26.663   1.888  51.901  1.00  0.00     0.098 A 
HETATM    7  C11 UNL     1      27.697   1.324  52.616  1.00  0.00     0.075 A 
HETATM    8  C12 UNL     1      27.495   0.603  53.777  1.00  0.00     0.112 A 
HETATM    9  C13 UNL     1      26.176   0.464  54.210  1.00  0.00     0.112 A 
HETATM   10  C14 UNL     1      25.143   1.026  53.497  1.00  0.00     0.068 A 
HETATM   11  C15 UNL     1      25.349   1.745  52.338  1.00  0.00     0.073 A 
HETATM   12  N3  UNL     1      26.643  -0.304  55.337  1.00  0.00    -0.147 NA
HETATM   13  N4  UNL     1      27.840  -0.171  54.934  1.00  0.00    -0.147 NA
ENDROOT
BRANCH   1  14
HETATM   14  C7  UNL     1      22.903   2.180  52.028  1.00  0.00     0.151 C 
BRANCH  14  15
HETATM   15  C6  UNL     1      22.315   0.881  51.563  1.00  0.00     0.137 C 
BRANCH  15  16
HETATM   16  N1  UNL     1      21.679   0.067  52.491  1.00  0.00    -0.403 N 
HETATM   17  C2  UNL     1      20.546   0.447  53.202  1.00  0.00     0.099 C 
HETATM   18  C1  UNL     1      19.269  -0.255  52.805  1.00  0.00     0.034 C 
HETATM   19  C3  UNL     1      20.840   0.251  54.687  1.00  0.00     0.192 C 
HETATM   20  O1  UNL     1      21.219  -1.004  55.030  1.00  0.00    -0.388 OA
HETATM   21  C4  UNL     1      21.937  -1.741  54.141  1.00  0.00     0.187 C 
HETATM   22  C5  UNL     1      22.436  -1.042  52.922  1.00  0.00     0.143 C 
ENDBRANCH  15  16
ENDBRANCH  14  15
ENDBRANCH   1  14
TORSDOF 3
ENDMDL
MODEL 4
REMARK VINA RESULT:      -7.4      1.951      4.924
REMARK  3 active torsions:
REMARK  status: ('A' for Active; 'I' for Inactive)
REMARK    1  A    between atoms: N1_7  and  C6_8 
REMARK    2  A    between atoms: C6_8  and  C7_9 
REMARK    3  A    between atoms: C7_9  and  N2_10 
ROOT
HETATM    1  N2  UNL     1      25.743   0.533  52.935  1.00  0.00    -0.312 N 
HETATM    2  C8  UNL     1      27.004   0.411  53.596  1.00  0.00     0.248 C 
HETATM    3  O2  UNL     1      28.034   0.455  52.876  1.00  0.00    -0.271 OA
HETATM    4  C9  UNL     1      26.959   0.244  55.075  1.00  0.00     0.279 C 
HETATM    5  O3  UNL     1      26.057  -0.822  55.345  1.00  0.00    -0.340 OA
HETATM    6  C10 UNL     1      24.800  -0.766  54.791  1.00  0.00     0.098 A 
HETATM    7  C11 UNL     1      23.730  -1.369  55.417  1.00  0.00     0.075 A 
HETATM    8  C12 UNL     1      22.451  -1.340  54.897  1.00  0.00     0.112 A 
HETATM    9  C13 UNL     1      22.277  -0.664  53.688  1.00  0.00     0.112 A 
HETATM   10  C14 UNL     1      23.345  -0.063  53.064  1.00  0.00     0.068 A 
HETATM   11  C15 UNL     1      24.620  -0.094  53.586  1.00  0.00     0.073 A 
HETATM   12  N3  UNL     1      20.874  -0.991  53.725  1.00  0.00    -0.147 NA
HETATM   13  N4  UNL     1      21.043  -1.604  54.825  1.00  0.00    -0.147 NA
ENDROOT
BRANCH   1  14
HETATM   14  C7  UNL     1      25.564   1.224  51.677  1.00  0.00     0.151 C 
BRANCH  14  15
HETATM   15  C6  UNL     1      25.654   2.711  51.847  1.00  0.00     0.137 C 
BRANCH  15  16
HETATM   16  N1  UNL     1      24.573   3.492  51.459  1.00  0.00    -0.403 N 
HETATM   17  C2  UNL     1      24.590   4.341  50.358  1.00  0.00     0.099 C 
HETATM   18  C1  UNL     1      23.750   3.895  49.185  1.00  0.00     0.034 C 
HETATM   19  C3  UNL     1      24.174   5.730  50.835  1.00  0.00     0.192 C 
HETATM   20  O1  UNL     1      22.970   5.781  51.456  1.00  0.00    -0.388 OA
HETATM   21  C4  UNL     1      22.565   4.711  52.192  1.00  0.00     0.187 C 
HETATM   22  C5  UNL     1      23.564   3.632  52.435  1.00  0.00     0.143 C 
ENDBRANCH  15  16
ENDBRANCH  14  15
ENDBRANCH   1  14
TORSDOF 3
ENDMDL
MODEL 5
REMARK VINA RESULT:      -7.3      2.354      5.558
REMARK  3 active torsions:
REMARK  status: ('A' for Active; 'I' for Inactive)
REMARK    1  A    between atoms: N1_7  and  C6_8 
REMARK    2  A    between atoms: C6_8  and  C7_9 
REMARK    3  A    between atoms: C7_9  and  N2_10 
ROOT
HETATM    1  N2  UNL     1      23.480   1.588  52.804  1.00  0.00    -0.312 N 
HETATM    2  C8  UNL     1      22.474   0.589  52.987  1.00  0.00     0.248 C 
HETATM    3  O2  UNL     1      21.279   0.978  53.011  1.00  0.00    -0.271 OA
HETATM    4  C9  UNL     1      22.957  -0.812  53.129  1.00  0.00     0.279 C 
HETATM    5  O3  UNL     1      23.958  -0.806  54.138  1.00  0.00    -0.340 OA
HETATM    6  C10 UNL     1      24.994   0.089  54.021  1.00  0.00     0.098 A 
HETATM    7  C11 UNL     1      26.233  -0.197  54.554  1.00  0.00     0.075 A 
HETATM    8  C12 UNL     1      27.302   0.672  54.462  1.00  0.00     0.112 A 
HETATM    9  C13 UNL     1      27.079   1.878  53.795  1.00  0.00     0.112 A 
HETATM   10  C14 UNL     1      25.843   2.163  53.263  1.00  0.00     0.068 A 
HETATM   11  C15 UNL     1      24.778   1.293  53.358  1.00  0.00     0.073 A 
HETATM   12  N3  UNL     1      28.448   2.251  54.043  1.00  0.00    -0.147 NA
HETATM   13  N4  UNL     1      28.642   1.151  54.647  1.00  0.00    -0.147 NA
ENDROOT
BRANCH   1  14
HETATM   14  C7  UNL     1      23.246   2.842  52.123  1.00  0.00     0.151 C 
BRANCH  14  15
HETATM   15  C6  UNL     1      23.338   2.687  50.635  1.00  0.00     0.137 C 
BRANCH  15  16
HETATM   16  N1  UNL     1      23.979   3.677  49.901  1.00  0.00    -0.403 N 
HETATM   17  C2  UNL     1      25.166   4.284  50.295  1.00  0.00     0.099 C 
HETATM   18  C1  UNL     1      26.382   3.916  49.479  1.00  0.00     0.034 C 
HETATM   19  C3  UNL     1      24.940   5.793  50.293  1.00  0.00     0.192 C 
HETATM   20  O1  UNL     1      24.515   6.303  49.111  1.00  0.00    -0.388 OA
HETATM   21  C4  UNL     1      23.714   5.542  48.318  1.00  0.00     0.187 C 
HETATM   22  C5  UNL     1      23.189   4.272  48.896  1.00  0.00     0.143 C 
ENDBRANCH  15  16
ENDBRANCH  14  15
ENDBRANCH   1  14
TORSDOF 3
ENDMDL
MODEL 6
REMARK VINA RESULT:      -7.2      1.991      4.040
REMARK  3 active torsions:
REMARK  status: ('A' for Active; 'I' for Inactive)
REMARK    1  A    between atoms: N1_7  and  C6_8 
REMARK    2  A    between atoms: C6_8  and  C7_9 
REMARK    3  A    between atoms: C7_9  and  N2_10 
ROOT
HETATM    1  N2  UNL     1      22.769  -0.363  53.550  1.00  0.00    -0.312 N 
HETATM    2  C8  UNL     1      21.745  -0.713  54.484  1.00  0.00     0.248 C 
HETATM    3  O2  UNL     1      21.730  -1.901  54.897  1.00  0.00    -0.271 OA
HETATM    4  C9  UNL     1      20.803   0.374  54.868  1.00  0.00     0.279 C 
HETATM    5  O3  UNL     1      20.316   0.946  53.661  1.00  0.00    -0.340 OA
HETATM    6  C10 UNL     1      21.230   1.360  52.722  1.00  0.00     0.098 A 
HETATM    7  C11 UNL     1      20.932   2.394  51.861  1.00  0.00     0.075 A 
HETATM    8  C12 UNL     1      21.818   2.843  50.901  1.00  0.00     0.112 A 
HETATM    9  C13 UNL     1      23.053   2.196  50.833  1.00  0.00     0.112 A 
HETATM   10  C14 UNL     1      23.351   1.165  51.692  1.00  0.00     0.068 A 
HETATM   11  C15 UNL     1      22.463   0.720  52.649  1.00  0.00     0.073 A 
HETATM   12  N3  UNL     1      23.431   3.066  49.747  1.00  0.00    -0.147 NA
HETATM   13  N4  UNL     1      22.304   3.647  49.817  1.00  0.00    -0.147 NA
ENDROOT
BRANCH   1  14
HETATM   14  C7  UNL     1      24.045  -1.039  53.472  1.00  0.00     0.151 C 
BRANCH  14  15
HETATM   15  C6  UNL     1      25.015  -0.505  54.483  1.00  0.00     0.137 C 
BRANCH  15  16
HETATM   16  N1  UNL     1      26.291  -0.156  54.062  1.00  0.00    -0.403 N 
HETATM   17  C2  UNL     1      26.805  -0.475  52.810  1.00  0.00     0.099 C 
HETATM   18  C1  UNL     1      26.970   0.689  51.863  1.00  0.00     0.034 C 
HETATM   19  C3  UNL     1      28.131  -1.201  53.022  1.00  0.00     0.192 C 
HETATM   20  O1  UNL     1      29.045  -0.514  53.750  1.00  0.00    -0.388 OA
HETATM   21  C4  UNL     1      28.610   0.311  54.740  1.00  0.00     0.187 C 
HETATM   22  C5  UNL     1      27.163   0.251  55.093  1.00  0.00     0.143 C 
ENDBRANCH  15  16
ENDBRANCH  14  15
ENDBRANCH   1  14
TORSDOF 3
ENDMDL
MODEL 7
REMARK VINA RESULT:      -7.1      2.535      5.132
REMARK  3 active torsions:
REMARK  status: ('A' for Active; 'I' for Inactive)
REMARK    1  A    between atoms: N1_7  and  C6_8 
REMARK    2  A    between atoms: C6_8  and  C7_9 
REMARK    3  A    between atoms: C7_9  and  N2_10 
ROOT
HETATM    1  N2  UNL     1      21.954   0.020  52.903  1.00  0.00    -0.312 N 
HETATM    2  C8  UNL     1      20.811  -0.579  53.517  1.00  0.00     0.248 C 
HETATM    3  O2  UNL     1      19.698  -0.034  53.307  1.00  0.00    -0.271 OA
HETATM    4  C9  UNL     1      21.066  -1.791  54.343  1.00  0.00     0.279 C 
HETATM    5  O3  UNL     1      22.107  -1.462  55.253  1.00  0.00    -0.340 OA
HETATM    6  C10 UNL     1      23.267  -0.926  54.749  1.00  0.00     0.098 A 
HETATM    7  C11 UNL     1      24.469  -1.119  55.395  1.00  0.00     0.075 A 
HETATM    8  C12 UNL     1      25.659  -0.597  54.926  1.00  0.00     0.112 A 
HETATM    9  C13 UNL     1      25.599   0.148  53.748  1.00  0.00     0.112 A 
HETATM   10  C14 UNL     1      24.400   0.340  53.102  1.00  0.00     0.068 A 
HETATM   11  C15 UNL     1      23.214  -0.181  53.574  1.00  0.00     0.073 A 
HETATM   12  N3  UNL     1      27.023   0.359  53.827  1.00  0.00    -0.147 NA
HETATM   13  N4  UNL     1      27.066  -0.321  54.899  1.00  0.00    -0.147 NA
ENDROOT
BRANCH   1  14
HETATM   14  C7  UNL     1      21.891   0.801  51.688  1.00  0.00     0.151 C 
BRANCH  14  15
HETATM   15  C6  UNL     1      21.758   2.265  51.981  1.00  0.00     0.137 C 
BRANCH  15  16
HETATM   16  N1  UNL     1      22.534   3.163  51.259  1.00  0.00    -0.403 N 
HETATM   17  C2  UNL     1      23.548   2.779  50.388  1.00  0.00     0.099 C 
HETATM   18  C1  UNL     1      23.253   2.987  48.922  1.00  0.00     0.034 C 
HETATM   19  C3  UNL     1      24.820   3.515  50.801  1.00  0.00     0.192 C 
HETATM   20  O1  UNL     1      24.709   4.865  50.837  1.00  0.00    -0.388 OA
HETATM   21  C4  UNL     1      23.516   5.418  51.187  1.00  0.00     0.187 C 
HETATM   22  C5  UNL     1      22.465   4.498  51.707  1.00  0.00     0.143 C 
ENDBRANCH  15  16
ENDBRANCH  14  15
ENDBRANCH   1  14
TORSDOF 3
ENDMDL
MODEL 8
REMARK VINA RESULT:      -7.1      2.550      5.282
REMARK  3 active torsions:
REMARK  status: ('A' for Active; 'I' for Inactive)
REMARK    1  A    between atoms: N1_7  and  C6_8 
REMARK    2  A    between atoms: C6_8  and  C7_9 
REMARK    3  A    between atoms: C7_9  and  N2_10 
ROOT
HETATM    1  N2  UNL     1      24.646   1.856  52.089  1.00  0.00    -0.312 N 
HETATM    2  C8  UNL     1      26.042   2.114  51.924  1.00  0.00     0.248 C 
HETATM    3  O2  UNL     1      26.413   2.560  50.809  1.00  0.00    -0.271 OA
HETATM    4  C9  UNL     1      26.909   1.825  53.099  1.00  0.00     0.279 C 
HETATM    5  O3  UNL     1      26.610   0.500  53.519  1.00  0.00    -0.340 OA
HETATM    6  C10 UNL     1      25.296   0.172  53.752  1.00  0.00     0.098 A 
HETATM    7  C11 UNL     1      24.967  -0.804  54.668  1.00  0.00     0.075 A 
HETATM    8  C12 UNL     1      23.661  -1.168  54.932  1.00  0.00     0.112 A 
HETATM    9  C13 UNL     1      22.664  -0.496  54.223  1.00  0.00     0.112 A 
HETATM   10  C14 UNL     1      22.992   0.478  53.309  1.00  0.00     0.068 A 
HETATM   11  C15 UNL     1      24.297   0.838  53.048  1.00  0.00     0.073 A 
HETATM   12  N3  UNL     1      21.668  -1.279  54.911  1.00  0.00    -0.147 NA
HETATM   13  N4  UNL     1      22.583  -1.884  55.552  1.00  0.00    -0.147 NA
ENDROOT
BRANCH   1  14
HETATM   14  C7  UNL     1      23.613   2.544  51.347  1.00  0.00     0.151 C 
BRANCH  14  15
HETATM   15  C6  UNL     1      23.257   3.854  51.982  1.00  0.00     0.137 C 
BRANCH  15  16
HETATM   16  N1  UNL     1      23.233   4.994  51.189  1.00  0.00    -0.403 N 
HETATM   17  C2  UNL     1      24.368   5.565  50.624  1.00  0.00     0.099 C 
HETATM   18  C1  UNL     1      24.489   5.416  49.126  1.00  0.00     0.034 C 
HETATM   19  C3  UNL     1      24.403   7.035  51.034  1.00  0.00     0.192 C 
HETATM   20  O1  UNL     1      23.298   7.744  50.701  1.00  0.00    -0.388 OA
HETATM   21  C4  UNL     1      22.091   7.118  50.697  1.00  0.00     0.187 C 
HETATM   22  C5  UNL     1      22.037   5.738  51.260  1.00  0.00     0.143 C 
ENDBRANCH  15  16
ENDBRANCH  14  15
ENDBRANCH   1  14
TORSDOF 3
ENDMDL
MODEL 9
REMARK VINA RESULT:      -7.0      2.893      5.794
REMARK  3 active torsions:
REMARK  status: ('A' for Active; 'I' for Inactive)
REMARK    1  A    between atoms: N1_7  and  C6_8 
REMARK    2  A    between atoms: C6_8  and  C7_9 
REMARK    3  A    between atoms: C7_9  and  N2_10 
ROOT
HETATM    1  N2  UNL     1      23.502   2.511  52.697  1.00  0.00    -0.312 N 
HETATM    2  C8  UNL     1      22.249   1.920  52.346  1.00  0.00     0.248 C 
HETATM    3  O2  UNL     1      21.236   2.663  52.382  1.00  0.00    -0.271 OA
HETATM    4  C9  UNL     1      22.282   0.479  51.973  1.00  0.00     0.279 C 
HETATM    5  O3  UNL     1      22.973  -0.203  53.011  1.00  0.00    -0.340 OA
HETATM    6  C10 UNL     1      24.211   0.263  53.384  1.00  0.00     0.098 A 
HETATM    7  C11 UNL     1      25.158  -0.594  53.901  1.00  0.00     0.075 A 
HETATM    8  C12 UNL     1      26.414  -0.170  54.291  1.00  0.00     0.112 A 
HETATM    9  C13 UNL     1      26.694   1.189  54.139  1.00  0.00     0.112 A 
HETATM   10  C14 UNL     1      25.749   2.044  53.623  1.00  0.00     0.068 A 
HETATM   11  C15 UNL     1      24.497   1.617  53.236  1.00  0.00     0.073 A 
HETATM   12  N3  UNL     1      28.012   0.960  54.675  1.00  0.00    -0.147 NA
HETATM   13  N4  UNL     1      27.747  -0.275  54.809  1.00  0.00    -0.147 NA
ENDROOT
BRANCH   1  14
HETATM   14  C7  UNL     1      23.790   3.920  52.551  1.00  0.00     0.151 C 
BRANCH  14  15
HETATM   15  C6  UNL     1      24.172   4.261  51.142  1.00  0.00     0.137 C 
BRANCH  15  16
HETATM   16  N1  UNL     1      23.636   5.406  50.565  1.00  0.00    -0.403 N 
HETATM   17  C2  UNL     1      24.391   6.345  49.871  1.00  0.00     0.099 C 
HETATM   18  C1  UNL     1      24.168   6.376  48.378  1.00  0.00     0.034 C 
HETATM   19  C3  UNL     1      24.119   7.712  50.494  1.00  0.00     0.192 C 
HETATM   20  O1  UNL     1      22.814   8.076  50.521  1.00  0.00    -0.388 OA
HETATM   21  C4  UNL     1      21.867   7.112  50.674  1.00  0.00     0.187 C 
HETATM   22  C5  UNL     1      22.338   5.738  51.006  1.00  0.00     0.143 C 
ENDBRANCH  15  16
ENDBRANCH  14  15
ENDBRANCH   1  14
TORSDOF 3
ENDMDL
