MODEL 1
REMARK VINA RESULT:      -8.1      0.000      0.000
REMARK  5 active torsions:
REMARK  status: ('A' for Active; 'I' for Inactive)
REMARK    1  A    between atoms: C5_6  and  C6_7 
REMARK    2  A    between atoms: C6_7  and  O1_8 
REMARK    3  A    between atoms: O1_8  and  C7_9 
REMARK    4  A    between atoms: C10_12  and  N1_13 
REMARK    5  A    between atoms: N1_13  and  C11_14 
ROOT
HETATM    1  C7  UNL     1      22.949   0.261  52.400  1.00  0.00     0.091 A 
HETATM    2  C8  UNL     1      23.911   1.169  52.027  1.00  0.00     0.041 A 
HETATM    3  C9  UNL     1      25.054   1.341  52.816  1.00  0.00     0.032 A 
HETATM    4  C10 UNL     1      25.278   0.636  53.967  1.00  0.00     0.035 A 
HETATM    5  C15 UNL     1      24.288  -0.278  54.325  1.00  0.00     0.056 A 
HETATM    6  C16 UNL     1      23.126  -0.490  53.582  1.00  0.00     0.069 A 
HETATM    7 CL1  UNL     1      22.001  -1.671  54.211  1.00  0.00    -0.081 Cl
ENDROOT
BRANCH   1   8
HETATM    8  O1  UNL     1      21.761  -0.013  51.708  1.00  0.00    -0.345 OA
BRANCH   8   9
HETATM    9  C6  UNL     1      20.871   1.049  51.387  1.00  0.00     0.214 C 
BRANCH   9  10
HETATM   10  C5  UNL     1      19.500   0.483  51.385  1.00  0.00    -0.031 A 
HETATM   11  C4  UNL     1      18.567   0.558  50.377  1.00  0.00     0.009 A 
HETATM   12  C3  UNL     1      17.300   0.013  50.377  1.00  0.00     0.004 A 
HETATM   13  C2  UNL     1      17.049  -0.664  51.578  1.00  0.00     0.042 A 
HETATM   14  C1  UNL     1      17.892  -0.805  52.649  1.00  0.00     0.117 A 
HETATM   15  F1  UNL     1      17.592  -1.479  53.774  1.00  0.00    -0.206 F 
HETATM   16  C17 UNL     1      19.123  -0.208  52.507  1.00  0.00     0.051 A 
ENDBRANCH   9  10
ENDBRANCH   8   9
ENDBRANCH   1   8
BRANCH   4  17
HETATM   17  N1  UNL     1      26.424   0.792  54.798  1.00  0.00    -0.340 N 
HETATM   18  H8  UNL     1      26.323   1.241  55.726  1.00  0.00     0.167 HD
BRANCH  17  19
HETATM   19  C11 UNL     1      27.682   0.296  54.284  1.00  0.00     0.150 A 
HETATM   20  C12 UNL     1      28.895   1.015  54.115  1.00  0.00     0.054 A 
HETATM   21  C13 UNL     1      29.738   0.081  53.628  1.00  0.00     0.025 A 
HETATM   22  C14 UNL     1      29.799  -1.221  53.273  1.00  0.00     0.141 A 
HETATM   23  N2  UNL     1      28.577  -1.686  53.511  1.00  0.00    -0.161 NA
HETATM   24  N3  UNL     1      27.527  -1.064  53.979  1.00  0.00    -0.132 NA
ENDBRANCH  17  19
ENDBRANCH   4  17
TORSDOF 5
ENDMDL
MODEL 2
REMARK VINA RESULT:      -8.1      5.423      7.390
REMARK  5 active torsions:
REMARK  status: ('A' for Active; 'I' for Inactive)
REMARK    1  A    between atoms: C5_6  and  C6_7 
REMARK    2  A    between atoms: C6_7  and  O1_8 
REMARK    3  A    between atoms: O1_8  and  C7_9 
REMARK    4  A    between atoms: C10_12  and  N1_13 
REMARK    5  A    between atoms: N1_13  and  C11_14 
ROOT
HETATM    1  C7  UNL     1      25.435   3.481  51.160  1.00  0.00     0.091 A 
HETATM    2  C8  UNL     1      26.367   2.548  50.769  1.00  0.00     0.041 A 
HETATM    3  C9  UNL     1      26.541   1.377  51.515  1.00  0.00     0.032 A 
HETATM    4  C10 UNL     1      25.815   1.096  52.640  1.00  0.00     0.035 A 
HETATM    5  C15 UNL     1      24.876   2.057  53.017  1.00  0.00     0.056 A 
HETATM    6  C16 UNL     1      24.662   3.244  52.316  1.00  0.00     0.069 A 
HETATM    7 CL1  UNL     1      23.449   4.324  52.963  1.00  0.00    -0.081 Cl
ENDROOT
BRANCH   1   8
HETATM    8  O1  UNL     1      25.157   4.690  50.510  1.00  0.00    -0.345 OA
BRANCH   8   9
HETATM    9  C6  UNL     1      25.187   4.751  49.089  1.00  0.00     0.214 C 
BRANCH   9  10
HETATM   10  C5  UNL     1      26.321   5.631  48.714  1.00  0.00    -0.031 A 
HETATM   11  C4  UNL     1      26.291   6.992  48.516  1.00  0.00     0.009 A 
HETATM   12  C3  UNL     1      27.355   7.806  48.185  1.00  0.00     0.004 A 
HETATM   13  C2  UNL     1      28.535   7.059  48.066  1.00  0.00     0.042 A 
HETATM   14  C1  UNL     1      28.689   5.708  48.236  1.00  0.00     0.117 A 
HETATM   15  F1  UNL     1      29.857   5.051  48.116  1.00  0.00    -0.206 F 
HETATM   16  C17 UNL     1      27.541   5.024  48.563  1.00  0.00     0.051 A 
ENDBRANCH   9  10
ENDBRANCH   8   9
ENDBRANCH   1   8
BRANCH   4  17
HETATM   17  N1  UNL     1      25.971  -0.080  53.428  1.00  0.00    -0.340 N 
HETATM   18  H8  UNL     1      25.153  -0.469  53.931  1.00  0.00     0.167 HD
BRANCH  17  19
HETATM   19  C11 UNL     1      27.290  -0.671  53.473  1.00  0.00     0.150 A 
HETATM   20  C12 UNL     1      28.506  -0.054  53.871  1.00  0.00     0.054 A 
HETATM   21  C13 UNL     1      29.409  -1.049  53.743  1.00  0.00     0.025 A 
HETATM   22  C14 UNL     1      29.525  -2.346  53.384  1.00  0.00     0.141 A 
HETATM   23  N2  UNL     1      28.289  -2.710  53.056  1.00  0.00    -0.161 NA
HETATM   24  N3  UNL     1      27.186  -2.009  53.064  1.00  0.00    -0.132 NA
ENDBRANCH  17  19
ENDBRANCH   4  17
TORSDOF 5
ENDMDL
MODEL 3
REMARK VINA RESULT:      -8.0      4.328      5.611
REMARK  5 active torsions:
REMARK  status: ('A' for Active; 'I' for Inactive)
REMARK    1  A    between atoms: C5_6  and  C6_7 
REMARK    2  A    between atoms: C6_7  and  O1_8 
REMARK    3  A    between atoms: O1_8  and  C7_9 
REMARK    4  A    between atoms: C10_12  and  N1_13 
REMARK    5  A    between atoms: N1_13  and  C11_14 
ROOT
HETATM    1  C7  UNL     1      23.595   2.208  51.856  1.00  0.00     0.091 A 
HETATM    2  C8  UNL     1      23.994   0.893  51.901  1.00  0.00     0.041 A 
HETATM    3  C9  UNL     1      24.921   0.476  52.863  1.00  0.00     0.032 A 
HETATM    4  C10 UNL     1      25.467   1.323  53.789  1.00  0.00     0.035 A 
HETATM    5  C15 UNL     1      25.047   2.651  53.722  1.00  0.00     0.056 A 
HETATM    6  C16 UNL     1      24.130   3.126  52.784  1.00  0.00     0.069 A 
HETATM    7 CL1  UNL     1      23.747   4.830  52.860  1.00  0.00    -0.081 Cl
ENDROOT
BRANCH   1   8
HETATM    8  O1  UNL     1      22.677   2.760  50.952  1.00  0.00    -0.345 OA
BRANCH   8   9
HETATM    9  C6  UNL     1      22.973   2.764  49.560  1.00  0.00     0.214 C 
BRANCH   9  10
HETATM   10  C5  UNL     1      23.912   3.885  49.317  1.00  0.00    -0.031 A 
HETATM   11  C4  UNL     1      23.598   5.212  49.133  1.00  0.00     0.009 A 
HETATM   12  C3  UNL     1      24.480   6.252  48.925  1.00  0.00     0.004 A 
HETATM   13  C2  UNL     1      25.803   5.790  48.921  1.00  0.00     0.042 A 
HETATM   14  C1  UNL     1      26.239   4.502  49.090  1.00  0.00     0.117 A 
HETATM   15  F1  UNL     1      27.530   4.125  49.086  1.00  0.00    -0.206 F 
HETATM   16  C17 UNL     1      25.246   3.570  49.288  1.00  0.00     0.051 A 
ENDBRANCH   9  10
ENDBRANCH   8   9
ENDBRANCH   1   8
BRANCH   4  17
HETATM   17  N1  UNL     1      26.419   0.936  54.774  1.00  0.00    -0.340 N 
HETATM   18  H8  UNL     1      26.165   0.991  55.777  1.00  0.00     0.167 HD
BRANCH  17  19
HETATM   19  C11 UNL     1      27.706   0.476  54.301  1.00  0.00     0.150 A 
HETATM   20  C12 UNL     1      28.862   1.255  54.032  1.00  0.00     0.054 A 
HETATM   21  C13 UNL     1      29.768   0.333  53.643  1.00  0.00     0.025 A 
HETATM   22  C14 UNL     1      29.921  -0.993  53.438  1.00  0.00     0.141 A 
HETATM   23  N2  UNL     1      28.737  -1.514  53.746  1.00  0.00    -0.161 NA
HETATM   24  N3  UNL     1      27.647  -0.918  54.156  1.00  0.00    -0.132 NA
ENDBRANCH  17  19
ENDBRANCH   4  17
TORSDOF 5
ENDMDL
MODEL 4
REMARK VINA RESULT:      -7.9      4.170      5.898
REMARK  5 active torsions:
REMARK  status: ('A' for Active; 'I' for Inactive)
REMARK    1  A    between atoms: C5_6  and  C6_7 
REMARK    2  A    between atoms: C6_7  and  O1_8 
REMARK    3  A    between atoms: O1_8  and  C7_9 
REMARK    4  A    between atoms: C10_12  and  N1_13 
REMARK    5  A    between atoms: N1_13  and  C11_14 
ROOT
HETATM    1  C7  UNL     1      23.806   2.619  51.841  1.00  0.00     0.091 A 
HETATM    2  C8  UNL     1      24.870   3.050  52.599  1.00  0.00     0.041 A 
HETATM    3  C9  UNL     1      25.509   2.165  53.475  1.00  0.00     0.032 A 
HETATM    4  C10 UNL     1      25.129   0.859  53.624  1.00  0.00     0.035 A 
HETATM    5  C15 UNL     1      24.048   0.446  52.846  1.00  0.00     0.056 A 
HETATM    6  C16 UNL     1      23.369   1.283  51.959  1.00  0.00     0.069 A 
HETATM    7 CL1  UNL     1      22.029   0.574  51.088  1.00  0.00    -0.081 Cl
ENDROOT
BRANCH   1   8
HETATM    8  O1  UNL     1      23.078   3.392  50.928  1.00  0.00    -0.345 OA
BRANCH   8   9
HETATM    9  C6  UNL     1      23.365   3.298  49.538  1.00  0.00     0.214 C 
BRANCH   9  10
HETATM   10  C5  UNL     1      24.613   4.062  49.297  1.00  0.00    -0.031 A 
HETATM   11  C4  UNL     1      25.904   3.589  49.349  1.00  0.00     0.009 A 
HETATM   12  C3  UNL     1      27.059   4.303  49.106  1.00  0.00     0.004 A 
HETATM   13  C2  UNL     1      26.763   5.633  48.780  1.00  0.00     0.042 A 
HETATM   14  C1  UNL     1      25.527   6.218  48.697  1.00  0.00     0.117 A 
HETATM   15  F1  UNL     1      25.310   7.504  48.368  1.00  0.00    -0.206 F 
HETATM   16  C17 UNL     1      24.466   5.384  48.967  1.00  0.00     0.051 A 
ENDBRANCH   9  10
ENDBRANCH   8   9
ENDBRANCH   1   8
BRANCH   4  17
HETATM   17  N1  UNL     1      25.750  -0.065  54.511  1.00  0.00    -0.340 N 
HETATM   18  H8  UNL     1      25.213  -0.439  55.314  1.00  0.00     0.167 HD
BRANCH  17  19
HETATM   19  C11 UNL     1      27.119  -0.434  54.225  1.00  0.00     0.150 A 
HETATM   20  C12 UNL     1      28.302   0.246  54.619  1.00  0.00     0.054 A 
HETATM   21  C13 UNL     1      29.283  -0.530  54.111  1.00  0.00     0.025 A 
HETATM   22  C14 UNL     1      29.490  -1.659  53.399  1.00  0.00     0.141 A 
HETATM   23  N2  UNL     1      28.269  -2.118  53.144  1.00  0.00    -0.161 NA
HETATM   24  N3  UNL     1      27.107  -1.624  53.483  1.00  0.00    -0.132 NA
ENDBRANCH  17  19
ENDBRANCH   4  17
TORSDOF 5
ENDMDL
MODEL 5
REMARK VINA RESULT:      -7.9      4.448      5.724
REMARK  5 active torsions:
REMARK  status: ('A' for Active; 'I' for Inactive)
REMARK    1  A    between atoms: C5_6  and  C6_7 
REMARK    2  A    between atoms: C6_7  and  O1_8 
REMARK    3  A    between atoms: O1_8  and  C7_9 
REMARK    4  A    between atoms: C10_12  and  N1_13 
REMARK    5  A    between atoms: N1_13  and  C11_14 
ROOT
HETATM    1  C7  UNL     1      24.356   2.306  51.081  1.00  0.00     0.091 A 
HETATM    2  C8  UNL     1      23.868   1.712  52.221  1.00  0.00     0.041 A 
HETATM    3  C9  UNL     1      24.739   1.382  53.266  1.00  0.00     0.032 A 
HETATM    4  C10 UNL     1      26.084   1.625  53.220  1.00  0.00     0.035 A 
HETATM    5  C15 UNL     1      26.556   2.227  52.053  1.00  0.00     0.056 A 
HETATM    6  C16 UNL     1      25.738   2.575  50.978  1.00  0.00     0.069 A 
HETATM    7 CL1  UNL     1      26.528   3.308  49.601  1.00  0.00    -0.081 Cl
ENDROOT
BRANCH   1   8
HETATM    8  O1  UNL     1      23.603   2.690  49.964  1.00  0.00    -0.345 OA
BRANCH   8   9
HETATM    9  C6  UNL     1      22.598   3.688  50.100  1.00  0.00     0.214 C 
BRANCH   9  10
HETATM   10  C5  UNL     1      23.201   4.975  49.677  1.00  0.00    -0.031 A 
HETATM   11  C4  UNL     1      23.660   5.311  48.424  1.00  0.00     0.009 A 
HETATM   12  C3  UNL     1      24.203   6.517  48.035  1.00  0.00     0.004 A 
HETATM   13  C2  UNL     1      24.240   7.416  49.109  1.00  0.00     0.042 A 
HETATM   14  C1  UNL     1      23.818   7.200  50.395  1.00  0.00     0.117 A 
HETATM   15  F1  UNL     1      23.872   8.113  51.381  1.00  0.00    -0.206 F 
HETATM   16  C17 UNL     1      23.299   5.949  50.637  1.00  0.00     0.051 A 
ENDBRANCH   9  10
ENDBRANCH   8   9
ENDBRANCH   1   8
BRANCH   4  17
HETATM   17  N1  UNL     1      27.000   1.294  54.258  1.00  0.00    -0.340 N 
HETATM   18  H8  UNL     1      26.905   1.747  55.185  1.00  0.00     0.167 HD
BRANCH  17  19
HETATM   19  C11 UNL     1      28.024   0.321  53.947  1.00  0.00     0.150 A 
HETATM   20  C12 UNL     1      29.427   0.530  53.872  1.00  0.00     0.054 A 
HETATM   21  C13 UNL     1      29.903  -0.697  53.572  1.00  0.00     0.025 A 
HETATM   22  C14 UNL     1      29.507  -1.967  53.335  1.00  0.00     0.141 A 
HETATM   23  N2  UNL     1      28.184  -1.929  53.456  1.00  0.00    -0.161 NA
HETATM   24  N3  UNL     1      27.403  -0.919  53.737  1.00  0.00    -0.132 NA
ENDBRANCH  17  19
ENDBRANCH   4  17
TORSDOF 5
ENDMDL
MODEL 6
REMARK VINA RESULT:      -7.8      5.795      8.294
REMARK  5 active torsions:
REMARK  status: ('A' for Active; 'I' for Inactive)
REMARK    1  A    between atoms: C5_6  and  C6_7 
REMARK    2  A    between atoms: C6_7  and  O1_8 
REMARK    3  A    between atoms: O1_8  and  C7_9 
REMARK    4  A    between atoms: C10_12  and  N1_13 
REMARK    5  A    between atoms: N1_13  and  C11_14 
ROOT
HETATM    1  C7  UNL     1      25.523   2.210  51.772  1.00  0.00     0.091 A 
HETATM    2  C8  UNL     1      26.601   2.471  50.961  1.00  0.00     0.041 A 
HETATM    3  C9  UNL     1      26.532   3.499  50.014  1.00  0.00     0.032 A 
HETATM    4  C10 UNL     1      25.424   4.284  49.845  1.00  0.00     0.035 A 
HETATM    5  C15 UNL     1      24.342   3.999  50.680  1.00  0.00     0.056 A 
HETATM    6  C16 UNL     1      24.351   2.985  51.638  1.00  0.00     0.069 A 
HETATM    7 CL1  UNL     1      22.888   2.781  52.572  1.00  0.00    -0.081 Cl
ENDROOT
BRANCH   1   8
HETATM    8  O1  UNL     1      25.455   1.217  52.759  1.00  0.00    -0.345 OA
BRANCH   8   9
HETATM    9  C6  UNL     1      26.491   1.114  53.728  1.00  0.00     0.214 C 
BRANCH   9  10
HETATM   10  C5  UNL     1      27.230  -0.141  53.445  1.00  0.00    -0.031 A 
HETATM   11  C4  UNL     1      26.742  -1.281  52.848  1.00  0.00     0.009 A 
HETATM   12  C3  UNL     1      27.442  -2.437  52.572  1.00  0.00     0.004 A 
HETATM   13  C2  UNL     1      28.776  -2.322  52.985  1.00  0.00     0.042 A 
HETATM   14  C1  UNL     1      29.375  -1.247  53.588  1.00  0.00     0.117 A 
HETATM   15  F1  UNL     1      30.669  -1.198  53.952  1.00  0.00    -0.206 F 
HETATM   16  C17 UNL     1      28.553  -0.164  53.802  1.00  0.00     0.051 A 
ENDBRANCH   9  10
ENDBRANCH   8   9
ENDBRANCH   1   8
BRANCH   4  17
HETATM   17  N1  UNL     1      25.314   5.331  48.887  1.00  0.00    -0.340 N 
HETATM   18  H8  UNL     1      24.559   5.297  48.179  1.00  0.00     0.167 HD
BRANCH  17  19
HETATM   19  C11 UNL     1      26.284   6.401  48.968  1.00  0.00     0.150 A 
HETATM   20  C12 UNL     1      27.462   6.567  48.193  1.00  0.00     0.054 A 
HETATM   21  C13 UNL     1      27.975   7.724  48.661  1.00  0.00     0.025 A 
HETATM   22  C14 UNL     1      27.750   8.705  49.563  1.00  0.00     0.141 A 
HETATM   23  N2  UNL     1      26.617   8.349  50.161  1.00  0.00    -0.161 NA
HETATM   24  N3  UNL     1      25.862   7.301  49.958  1.00  0.00    -0.132 NA
ENDBRANCH  17  19
ENDBRANCH   4  17
TORSDOF 5
ENDMDL
MODEL 7
REMARK VINA RESULT:      -7.7      4.561      5.782
REMARK  5 active torsions:
REMARK  status: ('A' for Active; 'I' for Inactive)
REMARK    1  A    between atoms: C5_6  and  C6_7 
REMARK    2  A    between atoms: C6_7  and  O1_8 
REMARK    3  A    between atoms: O1_8  and  C7_9 
REMARK    4  A    between atoms: C10_12  and  N1_13 
REMARK    5  A    between atoms: N1_13  and  C11_14 
ROOT
HETATM    1  C7  UNL     1      24.526   2.532  51.095  1.00  0.00     0.091 A 
HETATM    2  C8  UNL     1      25.895   2.510  50.964  1.00  0.00     0.041 A 
HETATM    3  C9  UNL     1      26.690   2.031  52.011  1.00  0.00     0.032 A 
HETATM    4  C10 UNL     1      26.172   1.565  53.188  1.00  0.00     0.035 A 
HETATM    5  C15 UNL     1      24.781   1.598  53.297  1.00  0.00     0.056 A 
HETATM    6  C16 UNL     1      23.937   2.068  52.291  1.00  0.00     0.069 A 
HETATM    7 CL1  UNL     1      22.223   2.038  52.632  1.00  0.00    -0.081 Cl
ENDROOT
BRANCH   1   8
HETATM    8  O1  UNL     1      23.613   2.981  50.132  1.00  0.00    -0.345 OA
BRANCH   8   9
HETATM    9  C6  UNL     1      24.036   3.903  49.134  1.00  0.00     0.214 C 
BRANCH   9  10
HETATM   10  C5  UNL     1      23.962   5.258  49.733  1.00  0.00    -0.031 A 
HETATM   11  C4  UNL     1      22.843   5.901  50.209  1.00  0.00     0.009 A 
HETATM   12  C3  UNL     1      22.787   7.155  50.781  1.00  0.00     0.004 A 
HETATM   13  C2  UNL     1      24.060   7.737  50.829  1.00  0.00     0.042 A 
HETATM   14  C1  UNL     1      25.242   7.202  50.388  1.00  0.00     0.117 A 
HETATM   15  F1  UNL     1      26.437   7.813  50.474  1.00  0.00    -0.206 F 
HETATM   16  C17 UNL     1      25.144   5.944  49.840  1.00  0.00     0.051 A 
ENDBRANCH   9  10
ENDBRANCH   8   9
ENDBRANCH   1   8
BRANCH   4  17
HETATM   17  N1  UNL     1      26.950   1.079  54.277  1.00  0.00    -0.340 N 
HETATM   18  H8  UNL     1      26.773   1.440  55.231  1.00  0.00     0.167 HD
BRANCH  17  19
HETATM   19  C11 UNL     1      27.958   0.087  53.973  1.00  0.00     0.150 A 
HETATM   20  C12 UNL     1      29.369   0.243  54.009  1.00  0.00     0.054 A 
HETATM   21  C13 UNL     1      29.820  -0.981  53.662  1.00  0.00     0.025 A 
HETATM   22  C14 UNL     1      29.397  -2.216  53.315  1.00  0.00     0.141 A 
HETATM   23  N2  UNL     1      28.071  -2.132  53.346  1.00  0.00    -0.161 NA
HETATM   24  N3  UNL     1      27.309  -1.110  53.640  1.00  0.00    -0.132 NA
ENDBRANCH  17  19
ENDBRANCH   4  17
TORSDOF 5
ENDMDL
MODEL 8
REMARK VINA RESULT:      -7.6      6.368      8.479
REMARK  5 active torsions:
REMARK  status: ('A' for Active; 'I' for Inactive)
REMARK    1  A    between atoms: C5_6  and  C6_7 
REMARK    2  A    between atoms: C6_7  and  O1_8 
REMARK    3  A    between atoms: O1_8  and  C7_9 
REMARK    4  A    between atoms: C10_12  and  N1_13 
REMARK    5  A    between atoms: N1_13  and  C11_14 
ROOT
HETATM    1  C7  UNL     1      25.472   3.404  50.723  1.00  0.00     0.091 A 
HETATM    2  C8  UNL     1      26.567   3.253  49.905  1.00  0.00     0.041 A 
HETATM    3  C9  UNL     1      26.962   4.300  49.065  1.00  0.00     0.032 A 
HETATM    4  C10 UNL     1      26.307   5.500  49.011  1.00  0.00     0.035 A 
HETATM    5  C15 UNL     1      25.199   5.629  49.849  1.00  0.00     0.056 A 
HETATM    6  C16 UNL     1      24.755   4.619  50.704  1.00  0.00     0.069 A 
HETATM    7 CL1  UNL     1      23.337   4.976  51.662  1.00  0.00    -0.081 Cl
ENDROOT
BRANCH   1   8
HETATM    8  O1  UNL     1      24.968   2.444  51.611  1.00  0.00    -0.345 OA
BRANCH   8   9
HETATM    9  C6  UNL     1      25.498   2.353  52.928  1.00  0.00     0.214 C 
BRANCH   9  10
HETATM   10  C5  UNL     1      26.348   1.138  52.973  1.00  0.00    -0.031 A 
HETATM   11  C4  UNL     1      26.006  -0.136  52.581  1.00  0.00     0.009 A 
HETATM   12  C3  UNL     1      26.809  -1.256  52.610  1.00  0.00     0.004 A 
HETATM   13  C2  UNL     1      28.082  -0.944  53.107  1.00  0.00     0.042 A 
HETATM   14  C1  UNL     1      28.538   0.278  53.527  1.00  0.00     0.117 A 
HETATM   15  F1  UNL     1      29.781   0.514  53.986  1.00  0.00    -0.206 F 
HETATM   16  C17 UNL     1      27.625   1.304  53.442  1.00  0.00     0.051 A 
ENDBRANCH   9  10
ENDBRANCH   8   9
ENDBRANCH   1   8
BRANCH   4  17
HETATM   17  N1  UNL     1      26.675   6.583  48.163  1.00  0.00    -0.340 N 
HETATM   18  H8  UNL     1      26.038   6.870  47.398  1.00  0.00     0.167 HD
BRANCH  17  19
HETATM   19  C11 UNL     1      27.941   7.228  48.432  1.00  0.00     0.150 A 
HETATM   20  C12 UNL     1      29.235   6.809  48.024  1.00  0.00     0.054 A 
HETATM   21  C13 UNL     1      30.039   7.772  48.520  1.00  0.00     0.025 A 
HETATM   22  C14 UNL     1      30.016   8.922  49.230  1.00  0.00     0.141 A 
HETATM   23  N2  UNL     1      28.729   9.118  49.499  1.00  0.00    -0.161 NA
HETATM   24  N3  UNL     1      27.691   8.392  49.174  1.00  0.00    -0.132 NA
ENDBRANCH  17  19
ENDBRANCH   4  17
TORSDOF 5
ENDMDL
MODEL 9
REMARK VINA RESULT:      -7.5      4.985      8.079
REMARK  5 active torsions:
REMARK  status: ('A' for Active; 'I' for Inactive)
REMARK    1  A    between atoms: C5_6  and  C6_7 
REMARK    2  A    between atoms: C6_7  and  O1_8 
REMARK    3  A    between atoms: O1_8  and  C7_9 
REMARK    4  A    between atoms: C10_12  and  N1_13 
REMARK    5  A    between atoms: N1_13  and  C11_14 
ROOT
HETATM    1  C7  UNL     1      24.783   1.029  52.371  1.00  0.00     0.091 A 
HETATM    2  C8  UNL     1      25.605   1.841  51.626  1.00  0.00     0.041 A 
HETATM    3  C9  UNL     1      25.146   3.089  51.188  1.00  0.00     0.032 A 
HETATM    4  C10 UNL     1      23.893   3.562  51.468  1.00  0.00     0.035 A 
HETATM    5  C15 UNL     1      23.078   2.720  52.224  1.00  0.00     0.056 A 
HETATM    6  C16 UNL     1      23.478   1.465  52.685  1.00  0.00     0.069 A 
HETATM    7 CL1  UNL     1      22.300   0.559  53.604  1.00  0.00    -0.081 Cl
ENDROOT
BRANCH   1   8
HETATM    8  O1  UNL     1      25.111  -0.237  52.874  1.00  0.00    -0.345 OA
BRANCH   8   9
HETATM    9  C6  UNL     1      25.707  -0.352  54.161  1.00  0.00     0.214 C 
BRANCH   9  10
HETATM   10  C5  UNL     1      27.177  -0.309  53.967  1.00  0.00    -0.031 A 
HETATM   11  C4  UNL     1      27.966  -1.253  53.353  1.00  0.00     0.009 A 
HETATM   12  C3  UNL     1      29.331  -1.196  53.161  1.00  0.00     0.004 A 
HETATM   13  C2  UNL     1      29.858  -0.007  53.685  1.00  0.00     0.042 A 
HETATM   14  C1  UNL     1      29.178   1.001  54.316  1.00  0.00     0.117 A 
HETATM   15  F1  UNL     1      29.745   2.126  54.789  1.00  0.00    -0.206 F 
HETATM   16  C17 UNL     1      27.822   0.806  54.437  1.00  0.00     0.051 A 
ENDBRANCH   9  10
ENDBRANCH   8   9
ENDBRANCH   1   8
BRANCH   4  17
HETATM   17  N1  UNL     1      23.390   4.820  51.031  1.00  0.00    -0.340 N 
HETATM   18  H8  UNL     1      22.443   5.119  51.324  1.00  0.00     0.167 HD
BRANCH  17  19
HETATM   19  C11 UNL     1      24.255   5.619  50.192  1.00  0.00     0.150 A 
HETATM   20  C12 UNL     1      24.505   5.462  48.803  1.00  0.00     0.054 A 
HETATM   21  C13 UNL     1      25.358   6.472  48.530  1.00  0.00     0.025 A 
HETATM   22  C14 UNL     1      26.006   7.507  49.107  1.00  0.00     0.141 A 
HETATM   23  N2  UNL     1      25.631   7.463  50.381  1.00  0.00    -0.161 NA
HETATM   24  N3  UNL     1      24.824   6.628  50.982  1.00  0.00    -0.132 NA
ENDBRANCH  17  19
ENDBRANCH   4  17
TORSDOF 5
ENDMDL
