MODEL 1
REMARK VINA RESULT:      -8.0      0.000      0.000
REMARK  5 active torsions:
REMARK  status: ('A' for Active; 'I' for Inactive)
REMARK    1  A    between atoms: C2_2  and  C3_3 
REMARK       I    between atoms: C3_3  and  N1_5 
REMARK    2  A    between atoms: N1_5  and  C4_6 
REMARK    3  A    between atoms: C5_7  and  C6_8 
REMARK    4  A    between atoms: C8_12  and  N4_13 
REMARK    5  A    between atoms: N4_13  and  C9_14 
ROOT
HETATM    1  C6  UNL     1      23.457  -0.042  53.343  1.00  0.00    -0.008 A 
HETATM    2  C7  UNL     1      23.382   0.849  52.369  1.00  0.00     0.121 A 
HETATM    3  N2  UNL     1      22.051   1.232  52.036  1.00  0.00    -0.287 N 
HETATM    4  N3  UNL     1      20.877   0.762  52.629  1.00  0.00    -0.156 NA
HETATM    5  C8  UNL     1      20.948  -0.098  53.570  1.00  0.00     0.155 A 
HETATM    6  C15 UNL     1      22.262  -0.561  53.993  1.00  0.00     0.002 A 
HETATM    7  C16 UNL     1      22.257  -1.450  54.964  1.00  0.00     0.048 C 
HETATM    8  H8  UNL     1      21.939   1.939  51.265  1.00  0.00     0.188 HD
ENDROOT
BRANCH   5   9
HETATM    9  N4  UNL     1      19.743  -0.540  54.135  1.00  0.00    -0.339 N 
HETATM   10  H9  UNL     1      19.706  -0.466  55.196  1.00  0.00     0.167 HD
BRANCH   9  11
HETATM   11  C9  UNL     1      18.607  -1.055  53.468  1.00  0.00     0.035 A 
HETATM   12  C10 UNL     1      17.851  -0.469  52.501  1.00  0.00     0.029 A 
HETATM   13  C11 UNL     1      16.756  -1.016  51.878  1.00  0.00     0.004 A 
HETATM   14  C12 UNL     1      16.352  -2.282  52.243  1.00  0.00     0.019 A 
HETATM   15  C13 UNL     1      17.076  -2.931  53.219  1.00  0.00     0.013 A 
HETATM   16 BR1  UNL     1      16.530  -4.685  53.735  1.00  0.00    -0.051 Br
HETATM   17  C14 UNL     1      18.161  -2.322  53.800  1.00  0.00     0.048 A 
ENDBRANCH   9  11
ENDBRANCH   5   9
BRANCH   1  18
HETATM   18  C5  UNL     1      24.758  -0.521  53.785  1.00  0.00     0.030 C 
HETATM   19  C4  UNL     1      25.802   0.189  54.175  1.00  0.00     0.092 C 
BRANCH  19  20
HETATM   20  N1  UNL     1      27.067  -0.360  54.601  1.00  0.00    -0.334 N 
HETATM   21  C3  UNL     1      28.119   0.184  53.816  1.00  0.00     0.244 C 
HETATM   22  O1  UNL     1      27.952   1.023  52.885  1.00  0.00    -0.268 OA
HETATM   23  H4  UNL     1      27.475  -1.015  55.290  1.00  0.00     0.168 HD
BRANCH  21  24
HETATM   24  C2  UNL     1      29.563  -0.059  53.867  1.00  0.00     0.064 C 
HETATM   25  C1  UNL     1      29.760  -1.308  53.504  1.00  0.00     0.017 C 
ENDBRANCH  21  24
ENDBRANCH  19  20
ENDBRANCH   1  18
TORSDOF 5
ENDMDL
MODEL 2
REMARK VINA RESULT:      -7.8      2.772      3.368
REMARK  5 active torsions:
REMARK  status: ('A' for Active; 'I' for Inactive)
REMARK    1  A    between atoms: C2_2  and  C3_3 
REMARK       I    between atoms: C3_3  and  N1_5 
REMARK    2  A    between atoms: N1_5  and  C4_6 
REMARK    3  A    between atoms: C5_7  and  C6_8 
REMARK    4  A    between atoms: C8_12  and  N4_13 
REMARK    5  A    between atoms: N4_13  and  C9_14 
ROOT
HETATM    1  C6  UNL     1      23.173  -0.411  53.797  1.00  0.00    -0.008 A 
HETATM    2  C7  UNL     1      22.566  -1.024  54.799  1.00  0.00     0.121 A 
HETATM    3  N2  UNL     1      21.214  -0.618  54.992  1.00  0.00    -0.287 N 
HETATM    4  N3  UNL     1      20.515   0.331  54.241  1.00  0.00    -0.156 NA
HETATM    5  C8  UNL     1      21.100   0.922  53.273  1.00  0.00     0.155 A 
HETATM    6  C15 UNL     1      22.487   0.584  52.985  1.00  0.00     0.002 A 
HETATM    7  C16 UNL     1      23.025   1.237  51.977  1.00  0.00     0.048 C 
HETATM    8  H8  UNL     1      20.688  -1.077  55.778  1.00  0.00     0.188 HD
ENDROOT
BRANCH   5   9
HETATM    9  N4  UNL     1      20.359   1.867  52.548  1.00  0.00    -0.339 N 
HETATM   10  H9  UNL     1      20.705   2.867  52.653  1.00  0.00     0.167 HD
BRANCH   9  11
HETATM   11  C9  UNL     1      19.238   1.639  51.715  1.00  0.00     0.035 A 
HETATM   12  C10 UNL     1      18.933   0.534  50.984  1.00  0.00     0.029 A 
HETATM   13  C11 UNL     1      17.823   0.359  50.193  1.00  0.00     0.004 A 
HETATM   14  C12 UNL     1      16.906   1.384  50.106  1.00  0.00     0.019 A 
HETATM   15  C13 UNL     1      17.157   2.533  50.824  1.00  0.00     0.013 A 
HETATM   16 BR1  UNL     1      15.896   3.961  50.714  1.00  0.00    -0.051 Br
HETATM   17  C14 UNL     1      18.289   2.638  51.595  1.00  0.00     0.048 A 
ENDBRANCH   9  11
ENDBRANCH   5   9
BRANCH   1  18
HETATM   18  C5  UNL     1      24.558  -0.732  53.489  1.00  0.00     0.030 C 
HETATM   19  C4  UNL     1      25.630  -0.537  54.238  1.00  0.00     0.092 C 
BRANCH  19  20
HETATM   20  N1  UNL     1      26.980  -0.883  53.863  1.00  0.00    -0.334 N 
HETATM   21  C3  UNL     1      27.852   0.205  54.138  1.00  0.00     0.244 C 
HETATM   22  O1  UNL     1      27.481   1.306  54.638  1.00  0.00    -0.268 OA
HETATM   23  H4  UNL     1      27.536  -1.658  53.464  1.00  0.00     0.168 HD
BRANCH  21  24
HETATM   24  C2  UNL     1      29.297   0.335  53.936  1.00  0.00     0.064 C 
HETATM   25  C1  UNL     1      29.742  -0.838  53.541  1.00  0.00     0.017 C 
ENDBRANCH  21  24
ENDBRANCH  19  20
ENDBRANCH   1  18
TORSDOF 5
ENDMDL
MODEL 3
REMARK VINA RESULT:      -7.4      6.642      9.283
REMARK  5 active torsions:
REMARK  status: ('A' for Active; 'I' for Inactive)
REMARK    1  A    between atoms: C2_2  and  C3_3 
REMARK       I    between atoms: C3_3  and  N1_5 
REMARK    2  A    between atoms: N1_5  and  C4_6 
REMARK    3  A    between atoms: C5_7  and  C6_8 
REMARK    4  A    between atoms: C8_12  and  N4_13 
REMARK    5  A    between atoms: N4_13  and  C9_14 
ROOT
HETATM    1  C6  UNL     1      25.267   2.653  51.784  1.00  0.00    -0.008 A 
HETATM    2  C7  UNL     1      24.364   3.041  52.668  1.00  0.00     0.121 A 
HETATM    3  N2  UNL     1      23.790   4.315  52.390  1.00  0.00    -0.287 N 
HETATM    4  N3  UNL     1      24.093   5.145  51.308  1.00  0.00    -0.156 NA
HETATM    5  C8  UNL     1      24.965   4.771  50.453  1.00  0.00     0.155 A 
HETATM    6  C15 UNL     1      25.617   3.483  50.641  1.00  0.00     0.002 A 
HETATM    7  C16 UNL     1      26.507   3.167  49.723  1.00  0.00     0.048 C 
HETATM    8  H8  UNL     1      23.065   4.667  53.066  1.00  0.00     0.188 HD
ENDROOT
BRANCH   5   9
HETATM    9  N4  UNL     1      25.236   5.638  49.384  1.00  0.00    -0.339 N 
HETATM   10  H9  UNL     1      24.665   5.442  48.509  1.00  0.00     0.167 HD
BRANCH   9  11
HETATM   11  C9  UNL     1      26.156   6.712  49.347  1.00  0.00     0.035 A 
HETATM   12  C10 UNL     1      26.162   7.852  50.089  1.00  0.00     0.029 A 
HETATM   13  C11 UNL     1      27.085   8.866  50.020  1.00  0.00     0.004 A 
HETATM   14  C12 UNL     1      28.123   8.754  49.119  1.00  0.00     0.019 A 
HETATM   15  C13 UNL     1      28.174   7.622  48.336  1.00  0.00     0.013 A 
HETATM   16 BR1  UNL     1      29.604   7.452  47.084  1.00  0.00    -0.051 Br
HETATM   17  C14 UNL     1      27.215   6.647  48.460  1.00  0.00     0.048 A 
ENDBRANCH   9  11
ENDBRANCH   5   9
BRANCH   1  18
HETATM   18  C5  UNL     1      25.933   1.370  51.948  1.00  0.00     0.030 C 
HETATM   19  C4  UNL     1      26.615   0.929  52.991  1.00  0.00     0.092 C 
BRANCH  19  20
HETATM   20  N1  UNL     1      27.251  -0.364  53.081  1.00  0.00    -0.334 N 
HETATM   21  C3  UNL     1      28.628  -0.204  53.393  1.00  0.00     0.244 C 
HETATM   22  O1  UNL     1      29.195   0.914  53.561  1.00  0.00    -0.268 OA
HETATM   23  H4  UNL     1      27.047  -1.374  53.001  1.00  0.00     0.168 HD
BRANCH  21  24
HETATM   24  C2  UNL     1      29.678  -1.207  53.587  1.00  0.00     0.064 C 
HETATM   25  C1  UNL     1      29.183  -2.366  53.211  1.00  0.00     0.017 C 
ENDBRANCH  21  24
ENDBRANCH  19  20
ENDBRANCH   1  18
TORSDOF 5
ENDMDL
MODEL 4
REMARK VINA RESULT:      -7.3      1.955      2.600
REMARK  5 active torsions:
REMARK  status: ('A' for Active; 'I' for Inactive)
REMARK    1  A    between atoms: C2_2  and  C3_3 
REMARK       I    between atoms: C3_3  and  N1_5 
REMARK    2  A    between atoms: N1_5  and  C4_6 
REMARK    3  A    between atoms: C5_7  and  C6_8 
REMARK    4  A    between atoms: C8_12  and  N4_13 
REMARK    5  A    between atoms: N4_13  and  C9_14 
ROOT
HETATM    1  C6  UNL     1      22.948  -0.223  53.365  1.00  0.00    -0.008 A 
HETATM    2  C7  UNL     1      22.695  -0.855  54.498  1.00  0.00     0.121 A 
HETATM    3  N2  UNL     1      21.306  -1.004  54.780  1.00  0.00    -0.287 N 
HETATM    4  N3  UNL     1      20.244  -0.556  53.991  1.00  0.00    -0.156 NA
HETATM    5  C8  UNL     1      20.488   0.053  52.896  1.00  0.00     0.155 A 
HETATM    6  C15 UNL     1      21.876   0.262  52.508  1.00  0.00     0.002 A 
HETATM    7  C16 UNL     1      22.049   0.901  51.370  1.00  0.00     0.048 C 
HETATM    8  H8  UNL     1      21.054  -1.501  55.672  1.00  0.00     0.188 HD
ENDROOT
BRANCH   5   9
HETATM    9  N4  UNL     1      19.390   0.484  52.137  1.00  0.00    -0.339 N 
HETATM   10  H9  UNL     1      19.521   1.436  51.682  1.00  0.00     0.167 HD
BRANCH   9  11
HETATM   11  C9  UNL     1      18.167  -0.192  51.915  1.00  0.00     0.035 A 
HETATM   12  C10 UNL     1      17.475  -0.997  52.764  1.00  0.00     0.029 A 
HETATM   13  C11 UNL     1      16.283  -1.628  52.502  1.00  0.00     0.004 A 
HETATM   14  C12 UNL     1      15.701  -1.452  51.264  1.00  0.00     0.019 A 
HETATM   15  C13 UNL     1      16.353  -0.646  50.357  1.00  0.00     0.013 A 
HETATM   16 BR1  UNL     1      15.560  -0.392  48.640  1.00  0.00    -0.051 Br
HETATM   17  C14 UNL     1      17.543  -0.047  50.688  1.00  0.00     0.048 A 
ENDBRANCH   9  11
ENDBRANCH   5   9
BRANCH   1  18
HETATM   18  C5  UNL     1      24.326  -0.002  52.955  1.00  0.00     0.030 C 
HETATM   19  C4  UNL     1      25.396  -0.714  53.262  1.00  0.00     0.092 C 
BRANCH  19  20
HETATM   20  N1  UNL     1      26.739  -0.432  52.815  1.00  0.00    -0.334 N 
HETATM   21  C3  UNL     1      27.593  -0.247  53.936  1.00  0.00     0.244 C 
HETATM   22  O1  UNL     1      27.213  -0.322  55.139  1.00  0.00    -0.268 OA
HETATM   23  H4  UNL     1      27.299  -0.322  51.952  1.00  0.00     0.168 HD
BRANCH  21  24
HETATM   24  C2  UNL     1      29.025   0.055  53.996  1.00  0.00     0.064 C 
HETATM   25  C1  UNL     1      29.661  -0.966  53.462  1.00  0.00     0.017 C 
ENDBRANCH  21  24
ENDBRANCH  19  20
ENDBRANCH   1  18
TORSDOF 5
ENDMDL
MODEL 5
REMARK VINA RESULT:      -7.2      2.203      2.957
REMARK  5 active torsions:
REMARK  status: ('A' for Active; 'I' for Inactive)
REMARK    1  A    between atoms: C2_2  and  C3_3 
REMARK       I    between atoms: C3_3  and  N1_5 
REMARK    2  A    between atoms: N1_5  and  C4_6 
REMARK    3  A    between atoms: C5_7  and  C6_8 
REMARK    4  A    between atoms: C8_12  and  N4_13 
REMARK    5  A    between atoms: N4_13  and  C9_14 
ROOT
HETATM    1  C6  UNL     1      24.215   2.751  52.976  1.00  0.00    -0.008 A 
HETATM    2  C7  UNL     1      23.775   3.995  52.892  1.00  0.00     0.121 A 
HETATM    3  N2  UNL     1      22.538   4.127  52.198  1.00  0.00    -0.287 N 
HETATM    4  N3  UNL     1      21.791   3.094  51.627  1.00  0.00    -0.156 NA
HETATM    5  C8  UNL     1      22.214   1.892  51.708  1.00  0.00     0.155 A 
HETATM    6  C15 UNL     1      23.472   1.641  52.397  1.00  0.00     0.002 A 
HETATM    7  C16 UNL     1      23.847   0.380  52.437  1.00  0.00     0.048 C 
HETATM    8  H8  UNL     1      22.147   5.098  52.105  1.00  0.00     0.188 HD
ENDROOT
BRANCH   5   9
HETATM    9  N4  UNL     1      21.431   0.888  51.120  1.00  0.00    -0.339 N 
HETATM   10  H9  UNL     1      21.818   0.513  50.204  1.00  0.00     0.167 HD
BRANCH   9  11
HETATM   11  C9  UNL     1      20.220   0.337  51.601  1.00  0.00     0.035 A 
HETATM   12  C10 UNL     1      19.964  -0.223  52.814  1.00  0.00     0.029 A 
HETATM   13  C11 UNL     1      18.764  -0.741  53.237  1.00  0.00     0.004 A 
HETATM   14  C12 UNL     1      17.690  -0.710  52.373  1.00  0.00     0.019 A 
HETATM   15  C13 UNL     1      17.884  -0.156  51.127  1.00  0.00     0.013 A 
HETATM   16 BR1  UNL     1      16.407  -0.106  49.920  1.00  0.00    -0.051 Br
HETATM   17  C14 UNL     1      19.113   0.344  50.772  1.00  0.00     0.048 A 
ENDBRANCH   9  11
ENDBRANCH   5   9
BRANCH   1  18
HETATM   18  C5  UNL     1      25.469   2.474  53.660  1.00  0.00     0.030 C 
HETATM   19  C4  UNL     1      26.680   2.379  53.141  1.00  0.00     0.092 C 
BRANCH  19  20
HETATM   20  N1  UNL     1      27.884   2.100  53.888  1.00  0.00    -0.334 N 
HETATM   21  C3  UNL     1      28.411   0.838  53.501  1.00  0.00     0.244 C 
HETATM   22  O1  UNL     1      27.888   0.085  52.630  1.00  0.00    -0.268 OA
HETATM   23  H4  UNL     1      28.503   2.508  54.610  1.00  0.00     0.168 HD
BRANCH  21  24
HETATM   24  C2  UNL     1      29.604   0.126  53.967  1.00  0.00     0.064 C 
HETATM   25  C1  UNL     1      29.462  -1.136  53.624  1.00  0.00     0.017 C 
ENDBRANCH  21  24
ENDBRANCH  19  20
ENDBRANCH   1  18
TORSDOF 5
ENDMDL
MODEL 6
REMARK VINA RESULT:      -7.1      5.038      7.466
REMARK  5 active torsions:
REMARK  status: ('A' for Active; 'I' for Inactive)
REMARK    1  A    between atoms: C2_2  and  C3_3 
REMARK       I    between atoms: C3_3  and  N1_5 
REMARK    2  A    between atoms: N1_5  and  C4_6 
REMARK    3  A    between atoms: C5_7  and  C6_8 
REMARK    4  A    between atoms: C8_12  and  N4_13 
REMARK    5  A    between atoms: N4_13  and  C9_14 
ROOT
HETATM    1  C6  UNL     1      24.115   1.055  52.619  1.00  0.00    -0.008 A 
HETATM    2  C7  UNL     1      22.899   0.981  53.133  1.00  0.00     0.121 A 
HETATM    3  N2  UNL     1      21.969   1.893  52.555  1.00  0.00    -0.287 N 
HETATM    4  N3  UNL     1      22.231   2.814  51.538  1.00  0.00    -0.156 NA
HETATM    5  C8  UNL     1      23.405   2.886  51.041  1.00  0.00     0.155 A 
HETATM    6  C15 UNL     1      24.436   1.998  51.558  1.00  0.00     0.002 A 
HETATM    7  C16 UNL     1      25.622   2.132  51.001  1.00  0.00     0.048 C 
HETATM    8  H8  UNL     1      20.988   1.873  52.931  1.00  0.00     0.188 HD
ENDROOT
BRANCH   5   9
HETATM    9  N4  UNL     1      23.620   3.825  50.022  1.00  0.00    -0.339 N 
HETATM   10  H9  UNL     1      23.244   3.531  49.072  1.00  0.00     0.167 HD
BRANCH   9  11
HETATM   11  C9  UNL     1      24.260   5.083  50.119  1.00  0.00     0.035 A 
HETATM   12  C10 UNL     1      23.921   6.152  50.890  1.00  0.00     0.029 A 
HETATM   13  C11 UNL     1      24.583   7.354  50.954  1.00  0.00     0.004 A 
HETATM   14  C12 UNL     1      25.704   7.533  50.173  1.00  0.00     0.019 A 
HETATM   15  C13 UNL     1      26.100   6.487  49.368  1.00  0.00     0.013 A 
HETATM   16 BR1  UNL     1      27.652   6.720  48.282  1.00  0.00    -0.051 Br
HETATM   17  C14 UNL     1      25.390   5.312  49.355  1.00  0.00     0.048 A 
ENDBRANCH   9  11
ENDBRANCH   5   9
BRANCH   1  18
HETATM   18  C5  UNL     1      25.163   0.178  53.119  1.00  0.00     0.030 C 
HETATM   19  C4  UNL     1      26.077   0.436  54.038  1.00  0.00     0.092 C 
BRANCH  19  20
HETATM   20  N1  UNL     1      27.090  -0.490  54.485  1.00  0.00    -0.334 N 
HETATM   21  C3  UNL     1      28.339  -0.162  53.890  1.00  0.00     0.244 C 
HETATM   22  O1  UNL     1      28.516   0.801  53.091  1.00  0.00    -0.268 OA
HETATM   23  H4  UNL     1      27.223  -1.313  55.096  1.00  0.00     0.168 HD
BRANCH  21  24
HETATM   24  C2  UNL     1      29.651  -0.798  54.031  1.00  0.00     0.064 C 
HETATM   25  C1  UNL     1      29.604  -1.937  53.374  1.00  0.00     0.017 C 
ENDBRANCH  21  24
ENDBRANCH  19  20
ENDBRANCH   1  18
TORSDOF 5
ENDMDL
MODEL 7
REMARK VINA RESULT:      -7.0      3.657      4.975
REMARK  5 active torsions:
REMARK  status: ('A' for Active; 'I' for Inactive)
REMARK    1  A    between atoms: C2_2  and  C3_3 
REMARK       I    between atoms: C3_3  and  N1_5 
REMARK    2  A    between atoms: N1_5  and  C4_6 
REMARK    3  A    between atoms: C5_7  and  C6_8 
REMARK    4  A    between atoms: C8_12  and  N4_13 
REMARK    5  A    between atoms: N4_13  and  C9_14 
ROOT
HETATM    1  C6  UNL     1      23.077  -0.222  53.654  1.00  0.00    -0.008 A 
HETATM    2  C7  UNL     1      22.463  -0.593  54.765  1.00  0.00     0.121 A 
HETATM    3  N2  UNL     1      21.118  -0.133  54.865  1.00  0.00    -0.287 N 
HETATM    4  N3  UNL     1      20.432   0.642  53.926  1.00  0.00    -0.156 NA
HETATM    5  C8  UNL     1      21.024   1.000  52.853  1.00  0.00     0.155 A 
HETATM    6  C15 UNL     1      22.404   0.584  52.646  1.00  0.00     0.002 A 
HETATM    7  C16 UNL     1      22.949   0.994  51.520  1.00  0.00     0.048 C 
HETATM    8  H8  UNL     1      20.588  -0.402  55.732  1.00  0.00     0.188 HD
ENDROOT
BRANCH   5   9
HETATM    9  N4  UNL     1      20.295   1.776  51.940  1.00  0.00    -0.339 N 
HETATM   10  H9  UNL     1      19.401   1.317  51.594  1.00  0.00     0.167 HD
BRANCH   9  11
HETATM   11  C9  UNL     1      20.610   3.064  51.449  1.00  0.00     0.035 A 
HETATM   12  C10 UNL     1      21.221   4.094  52.093  1.00  0.00     0.029 A 
HETATM   13  C11 UNL     1      21.512   5.330  51.567  1.00  0.00     0.004 A 
HETATM   14  C12 UNL     1      21.163   5.589  50.259  1.00  0.00     0.019 A 
HETATM   15  C13 UNL     1      20.539   4.586  49.550  1.00  0.00     0.013 A 
HETATM   16 BR1  UNL     1      20.050   4.929  47.738  1.00  0.00    -0.051 Br
HETATM   17  C14 UNL     1      20.280   3.374  50.141  1.00  0.00     0.048 A 
ENDBRANCH   9  11
ENDBRANCH   5   9
BRANCH   1  18
HETATM   18  C5  UNL     1      24.456  -0.625  53.423  1.00  0.00     0.030 C 
HETATM   19  C4  UNL     1      25.459  -0.639  54.283  1.00  0.00     0.092 C 
BRANCH  19  20
HETATM   20  N1  UNL     1      26.808  -1.054  53.979  1.00  0.00    -0.334 N 
HETATM   21  C3  UNL     1      27.718  -0.011  54.300  1.00  0.00     0.244 C 
HETATM   22  O1  UNL     1      27.377   1.108  54.780  1.00  0.00    -0.268 OA
HETATM   23  H4  UNL     1      27.345  -1.857  53.609  1.00  0.00     0.168 HD
BRANCH  21  24
HETATM   24  C2  UNL     1      29.177   0.046  54.174  1.00  0.00     0.064 C 
HETATM   25  C1  UNL     1      29.559  -1.066  53.585  1.00  0.00     0.017 C 
ENDBRANCH  21  24
ENDBRANCH  19  20
ENDBRANCH   1  18
TORSDOF 5
ENDMDL
MODEL 8
REMARK VINA RESULT:      -7.0      8.721     11.798
REMARK  5 active torsions:
REMARK  status: ('A' for Active; 'I' for Inactive)
REMARK    1  A    between atoms: C2_2  and  C3_3 
REMARK       I    between atoms: C3_3  and  N1_5 
REMARK    2  A    between atoms: N1_5  and  C4_6 
REMARK    3  A    between atoms: C5_7  and  C6_8 
REMARK    4  A    between atoms: C8_12  and  N4_13 
REMARK    5  A    between atoms: N4_13  and  C9_14 
ROOT
HETATM    1  C6  UNL     1      26.069   4.761  49.319  1.00  0.00    -0.008 A 
HETATM    2  C7  UNL     1      24.888   5.333  49.487  1.00  0.00     0.121 A 
HETATM    3  N2  UNL     1      24.816   6.667  48.994  1.00  0.00    -0.287 N 
HETATM    4  N3  UNL     1      25.846   7.384  48.378  1.00  0.00    -0.156 NA
HETATM    5  C8  UNL     1      26.985   6.833  48.216  1.00  0.00     0.155 A 
HETATM    6  C15 UNL     1      27.172   5.466  48.683  1.00  0.00     0.002 A 
HETATM    7  C16 UNL     1      28.374   4.966  48.486  1.00  0.00     0.048 C 
HETATM    8  H8  UNL     1      23.896   7.165  49.104  1.00  0.00     0.188 HD
ENDROOT
BRANCH   5   9
HETATM    9  N4  UNL     1      27.988   7.590  47.592  1.00  0.00    -0.339 N 
HETATM   10  H9  UNL     1      28.065   7.432  46.544  1.00  0.00     0.167 HD
BRANCH   9  11
HETATM   11  C9  UNL     1      28.876   8.515  48.189  1.00  0.00     0.035 A 
HETATM   12  C10 UNL     1      30.094   8.284  48.749  1.00  0.00     0.029 A 
HETATM   13  C11 UNL     1      30.925   9.222  49.312  1.00  0.00     0.004 A 
HETATM   14  C12 UNL     1      30.518  10.539  49.331  1.00  0.00     0.019 A 
HETATM   15  C13 UNL     1      29.291  10.839  48.780  1.00  0.00     0.013 A 
HETATM   16 BR1  UNL     1      28.713  12.658  48.799  1.00  0.00    -0.051 Br
HETATM   17  C14 UNL     1      28.513   9.849  48.233  1.00  0.00     0.048 A 
ENDBRANCH   9  11
ENDBRANCH   5   9
BRANCH   1  18
HETATM   18  C5  UNL     1      26.281   3.397  49.777  1.00  0.00     0.030 C 
HETATM   19  C4  UNL     1      26.078   2.897  50.984  1.00  0.00     0.092 C 
BRANCH  19  20
HETATM   20  N1  UNL     1      26.313   1.525  51.366  1.00  0.00    -0.334 N 
HETATM   21  C3  UNL     1      27.360   1.463  52.325  1.00  0.00     0.244 C 
HETATM   22  O1  UNL     1      27.982   2.471  52.766  1.00  0.00    -0.268 OA
HETATM   23  H4  UNL     1      25.975   0.564  51.183  1.00  0.00     0.168 HD
BRANCH  21  24
HETATM   24  C2  UNL     1      27.952   0.309  53.006  1.00  0.00     0.064 C 
HETATM   25  C1  UNL     1      27.199  -0.734  52.732  1.00  0.00     0.017 C 
ENDBRANCH  21  24
ENDBRANCH  19  20
ENDBRANCH   1  18
TORSDOF 5
ENDMDL
MODEL 9
REMARK VINA RESULT:      -7.0      6.134      7.884
REMARK  5 active torsions:
REMARK  status: ('A' for Active; 'I' for Inactive)
REMARK    1  A    between atoms: C2_2  and  C3_3 
REMARK       I    between atoms: C3_3  and  N1_5 
REMARK    2  A    between atoms: N1_5  and  C4_6 
REMARK    3  A    between atoms: C5_7  and  C6_8 
REMARK    4  A    between atoms: C8_12  and  N4_13 
REMARK    5  A    between atoms: N4_13  and  C9_14 
ROOT
HETATM    1  C6  UNL     1      25.172   5.771  50.190  1.00  0.00    -0.008 A 
HETATM    2  C7  UNL     1      24.483   6.590  50.966  1.00  0.00     0.121 A 
HETATM    3  N2  UNL     1      23.467   5.945  51.729  1.00  0.00    -0.287 N 
HETATM    4  N3  UNL     1      23.158   4.583  51.721  1.00  0.00    -0.156 NA
HETATM    5  C8  UNL     1      23.824   3.792  50.972  1.00  0.00     0.155 A 
HETATM    6  C15 UNL     1      24.889   4.344  50.146  1.00  0.00     0.002 A 
HETATM    7  C16 UNL     1      25.527   3.470  49.397  1.00  0.00     0.048 C 
HETATM    8  H8  UNL     1      22.891   6.555  52.363  1.00  0.00     0.188 HD
ENDROOT
BRANCH   5   9
HETATM    9  N4  UNL     1      23.478   2.433  50.997  1.00  0.00    -0.339 N 
HETATM   10  H9  UNL     1      22.828   2.134  50.210  1.00  0.00     0.167 HD
BRANCH   9  11
HETATM   11  C9  UNL     1      23.891   1.447  51.924  1.00  0.00     0.035 A 
HETATM   12  C10 UNL     1      25.150   1.010  52.195  1.00  0.00     0.029 A 
HETATM   13  C11 UNL     1      25.500   0.051  53.114  1.00  0.00     0.004 A 
HETATM   14  C12 UNL     1      24.504  -0.552  53.852  1.00  0.00     0.019 A 
HETATM   15  C13 UNL     1      23.205  -0.154  53.623  1.00  0.00     0.013 A 
HETATM   16 BR1  UNL     1      21.815  -0.979  54.637  1.00  0.00    -0.051 Br
HETATM   17  C14 UNL     1      22.928   0.813  52.688  1.00  0.00     0.048 A 
ENDBRANCH   9  11
ENDBRANCH   5   9
BRANCH   1  18
HETATM   18  C5  UNL     1      26.242   6.298  49.355  1.00  0.00     0.030 C 
HETATM   19  C4  UNL     1      26.553   7.562  49.125  1.00  0.00     0.092 C 
BRANCH  19  20
HETATM   20  N1  UNL     1      27.634   8.010  48.280  1.00  0.00    -0.334 N 
HETATM   21  C3  UNL     1      28.397   9.000  48.957  1.00  0.00     0.244 C 
HETATM   22  O1  UNL     1      28.148   9.414  50.126  1.00  0.00    -0.268 OA
HETATM   23  H4  UNL     1      28.051   7.855  47.346  1.00  0.00     0.168 HD
BRANCH  21  24
HETATM   24  C2  UNL     1      29.579   9.748  48.521  1.00  0.00     0.064 C 
HETATM   25  C1  UNL     1      30.467   9.669  49.489  1.00  0.00     0.017 C 
ENDBRANCH  21  24
ENDBRANCH  19  20
ENDBRANCH   1  18
TORSDOF 5
ENDMDL
