MODEL 1
REMARK VINA RESULT:      -8.2      0.000      0.000
REMARK  2 active torsions:
REMARK  status: ('A' for Active; 'I' for Inactive)
REMARK    1  A    between atoms: C4_4  and  C5_5 
REMARK    2  A    between atoms: C11_16  and  N4_17 
ROOT
HETATM    1  C5  UNL     1      25.932   0.186  53.696  1.00  0.00     0.136 A 
HETATM    2  C6  UNL     1      24.904   0.428  52.662  1.00  0.00     0.028 A 
HETATM    3  C7  UNL     1      25.375   1.150  51.626  1.00  0.00     0.148 C 
HETATM    4  O1  UNL     1      26.731   1.521  51.755  1.00  0.00    -0.346 OA
HETATM    5  C8  UNL     1      27.037   2.177  52.977  1.00  0.00     0.302 C 
HETATM    6  N1  UNL     1      26.427   1.482  54.106  1.00  0.00    -0.106 NA
HETATM    7  F1  UNL     1      25.440   2.248  54.610  1.00  0.00    -0.130 F 
HETATM    8  C9  UNL     1      23.907  -0.270  53.423  1.00  0.00     0.082 A 
HETATM    9  N2  UNL     1      22.618  -0.697  53.490  1.00  0.00    -0.241 NA
HETATM   10  C10 UNL     1      22.212  -1.307  54.634  1.00  0.00     0.235 A 
HETATM   11  N3  UNL     1      23.080  -1.467  55.637  1.00  0.00    -0.224 NA
HETATM   12  C11 UNL     1      24.354  -1.051  55.577  1.00  0.00     0.134 A 
HETATM   13  C12 UNL     1      24.843  -0.424  54.454  1.00  0.00     0.052 A 
ENDROOT
BRANCH   1  14
HETATM   14  C4  UNL     1      27.011  -0.776  53.320  1.00  0.00    -0.026 A 
HETATM   15  C3  UNL     1      28.265  -0.406  54.012  1.00  0.00     0.012 A 
HETATM   16  C2  UNL     1      29.229  -1.276  53.685  1.00  0.00    -0.080 A 
HETATM   17  C1  UNL     1      30.663  -1.525  53.976  1.00  0.00     0.043 C 
HETATM   18  C14 UNL     1      28.689  -2.295  52.746  1.00  0.00     0.061 A 
HETATM   19  C13 UNL     1      27.280  -1.854  52.608  1.00  0.00    -0.013 A 
ENDBRANCH   1  14
BRANCH  12  20
HETATM   20  N4  UNL     1      25.109  -1.312  56.749  1.00  0.00    -0.383 N 
HETATM   21  H9  UNL     1      25.000  -1.252  57.784  1.00  0.00     0.157 HD
HETATM   22  H10 UNL     1      26.069  -1.680  56.489  1.00  0.00     0.157 HD
ENDBRANCH  12  20
TORSDOF 2
ENDMDL
MODEL 2
REMARK VINA RESULT:      -7.8      2.447      4.755
REMARK  2 active torsions:
REMARK  status: ('A' for Active; 'I' for Inactive)
REMARK    1  A    between atoms: C4_4  and  C5_5 
REMARK    2  A    between atoms: C11_16  and  N4_17 
ROOT
HETATM    1  C5  UNL     1      24.987   1.184  52.394  1.00  0.00     0.136 A 
HETATM    2  C6  UNL     1      25.367   2.170  53.426  1.00  0.00     0.028 A 
HETATM    3  C7  UNL     1      24.671   3.318  53.325  1.00  0.00     0.148 C 
HETATM    4  O1  UNL     1      23.743   3.333  52.261  1.00  0.00    -0.346 OA
HETATM    5  C8  UNL     1      24.304   2.997  51.000  1.00  0.00     0.302 C 
HETATM    6  N1  UNL     1      25.169   1.828  51.111  1.00  0.00    -0.106 NA
HETATM    7  F1  UNL     1      26.449   2.211  50.932  1.00  0.00    -0.130 F 
HETATM    8  C9  UNL     1      26.360   1.286  53.971  1.00  0.00     0.082 A 
HETATM    9  N2  UNL     1      27.316   1.094  54.918  1.00  0.00    -0.241 NA
HETATM   10  C10 UNL     1      28.048  -0.049  54.856  1.00  0.00     0.235 A 
HETATM   11  N3  UNL     1      27.805  -0.932  53.882  1.00  0.00    -0.224 NA
HETATM   12  C11 UNL     1      26.863  -0.750  52.946  1.00  0.00     0.134 A 
HETATM   13  C12 UNL     1      26.078   0.381  52.940  1.00  0.00     0.052 A 
ENDROOT
BRANCH   1  14
HETATM   14  C4  UNL     1      23.642   0.557  52.564  1.00  0.00    -0.026 A 
HETATM   15  C3  UNL     1      23.644  -0.295  53.773  1.00  0.00     0.012 A 
HETATM   16  C2  UNL     1      22.435  -0.847  53.932  1.00  0.00    -0.080 A 
HETATM   17  C1  UNL     1      21.732  -1.762  54.867  1.00  0.00     0.043 C 
HETATM   18  C14 UNL     1      21.532  -0.405  52.838  1.00  0.00     0.061 A 
HETATM   19  C13 UNL     1      22.429   0.477  52.052  1.00  0.00    -0.013 A 
ENDBRANCH   1  14
BRANCH  12  20
HETATM   20  N4  UNL     1      26.767  -1.803  52.001  1.00  0.00    -0.383 N 
HETATM   21  H9  UNL     1      27.378  -2.532  51.572  1.00  0.00     0.157 HD
HETATM   22  H10 UNL     1      25.778  -1.865  51.622  1.00  0.00     0.157 HD
ENDBRANCH  12  20
TORSDOF 2
ENDMDL
MODEL 3
REMARK VINA RESULT:      -7.5      2.436      5.329
REMARK  2 active torsions:
REMARK  status: ('A' for Active; 'I' for Inactive)
REMARK    1  A    between atoms: C4_4  and  C5_5 
REMARK    2  A    between atoms: C11_16  and  N4_17 
ROOT
HETATM    1  C5  UNL     1      25.633   1.354  53.067  1.00  0.00     0.136 A 
HETATM    2  C6  UNL     1      26.649   0.843  52.124  1.00  0.00     0.028 A 
HETATM    3  C7  UNL     1      27.258  -0.270  52.575  1.00  0.00     0.148 C 
HETATM    4  O1  UNL     1      26.804  -0.698  53.842  1.00  0.00    -0.346 OA
HETATM    5  C8  UNL     1      26.842   0.310  54.841  1.00  0.00     0.302 C 
HETATM    6  N1  UNL     1      26.304   1.566  54.331  1.00  0.00    -0.106 NA
HETATM    7  F1  UNL     1      27.308   2.457  54.210  1.00  0.00    -0.130 F 
HETATM    8  C9  UNL     1      26.410   1.924  51.209  1.00  0.00     0.082 A 
HETATM    9  N2  UNL     1      26.732   2.501  50.021  1.00  0.00    -0.241 NA
HETATM   10  C10 UNL     1      26.149   3.690  49.716  1.00  0.00     0.235 A 
HETATM   11  N3  UNL     1      25.292   4.241  50.581  1.00  0.00    -0.224 NA
HETATM   12  C11 UNL     1      24.969   3.677  51.753  1.00  0.00     0.134 A 
HETATM   13  C12 UNL     1      25.515   2.472  52.135  1.00  0.00     0.052 A 
ENDROOT
BRANCH   1  14
HETATM   14  C4  UNL     1      24.387   0.537  53.179  1.00  0.00    -0.026 A 
HETATM   15  C3  UNL     1      23.401   1.002  52.180  1.00  0.00     0.012 A 
HETATM   16  C2  UNL     1      22.288   0.263  52.273  1.00  0.00    -0.080 A 
HETATM   17  C1  UNL     1      20.953   0.156  51.632  1.00  0.00     0.043 C 
HETATM   18  C14 UNL     1      22.449  -0.755  53.345  1.00  0.00     0.061 A 
HETATM   19  C13 UNL     1      23.821  -0.463  53.826  1.00  0.00    -0.013 A 
ENDBRANCH   1  14
BRANCH  12  20
HETATM   20  N4  UNL     1      24.044   4.425  52.526  1.00  0.00    -0.383 N 
HETATM   21  H9  UNL     1      23.993   5.343  53.019  1.00  0.00     0.157 HD
HETATM   22  H10 UNL     1      23.136   3.887  52.629  1.00  0.00     0.157 HD
ENDBRANCH  12  20
TORSDOF 2
ENDMDL
MODEL 4
REMARK VINA RESULT:      -7.2      3.856      6.627
REMARK  2 active torsions:
REMARK  status: ('A' for Active; 'I' for Inactive)
REMARK    1  A    between atoms: C4_4  and  C5_5 
REMARK    2  A    between atoms: C11_16  and  N4_17 
ROOT
HETATM    1  C5  UNL     1      23.373   2.838  51.343  1.00  0.00     0.136 A 
HETATM    2  C6  UNL     1      23.245   1.683  52.256  1.00  0.00     0.028 A 
HETATM    3  C7  UNL     1      21.973   1.475  52.648  1.00  0.00     0.148 C 
HETATM    4  O1  UNL     1      21.050   2.399  52.113  1.00  0.00    -0.346 OA
HETATM    5  C8  UNL     1      21.403   3.758  52.327  1.00  0.00     0.302 C 
HETATM    6  N1  UNL     1      22.814   3.980  52.031  1.00  0.00    -0.106 NA
HETATM    7  F1  UNL     1      23.470   4.229  53.182  1.00  0.00    -0.130 F 
HETATM    8  C9  UNL     1      24.660   1.443  52.226  1.00  0.00     0.082 A 
HETATM    9  N2  UNL     1      25.693   0.670  52.657  1.00  0.00    -0.241 NA
HETATM   10  C10 UNL     1      26.951   1.041  52.303  1.00  0.00     0.235 A 
HETATM   11  N3  UNL     1      27.127   2.134  51.554  1.00  0.00    -0.224 NA
HETATM   12  C11 UNL     1      26.114   2.899  51.124  1.00  0.00     0.134 A 
HETATM   13  C12 UNL     1      24.810   2.591  51.438  1.00  0.00     0.052 A 
ENDROOT
BRANCH   1  14
HETATM   14  C4  UNL     1      22.824   2.638  49.968  1.00  0.00    -0.026 A 
HETATM   15  C3  UNL     1      22.885   3.914  49.223  1.00  0.00     0.012 A 
HETATM   16  C2  UNL     1      22.403   3.733  47.987  1.00  0.00    -0.080 A 
HETATM   17  C1  UNL     1      22.164   4.515  46.748  1.00  0.00     0.043 C 
HETATM   18  C14 UNL     1      21.982   2.318  47.814  1.00  0.00     0.061 A 
HETATM   19  C13 UNL     1      22.307   1.748  49.144  1.00  0.00    -0.013 A 
ENDBRANCH   1  14
BRANCH  12  20
HETATM   20  N4  UNL     1      26.514   4.015  50.346  1.00  0.00    -0.383 N 
HETATM   21  H9  UNL     1      26.093   4.871  49.924  1.00  0.00     0.157 HD
HETATM   22  H10 UNL     1      27.553   3.959  50.135  1.00  0.00     0.157 HD
ENDBRANCH  12  20
TORSDOF 2
ENDMDL
MODEL 5
REMARK VINA RESULT:      -7.0      4.123      6.197
REMARK  2 active torsions:
REMARK  status: ('A' for Active; 'I' for Inactive)
REMARK    1  A    between atoms: C4_4  and  C5_5 
REMARK    2  A    between atoms: C11_16  and  N4_17 
ROOT
HETATM    1  C5  UNL     1      24.081   3.217  51.124  1.00  0.00     0.136 A 
HETATM    2  C6  UNL     1      23.037   4.144  51.605  1.00  0.00     0.028 A 
HETATM    3  C7  UNL     1      21.975   3.500  52.126  1.00  0.00     0.148 C 
HETATM    4  O1  UNL     1      22.086   2.092  52.093  1.00  0.00    -0.346 OA
HETATM    5  C8  UNL     1      22.386   1.566  50.808  1.00  0.00     0.302 C 
HETATM    6  N1  UNL     1      23.450   2.332  50.169  1.00  0.00    -0.106 NA
HETATM    7  F1  UNL     1      22.933   3.020  49.131  1.00  0.00    -0.130 F 
HETATM    8  C9  UNL     1      23.793   5.289  51.182  1.00  0.00     0.082 A 
HETATM    9  N2  UNL     1      23.857   6.645  51.103  1.00  0.00    -0.241 NA
HETATM   10  C10 UNL     1      24.914   7.192  50.447  1.00  0.00     0.235 A 
HETATM   11  N3  UNL     1      25.839   6.390  49.912  1.00  0.00    -0.224 NA
HETATM   12  C11 UNL     1      25.784   5.053  49.987  1.00  0.00     0.134 A 
HETATM   13  C12 UNL     1      24.747   4.422  50.636  1.00  0.00     0.052 A 
ENDROOT
BRANCH   1  14
HETATM   14  C4  UNL     1      24.848   2.501  52.187  1.00  0.00    -0.026 A 
HETATM   15  C3  UNL     1      25.647   1.417  51.574  1.00  0.00     0.012 A 
HETATM   16  C2  UNL     1      26.343   0.782  52.526  1.00  0.00    -0.080 A 
HETATM   17  C1  UNL     1      27.304  -0.342  52.654  1.00  0.00     0.043 C 
HETATM   18  C14 UNL     1      26.060   1.396  53.850  1.00  0.00     0.061 A 
HETATM   19  C13 UNL     1      25.103   2.467  53.481  1.00  0.00    -0.013 A 
ENDBRANCH   1  14
BRANCH  12  20
HETATM   20  N4  UNL     1      26.862   4.387  49.351  1.00  0.00    -0.383 N 
HETATM   21  H9  UNL     1      27.658   4.609  48.714  1.00  0.00     0.157 HD
HETATM   22  H10 UNL     1      26.852   3.356  49.601  1.00  0.00     0.157 HD
ENDBRANCH  12  20
TORSDOF 2
ENDMDL
MODEL 6
REMARK VINA RESULT:      -6.6      4.087      6.872
REMARK  2 active torsions:
REMARK  status: ('A' for Active; 'I' for Inactive)
REMARK    1  A    between atoms: C4_4  and  C5_5 
REMARK    2  A    between atoms: C11_16  and  N4_17 
ROOT
HETATM    1  C5  UNL     1      23.762   3.036  51.610  1.00  0.00     0.136 A 
HETATM    2  C6  UNL     1      25.139   3.055  51.076  1.00  0.00     0.028 A 
HETATM    3  C7  UNL     1      25.776   1.881  51.247  1.00  0.00     0.148 C 
HETATM    4  O1  UNL     1      24.999   0.898  51.899  1.00  0.00    -0.346 OA
HETATM    5  C8  UNL     1      24.441   1.327  53.132  1.00  0.00     0.302 C 
HETATM    6  N1  UNL     1      23.858   2.658  53.003  1.00  0.00    -0.106 NA
HETATM    7  F1  UNL     1      24.608   3.535  53.699  1.00  0.00    -0.130 F 
HETATM    8  C9  UNL     1      25.015   4.429  50.677  1.00  0.00     0.082 A 
HETATM    9  N2  UNL     1      25.610   5.503  50.091  1.00  0.00    -0.241 NA
HETATM   10  C10 UNL     1      24.926   6.677  50.081  1.00  0.00     0.235 A 
HETATM   11  N3  UNL     1      23.712   6.735  50.636  1.00  0.00    -0.224 NA
HETATM   12  C11 UNL     1      23.119   5.680  51.213  1.00  0.00     0.134 A 
HETATM   13  C12 UNL     1      23.744   4.455  51.264  1.00  0.00     0.052 A 
ENDROOT
BRANCH   1  14
HETATM   14  C4  UNL     1      22.780   2.220  50.834  1.00  0.00    -0.026 A 
HETATM   15  C3  UNL     1      21.638   1.865  51.703  1.00  0.00     0.012 A 
HETATM   16  C2  UNL     1      20.752   1.143  51.005  1.00  0.00    -0.080 A 
HETATM   17  C1  UNL     1      19.441   0.476  51.203  1.00  0.00     0.043 C 
HETATM   18  C14 UNL     1      21.239   0.961  49.612  1.00  0.00     0.061 A 
HETATM   19  C13 UNL     1      22.527   1.694  49.651  1.00  0.00    -0.013 A 
ENDBRANCH   1  14
BRANCH  12  20
HETATM   20  N4  UNL     1      21.833   5.952  51.746  1.00  0.00    -0.383 N 
HETATM   21  H9  UNL     1      21.390   6.586  52.446  1.00  0.00     0.157 HD
HETATM   22  H10 UNL     1      21.110   5.322  51.292  1.00  0.00     0.157 HD
ENDBRANCH  12  20
TORSDOF 2
ENDMDL
MODEL 7
REMARK VINA RESULT:      -6.6      9.813     12.152
REMARK  2 active torsions:
REMARK  status: ('A' for Active; 'I' for Inactive)
REMARK    1  A    between atoms: C4_4  and  C5_5 
REMARK    2  A    between atoms: C11_16  and  N4_17 
ROOT
HETATM    1  C5  UNL     1      31.255   7.210  47.495  1.00  0.00     0.136 A 
HETATM    2  C6  UNL     1      32.484   6.398  47.617  1.00  0.00     0.028 A 
HETATM    3  C7  UNL     1      32.811   6.147  48.899  1.00  0.00     0.148 C 
HETATM    4  O1  UNL     1      31.923   6.715  49.839  1.00  0.00    -0.346 OA
HETATM    5  C8  UNL     1      31.706   8.107  49.661  1.00  0.00     0.302 C 
HETATM    6  N1  UNL     1      31.477   8.421  48.255  1.00  0.00    -0.106 NA
HETATM    7  F1  UNL     1      32.533   9.111  47.781  1.00  0.00    -0.130 F 
HETATM    8  C9  UNL     1      32.657   6.362  46.192  1.00  0.00     0.082 A 
HETATM    9  N2  UNL     1      33.407   5.920  45.148  1.00  0.00    -0.241 NA
HETATM   10  C10 UNL     1      33.061   6.333  43.900  1.00  0.00     0.235 A 
HETATM   11  N3  UNL     1      32.012   7.146  43.746  1.00  0.00    -0.224 NA
HETATM   12  C11 UNL     1      31.267   7.585  44.771  1.00  0.00     0.134 A 
HETATM   13  C12 UNL     1      31.551   7.211  46.065  1.00  0.00     0.052 A 
ENDROOT
BRANCH   1  14
HETATM   14  C4  UNL     1      29.982   6.510  47.840  1.00  0.00    -0.026 A 
HETATM   15  C3  UNL     1      28.850   7.452  47.708  1.00  0.00     0.012 A 
HETATM   16  C2  UNL     1      27.707   6.822  48.007  1.00  0.00    -0.080 A 
HETATM   17  C1  UNL     1      26.252   7.111  48.089  1.00  0.00     0.043 C 
HETATM   18  C14 UNL     1      27.991   5.407  48.362  1.00  0.00     0.061 A 
HETATM   19  C13 UNL     1      29.465   5.354  48.212  1.00  0.00    -0.013 A 
ENDBRANCH   1  14
BRANCH  12  20
HETATM   20  N4  UNL     1      30.202   8.442  44.394  1.00  0.00    -0.383 N 
HETATM   21  H9  UNL     1      29.410   8.460  43.715  1.00  0.00     0.157 HD
HETATM   22  H10 UNL     1      30.218   9.325  44.982  1.00  0.00     0.157 HD
ENDBRANCH  12  20
TORSDOF 2
ENDMDL
MODEL 8
REMARK VINA RESULT:      -6.6      9.449     11.014
REMARK  2 active torsions:
REMARK  status: ('A' for Active; 'I' for Inactive)
REMARK    1  A    between atoms: C4_4  and  C5_5 
REMARK    2  A    between atoms: C11_16  and  N4_17 
ROOT
HETATM    1  C5  UNL     1      31.607   6.961  47.691  1.00  0.00     0.136 A 
HETATM    2  C6  UNL     1      31.576   8.271  47.008  1.00  0.00     0.028 A 
HETATM    3  C7  UNL     1      32.807   8.778  46.807  1.00  0.00     0.148 C 
HETATM    4  O1  UNL     1      33.850   7.960  47.295  1.00  0.00    -0.346 OA
HETATM    5  C8  UNL     1      33.701   7.583  48.656  1.00  0.00     0.302 C 
HETATM    6  N1  UNL     1      32.334   7.151  48.927  1.00  0.00    -0.106 NA
HETATM    7  F1  UNL     1      31.733   8.064  49.714  1.00  0.00    -0.130 F 
HETATM    8  C9  UNL     1      30.140   8.270  46.973  1.00  0.00     0.082 A 
HETATM    9  N2  UNL     1      29.011   8.926  46.595  1.00  0.00    -0.241 NA
HETATM   10  C10 UNL     1      27.816   8.389  46.956  1.00  0.00     0.235 A 
HETATM   11  N3  UNL     1      27.793   7.251  47.657  1.00  0.00    -0.224 NA
HETATM   12  C11 UNL     1      28.903   6.598  48.031  1.00  0.00     0.134 A 
HETATM   13  C12 UNL     1      30.151   7.076  47.704  1.00  0.00     0.052 A 
ENDROOT
BRANCH   1  14
HETATM   14  C4  UNL     1      32.108   5.818  46.870  1.00  0.00    -0.026 A 
HETATM   15  C3  UNL     1      32.026   4.571  47.661  1.00  0.00     0.012 A 
HETATM   16  C2  UNL     1      32.465   3.544  46.922  1.00  0.00    -0.080 A 
HETATM   17  C1  UNL     1      32.663   2.077  47.041  1.00  0.00     0.043 C 
HETATM   18  C14 UNL     1      32.873   4.030  45.578  1.00  0.00     0.061 A 
HETATM   19  C13 UNL     1      32.592   5.481  45.690  1.00  0.00    -0.013 A 
ENDBRANCH   1  14
BRANCH  12  20
HETATM   20  N4  UNL     1      28.661   5.413  48.771  1.00  0.00    -0.383 N 
HETATM   21  H9  UNL     1      27.913   4.695  48.885  1.00  0.00     0.157 HD
HETATM   22  H10 UNL     1      29.493   5.195  49.393  1.00  0.00     0.157 HD
ENDBRANCH  12  20
TORSDOF 2
ENDMDL
MODEL 9
REMARK VINA RESULT:      -6.6      4.215      6.586
REMARK  2 active torsions:
REMARK  status: ('A' for Active; 'I' for Inactive)
REMARK    1  A    between atoms: C4_4  and  C5_5 
REMARK    2  A    between atoms: C11_16  and  N4_17 
ROOT
HETATM    1  C5  UNL     1      21.509   1.857  51.429  1.00  0.00     0.136 A 
HETATM    2  C6  UNL     1      21.083   0.489  51.791  1.00  0.00     0.028 A 
HETATM    3  C7  UNL     1      19.831   0.213  51.380  1.00  0.00     0.148 C 
HETATM    4  O1  UNL     1      19.200   1.282  50.707  1.00  0.00    -0.346 OA
HETATM    5  C8  UNL     1      19.211   2.506  51.428  1.00  0.00     0.302 C 
HETATM    6  N1  UNL     1      20.531   2.762  51.993  1.00  0.00    -0.106 NA
HETATM    7  F1  UNL     1      20.466   2.641  53.333  1.00  0.00    -0.130 F 
HETATM    8  C9  UNL     1      22.332   0.225  52.450  1.00  0.00     0.082 A 
HETATM    9  N2  UNL     1      23.088  -0.672  53.137  1.00  0.00    -0.241 NA
HETATM   10  C10 UNL     1      24.289  -0.252  53.615  1.00  0.00     0.235 A 
HETATM   11  N3  UNL     1      24.679   1.008  53.395  1.00  0.00    -0.224 NA
HETATM   12  C11 UNL     1      23.939   1.896  52.717  1.00  0.00     0.134 A 
HETATM   13  C12 UNL     1      22.711   1.549  52.199  1.00  0.00     0.052 A 
ENDROOT
BRANCH   1  14
HETATM   14  C4  UNL     1      21.773   2.088  49.977  1.00  0.00    -0.026 A 
HETATM   15  C3  UNL     1      22.043   3.524  49.748  1.00  0.00     0.012 A 
HETATM   16  C2  UNL     1      22.291   3.730  48.448  1.00  0.00    -0.080 A 
HETATM   17  C1  UNL     1      22.623   4.850  47.531  1.00  0.00     0.043 C 
HETATM   18  C14 UNL     1      22.205   2.443  47.710  1.00  0.00     0.061 A 
HETATM   19  C13 UNL     1      21.872   1.497  48.803  1.00  0.00    -0.013 A 
ENDBRANCH   1  14
BRANCH  12  20
HETATM   20  N4  UNL     1      24.531   3.179  52.597  1.00  0.00    -0.383 N 
HETATM   21  H9  UNL     1      25.173   3.692  51.955  1.00  0.00     0.157 HD
HETATM   22  H10 UNL     1      24.226   3.798  53.403  1.00  0.00     0.157 HD
ENDBRANCH  12  20
TORSDOF 2
ENDMDL
