MODEL 1
REMARK VINA RESULT:      -8.2      0.000      0.000
REMARK  3 active torsions:
REMARK  status: ('A' for Active; 'I' for Inactive)
REMARK    1  A    between atoms: O1_2  and  C2_3 
REMARK    2  A    between atoms: C5_6  and  C6_7 
REMARK    3  A    between atoms: C8_9  and  C9_10 
ROOT
HETATM    1  C6  UNL     1      23.352   1.059  52.038  1.00  0.00     0.160 C 
HETATM    2  C7  UNL     1      24.363   0.350  52.911  1.00  0.00     0.094 C 
HETATM    3  C8  UNL     1      25.424   1.396  53.054  1.00  0.00     0.067 C 
HETATM    4  N1  UNL     1      24.920   2.529  52.710  1.00  0.00    -0.166 NA
HETATM    5  N2  UNL     1      23.590   2.449  52.321  1.00  0.00    -0.195 N 
HETATM    6  C15 UNL     1      22.781   3.591  52.269  1.00  0.00     0.202 C 
HETATM    7  N3  UNL     1      22.111   4.533  52.247  1.00  0.00    -0.170 NA
ENDROOT
BRANCH   1   8
HETATM    8  C5  UNL     1      21.980   0.613  52.272  1.00  0.00    -0.032 A 
HETATM    9  C4  UNL     1      20.993   0.551  51.325  1.00  0.00     0.012 A 
HETATM   10  C3  UNL     1      19.696   0.133  51.541  1.00  0.00     0.037 A 
HETATM   11  C2  UNL     1      19.347  -0.264  52.829  1.00  0.00     0.068 A 
HETATM   12  C17 UNL     1      20.299  -0.224  53.826  1.00  0.00     0.037 A 
HETATM   13  C16 UNL     1      21.599   0.211  53.544  1.00  0.00     0.012 A 
BRANCH  11  14
HETATM   14  O1  UNL     1      18.063  -0.696  53.124  1.00  0.00    -0.356 OA
HETATM   15  C1  UNL     1      17.823  -2.051  53.466  1.00  0.00     0.210 C 
ENDBRANCH  11  14
ENDBRANCH   1   8
BRANCH   3  16
HETATM   16  C9  UNL     1      26.825   1.208  53.511  1.00  0.00    -0.003 A 
HETATM   17  C10 UNL     1      27.555   2.301  53.508  1.00  0.00     0.013 A 
HETATM   18  C11 UNL     1      28.943   2.234  53.937  1.00  0.00     0.025 A 
HETATM   19  C12 UNL     1      29.343   1.037  54.299  1.00  0.00     0.135 A 
HETATM   20  O2  UNL     1      28.602  -0.124  54.313  1.00  0.00    -0.353 OA
HETATM   21  C13 UNL     1      27.260  -0.125  53.912  1.00  0.00     0.158 A 
HETATM   22  C14 UNL     1      27.088  -1.157  52.819  1.00  0.00     0.045 C 
ENDBRANCH   3  16
TORSDOF 3
ENDMDL
MODEL 2
REMARK VINA RESULT:      -7.9      2.274      2.754
REMARK  3 active torsions:
REMARK  status: ('A' for Active; 'I' for Inactive)
REMARK    1  A    between atoms: O1_2  and  C2_3 
REMARK    2  A    between atoms: C5_6  and  C6_7 
REMARK    3  A    between atoms: C8_9  and  C9_10 
ROOT
HETATM    1  C6  UNL     1      23.111   0.918  53.328  1.00  0.00     0.160 C 
HETATM    2  C7  UNL     1      24.438   0.982  52.607  1.00  0.00     0.094 C 
HETATM    3  C8  UNL     1      25.312   0.169  53.510  1.00  0.00     0.067 C 
HETATM    4  N1  UNL     1      24.553  -0.519  54.289  1.00  0.00    -0.166 NA
HETATM    5  N2  UNL     1      23.199  -0.311  54.071  1.00  0.00    -0.195 N 
HETATM    6  C15 UNL     1      22.241  -1.214  54.546  1.00  0.00     0.202 C 
HETATM    7  N3  UNL     1      21.454  -1.974  54.924  1.00  0.00    -0.170 NA
ENDROOT
BRANCH   1   8
HETATM    8  C5  UNL     1      21.964   1.007  52.426  1.00  0.00    -0.032 A 
HETATM    9  C4  UNL     1      21.916   0.511  51.151  1.00  0.00     0.012 A 
HETATM   10  C3  UNL     1      20.837   0.595  50.295  1.00  0.00     0.037 A 
HETATM   11  C2  UNL     1      19.690   1.235  50.757  1.00  0.00     0.068 A 
HETATM   12  C17 UNL     1      19.677   1.755  52.034  1.00  0.00     0.037 A 
HETATM   13  C16 UNL     1      20.805   1.639  52.854  1.00  0.00     0.012 A 
BRANCH  11  14
HETATM   14  O1  UNL     1      18.565   1.359  49.956  1.00  0.00    -0.356 OA
HETATM   15  C1  UNL     1      17.489   0.444  50.082  1.00  0.00     0.210 C 
ENDBRANCH  11  14
ENDBRANCH   1   8
BRANCH   3  16
HETATM   16  C9  UNL     1      26.797   0.128  53.537  1.00  0.00    -0.003 A 
HETATM   17  C10 UNL     1      27.378   1.306  53.568  1.00  0.00     0.013 A 
HETATM   18  C11 UNL     1      28.830   1.385  53.597  1.00  0.00     0.025 A 
HETATM   19  C12 UNL     1      29.439   0.221  53.591  1.00  0.00     0.135 A 
HETATM   20  O2  UNL     1      28.856  -1.027  53.559  1.00  0.00    -0.353 OA
HETATM   21  C13 UNL     1      27.463  -1.170  53.530  1.00  0.00     0.158 A 
HETATM   22  C14 UNL     1      27.094  -2.018  52.333  1.00  0.00     0.045 C 
ENDBRANCH   3  16
TORSDOF 3
ENDMDL
MODEL 3
REMARK VINA RESULT:      -7.9      3.622      7.205
REMARK  3 active torsions:
REMARK  status: ('A' for Active; 'I' for Inactive)
REMARK    1  A    between atoms: O1_2  and  C2_3 
REMARK    2  A    between atoms: C5_6  and  C6_7 
REMARK    3  A    between atoms: C8_9  and  C9_10 
ROOT
HETATM    1  C6  UNL     1      25.166   2.252  50.790  1.00  0.00     0.160 C 
HETATM    2  C7  UNL     1      23.729   2.162  51.255  1.00  0.00     0.094 C 
HETATM    3  C8  UNL     1      23.825   1.129  52.334  1.00  0.00     0.067 C 
HETATM    4  N1  UNL     1      25.063   1.008  52.663  1.00  0.00    -0.166 NA
HETATM    5  N2  UNL     1      25.913   1.838  51.947  1.00  0.00    -0.195 N 
HETATM    6  C15 UNL     1      27.208   2.116  52.402  1.00  0.00     0.202 C 
HETATM    7  N3  UNL     1      28.270   2.359  52.791  1.00  0.00    -0.170 NA
ENDROOT
BRANCH   1   8
HETATM    8  C5  UNL     1      25.520   3.571  50.272  1.00  0.00    -0.032 A 
HETATM    9  C4  UNL     1      26.561   3.838  49.423  1.00  0.00     0.012 A 
HETATM   10  C3  UNL     1      26.901   5.082  48.933  1.00  0.00     0.037 A 
HETATM   11  C2  UNL     1      26.125   6.169  49.326  1.00  0.00     0.068 A 
HETATM   12  C17 UNL     1      25.062   5.963  50.180  1.00  0.00     0.037 A 
HETATM   13  C16 UNL     1      24.768   4.676  50.643  1.00  0.00     0.012 A 
BRANCH  11  14
HETATM   14  O1  UNL     1      26.404   7.451  48.876  1.00  0.00    -0.356 OA
HETATM   15  C1  UNL     1      26.878   8.441  49.774  1.00  0.00     0.210 C 
ENDBRANCH  11  14
ENDBRANCH   1   8
BRANCH   3  16
HETATM   16  C9  UNL     1      22.716   0.356  52.949  1.00  0.00    -0.003 A 
HETATM   17  C10 UNL     1      23.082  -0.460  53.910  1.00  0.00     0.013 A 
HETATM   18  C11 UNL     1      22.077  -1.267  54.584  1.00  0.00     0.025 A 
HETATM   19  C12 UNL     1      20.853  -1.090  54.144  1.00  0.00     0.135 A 
HETATM   20  O2  UNL     1      20.440  -0.243  53.139  1.00  0.00    -0.353 OA
HETATM   21  C13 UNL     1      21.359   0.560  52.453  1.00  0.00     0.158 A 
HETATM   22  C14 UNL     1      21.223   0.285  50.972  1.00  0.00     0.045 C 
ENDBRANCH   3  16
TORSDOF 3
ENDMDL
MODEL 4
REMARK VINA RESULT:      -7.9      4.097      4.735
REMARK  3 active torsions:
REMARK  status: ('A' for Active; 'I' for Inactive)
REMARK    1  A    between atoms: O1_2  and  C2_3 
REMARK    2  A    between atoms: C5_6  and  C6_7 
REMARK    3  A    between atoms: C8_9  and  C9_10 
ROOT
HETATM    1  C6  UNL     1      24.964   2.929  50.512  1.00  0.00     0.160 C 
HETATM    2  C7  UNL     1      25.115   2.459  51.941  1.00  0.00     0.094 C 
HETATM    3  C8  UNL     1      26.590   2.213  52.023  1.00  0.00     0.067 C 
HETATM    4  N1  UNL     1      27.151   2.808  51.030  1.00  0.00    -0.166 NA
HETATM    5  N2  UNL     1      26.258   3.478  50.207  1.00  0.00    -0.195 N 
HETATM    6  C15 UNL     1      26.695   4.465  49.314  1.00  0.00     0.202 C 
HETATM    7  N3  UNL     1      27.057   5.293  48.593  1.00  0.00    -0.170 NA
ENDROOT
BRANCH   1   8
HETATM    8  C5  UNL     1      23.847   3.854  50.328  1.00  0.00    -0.032 A 
HETATM    9  C4  UNL     1      23.060   3.936  49.210  1.00  0.00     0.012 A 
HETATM   10  C3  UNL     1      22.007   4.809  49.031  1.00  0.00     0.037 A 
HETATM   11  C2  UNL     1      21.707   5.687  50.069  1.00  0.00     0.068 A 
HETATM   12  C17 UNL     1      22.464   5.651  51.221  1.00  0.00     0.037 A 
HETATM   13  C16 UNL     1      23.521   4.742  51.342  1.00  0.00     0.012 A 
BRANCH  11  14
HETATM   14  O1  UNL     1      20.662   6.593  49.963  1.00  0.00    -0.356 OA
HETATM   15  C1  UNL     1      20.887   7.976  50.181  1.00  0.00     0.210 C 
ENDBRANCH  11  14
ENDBRANCH   1   8
BRANCH   3  16
HETATM   16  C9  UNL     1      27.321   1.428  53.050  1.00  0.00    -0.003 A 
HETATM   17  C10 UNL     1      28.404   2.008  53.516  1.00  0.00     0.013 A 
HETATM   18  C11 UNL     1      29.199   1.329  54.528  1.00  0.00     0.025 A 
HETATM   19  C12 UNL     1      28.733   0.155  54.888  1.00  0.00     0.135 A 
HETATM   20  O2  UNL     1      27.603  -0.476  54.417  1.00  0.00    -0.353 OA
HETATM   21  C13 UNL     1      26.796   0.125  53.444  1.00  0.00     0.158 A 
HETATM   22  C14 UNL     1      26.656  -0.832  52.281  1.00  0.00     0.045 C 
ENDBRANCH   3  16
TORSDOF 3
ENDMDL
MODEL 5
REMARK VINA RESULT:      -7.9      1.427      7.255
REMARK  3 active torsions:
REMARK  status: ('A' for Active; 'I' for Inactive)
REMARK    1  A    between atoms: O1_2  and  C2_3 
REMARK    2  A    between atoms: C5_6  and  C6_7 
REMARK    3  A    between atoms: C8_9  and  C9_10 
ROOT
HETATM    1  C6  UNL     1      24.322   1.789  52.796  1.00  0.00     0.160 C 
HETATM    2  C7  UNL     1      23.378   0.635  53.049  1.00  0.00     0.094 C 
HETATM    3  C8  UNL     1      22.243   0.967  52.131  1.00  0.00     0.067 C 
HETATM    4  N1  UNL     1      22.657   1.841  51.282  1.00  0.00    -0.166 NA
HETATM    5  N2  UNL     1      23.984   2.205  51.462  1.00  0.00    -0.195 N 
HETATM    6  C15 UNL     1      24.704   2.843  50.445  1.00  0.00     0.202 C 
HETATM    7  N3  UNL     1      25.302   3.352  49.595  1.00  0.00    -0.170 NA
ENDROOT
BRANCH   1   8
HETATM    8  C5  UNL     1      25.727   1.433  52.989  1.00  0.00    -0.032 A 
HETATM    9  C4  UNL     1      26.710   2.284  53.421  1.00  0.00     0.012 A 
HETATM   10  C3  UNL     1      28.036   1.954  53.602  1.00  0.00     0.037 A 
HETATM   11  C2  UNL     1      28.424   0.646  53.328  1.00  0.00     0.068 A 
HETATM   12  C17 UNL     1      27.478  -0.259  52.891  1.00  0.00     0.037 A 
HETATM   13  C16 UNL     1      26.147   0.138  52.725  1.00  0.00     0.012 A 
BRANCH  11  14
HETATM   14  O1  UNL     1      29.740   0.238  53.486  1.00  0.00    -0.356 OA
HETATM   15  C1  UNL     1      30.051  -1.134  53.662  1.00  0.00     0.210 C 
ENDBRANCH  11  14
ENDBRANCH   1   8
BRANCH   3  16
HETATM   16  C9  UNL     1      20.866   0.411  52.155  1.00  0.00    -0.003 A 
HETATM   17  C10 UNL     1      20.142   0.692  51.095  1.00  0.00     0.013 A 
HETATM   18  C11 UNL     1      18.777   0.197  51.012  1.00  0.00     0.025 A 
HETATM   19  C12 UNL     1      18.390  -0.510  52.048  1.00  0.00     0.135 A 
HETATM   20  O2  UNL     1      19.127  -0.820  53.171  1.00  0.00    -0.353 OA
HETATM   21  C13 UNL     1      20.446  -0.374  53.310  1.00  0.00     0.158 A 
HETATM   22  C14 UNL     1      20.559   0.385  54.614  1.00  0.00     0.045 C 
ENDBRANCH   3  16
TORSDOF 3
ENDMDL
MODEL 6
REMARK VINA RESULT:      -7.8      2.594      7.378
REMARK  3 active torsions:
REMARK  status: ('A' for Active; 'I' for Inactive)
REMARK    1  A    between atoms: O1_2  and  C2_3 
REMARK    2  A    between atoms: C5_6  and  C6_7 
REMARK    3  A    between atoms: C8_9  and  C9_10 
ROOT
HETATM    1  C6  UNL     1      23.826   0.031  52.428  1.00  0.00     0.160 C 
HETATM    2  C7  UNL     1      23.443   1.375  51.849  1.00  0.00     0.094 C 
HETATM    3  C8  UNL     1      21.959   1.377  52.047  1.00  0.00     0.067 C 
HETATM    4  N1  UNL     1      21.668   0.462  52.904  1.00  0.00    -0.166 NA
HETATM    5  N2  UNL     1      22.774  -0.232  53.373  1.00  0.00    -0.195 N 
HETATM    6  C15 UNL     1      22.709  -0.988  54.550  1.00  0.00     0.202 C 
HETATM    7  N3  UNL     1      22.657  -1.596  55.533  1.00  0.00    -0.170 NA
ENDROOT
BRANCH   1   8
HETATM    8  C5  UNL     1      25.174   0.013  52.992  1.00  0.00    -0.032 A 
HETATM    9  C4  UNL     1      25.702   0.969  53.820  1.00  0.00     0.012 A 
HETATM   10  C3  UNL     1      26.974   0.958  54.352  1.00  0.00     0.037 A 
HETATM   11  C2  UNL     1      27.804  -0.113  54.031  1.00  0.00     0.068 A 
HETATM   12  C17 UNL     1      27.328  -1.108  53.202  1.00  0.00     0.037 A 
HETATM   13  C16 UNL     1      26.027  -1.039  52.692  1.00  0.00     0.012 A 
BRANCH  11  14
HETATM   14  O1  UNL     1      29.096  -0.194  54.528  1.00  0.00    -0.356 OA
HETATM   15  C1  UNL     1      30.151  -0.676  53.712  1.00  0.00     0.210 C 
ENDBRANCH  11  14
ENDBRANCH   1   8
BRANCH   3  16
HETATM   16  C9  UNL     1      20.960   2.261  51.394  1.00  0.00    -0.003 A 
HETATM   17  C10 UNL     1      20.045   2.746  52.203  1.00  0.00     0.013 A 
HETATM   18  C11 UNL     1      19.016   3.625  51.671  1.00  0.00     0.025 A 
HETATM   19  C12 UNL     1      19.109   3.854  50.381  1.00  0.00     0.135 A 
HETATM   20  O2  UNL     1      20.055   3.359  49.511  1.00  0.00    -0.353 OA
HETATM   21  C13 UNL     1      21.072   2.509  49.961  1.00  0.00     0.158 A 
HETATM   22  C14 UNL     1      21.036   1.241  49.137  1.00  0.00     0.045 C 
ENDBRANCH   3  16
TORSDOF 3
ENDMDL
MODEL 7
REMARK VINA RESULT:      -7.7      2.525      7.275
REMARK  3 active torsions:
REMARK  status: ('A' for Active; 'I' for Inactive)
REMARK    1  A    between atoms: O1_2  and  C2_3 
REMARK    2  A    between atoms: C5_6  and  C6_7 
REMARK    3  A    between atoms: C8_9  and  C9_10 
ROOT
HETATM    1  C6  UNL     1      24.683   2.448  52.453  1.00  0.00     0.160 C 
HETATM    2  C7  UNL     1      23.325   1.801  52.298  1.00  0.00     0.094 C 
HETATM    3  C8  UNL     1      22.693   2.673  51.258  1.00  0.00     0.067 C 
HETATM    4  N1  UNL     1      23.624   3.352  50.684  1.00  0.00    -0.166 NA
HETATM    5  N2  UNL     1      24.892   3.086  51.180  1.00  0.00    -0.195 N 
HETATM    6  C15 UNL     1      26.040   3.435  50.459  1.00  0.00     0.202 C 
HETATM    7  N3  UNL     1      26.986   3.706  49.851  1.00  0.00    -0.170 NA
ENDROOT
BRANCH   1   8
HETATM    8  C5  UNL     1      25.728   1.502  52.842  1.00  0.00    -0.032 A 
HETATM    9  C4  UNL     1      26.700   1.734  53.778  1.00  0.00     0.012 A 
HETATM   10  C3  UNL     1      27.689   0.846  54.147  1.00  0.00     0.037 A 
HETATM   11  C2  UNL     1      27.712  -0.398  53.522  1.00  0.00     0.068 A 
HETATM   12  C17 UNL     1      26.757  -0.690  52.570  1.00  0.00     0.037 A 
HETATM   13  C16 UNL     1      25.779   0.254  52.239  1.00  0.00     0.012 A 
BRANCH  11  14
HETATM   14  O1  UNL     1      28.675  -1.344  53.839  1.00  0.00    -0.356 OA
HETATM   15  C1  UNL     1      30.053  -1.031  53.727  1.00  0.00     0.210 C 
ENDBRANCH  11  14
ENDBRANCH   1   8
BRANCH   3  16
HETATM   16  C9  UNL     1      21.251   2.770  50.912  1.00  0.00    -0.003 A 
HETATM   17  C10 UNL     1      20.468   3.104  51.913  1.00  0.00     0.013 A 
HETATM   18  C11 UNL     1      19.037   3.230  51.688  1.00  0.00     0.025 A 
HETATM   19  C12 UNL     1      18.656   2.985  50.455  1.00  0.00     0.135 A 
HETATM   20  O2  UNL     1      19.454   2.633  49.388  1.00  0.00    -0.353 OA
HETATM   21  C13 UNL     1      20.839   2.497  49.540  1.00  0.00     0.158 A 
HETATM   22  C14 UNL     1      21.239   1.117  49.065  1.00  0.00     0.045 C 
ENDBRANCH   3  16
TORSDOF 3
ENDMDL
MODEL 8
REMARK VINA RESULT:      -7.7      2.723      4.210
REMARK  3 active torsions:
REMARK  status: ('A' for Active; 'I' for Inactive)
REMARK    1  A    between atoms: O1_2  and  C2_3 
REMARK    2  A    between atoms: C5_6  and  C6_7 
REMARK    3  A    between atoms: C8_9  and  C9_10 
ROOT
HETATM    1  C6  UNL     1      24.202   1.585  52.777  1.00  0.00     0.160 C 
HETATM    2  C7  UNL     1      25.546   1.194  52.204  1.00  0.00     0.094 C 
HETATM    3  C8  UNL     1      25.815  -0.094  52.919  1.00  0.00     0.067 C 
HETATM    4  N1  UNL     1      24.707  -0.512  53.423  1.00  0.00    -0.166 NA
HETATM    5  N2  UNL     1      23.630   0.323  53.166  1.00  0.00    -0.195 N 
HETATM    6  C15 UNL     1      22.312  -0.130  53.305  1.00  0.00     0.202 C 
HETATM    7  N3  UNL     1      21.225  -0.514  53.401  1.00  0.00    -0.170 NA
ENDROOT
BRANCH   1   8
HETATM    8  C5  UNL     1      23.388   2.365  51.847  1.00  0.00    -0.032 A 
HETATM    9  C4  UNL     1      23.259   2.121  50.505  1.00  0.00     0.012 A 
HETATM   10  C3  UNL     1      22.495   2.856  49.624  1.00  0.00     0.037 A 
HETATM   11  C2  UNL     1      21.785   3.942  50.128  1.00  0.00     0.068 A 
HETATM   12  C17 UNL     1      21.873   4.238  51.473  1.00  0.00     0.037 A 
HETATM   13  C16 UNL     1      22.667   3.454  52.317  1.00  0.00     0.012 A 
BRANCH  11  14
HETATM   14  O1  UNL     1      20.994   4.728  49.304  1.00  0.00    -0.356 OA
HETATM   15  C1  UNL     1      21.442   5.088  48.008  1.00  0.00     0.210 C 
ENDBRANCH  11  14
ENDBRANCH   1   8
BRANCH   3  16
HETATM   16  C9  UNL     1      27.114  -0.803  53.049  1.00  0.00    -0.003 A 
HETATM   17  C10 UNL     1      27.083  -2.072  52.712  1.00  0.00     0.013 A 
HETATM   18  C11 UNL     1      28.299  -2.865  52.799  1.00  0.00     0.025 A 
HETATM   19  C12 UNL     1      29.350  -2.203  53.226  1.00  0.00     0.135 A 
HETATM   20  O2  UNL     1      29.412  -0.874  53.586  1.00  0.00    -0.353 OA
HETATM   21  C13 UNL     1      28.275  -0.058  53.523  1.00  0.00     0.158 A 
HETATM   22  C14 UNL     1      28.061   0.570  54.882  1.00  0.00     0.045 C 
ENDBRANCH   3  16
TORSDOF 3
ENDMDL
MODEL 9
REMARK VINA RESULT:      -7.6      2.323      7.712
REMARK  3 active torsions:
REMARK  status: ('A' for Active; 'I' for Inactive)
REMARK    1  A    between atoms: O1_2  and  C2_3 
REMARK    2  A    between atoms: C5_6  and  C6_7 
REMARK    3  A    between atoms: C8_9  and  C9_10 
ROOT
HETATM    1  C6  UNL     1      23.130   0.020  52.458  1.00  0.00     0.160 C 
HETATM    2  C7  UNL     1      22.324   1.157  51.872  1.00  0.00     0.094 C 
HETATM    3  C8  UNL     1      20.924   0.722  52.177  1.00  0.00     0.067 C 
HETATM    4  N1  UNL     1      20.976  -0.196  53.077  1.00  0.00    -0.166 NA
HETATM    5  N2  UNL     1      22.267  -0.502  53.484  1.00  0.00    -0.195 N 
HETATM    6  C15 UNL     1      22.506  -1.186  54.682  1.00  0.00     0.202 C 
HETATM    7  N3  UNL     1      22.700  -1.734  55.682  1.00  0.00    -0.170 NA
ENDROOT
BRANCH   1   8
HETATM    8  C5  UNL     1      24.452   0.435  52.923  1.00  0.00    -0.032 A 
HETATM    9  C4  UNL     1      25.543  -0.384  53.048  1.00  0.00     0.012 A 
HETATM   10  C3  UNL     1      26.792   0.002  53.488  1.00  0.00     0.037 A 
HETATM   11  C2  UNL     1      26.973   1.337  53.839  1.00  0.00     0.068 A 
HETATM   12  C17 UNL     1      25.911   2.211  53.734  1.00  0.00     0.037 A 
HETATM   13  C16 UNL     1      24.667   1.757  53.281  1.00  0.00     0.012 A 
BRANCH  11  14
HETATM   14  O1  UNL     1      28.200   1.801  54.290  1.00  0.00    -0.356 OA
HETATM   15  C1  UNL     1      29.366   1.007  54.144  1.00  0.00     0.210 C 
ENDBRANCH  11  14
ENDBRANCH   1   8
BRANCH   3  16
HETATM   16  C9  UNL     1      19.666   1.233  51.574  1.00  0.00    -0.003 A 
HETATM   17  C10 UNL     1      19.107   0.425  50.702  1.00  0.00     0.013 A 
HETATM   18  C11 UNL     1      17.870   0.823  50.050  1.00  0.00     0.025 A 
HETATM   19  C12 UNL     1      17.417   2.000  50.414  1.00  0.00     0.135 A 
HETATM   20  O2  UNL     1      17.981   2.867  51.325  1.00  0.00    -0.353 OA
HETATM   21  C13 UNL     1      19.171   2.542  51.986  1.00  0.00     0.158 A 
HETATM   22  C14 UNL     1      20.169   3.653  51.750  1.00  0.00     0.045 C 
ENDBRANCH   3  16
TORSDOF 3
ENDMDL
