MODEL 1
REMARK VINA RESULT:      -8.4      0.000      0.000
REMARK  2 active torsions:
REMARK  status: ('A' for Active; 'I' for Inactive)
REMARK    1  A    between atoms: C5_7  and  N1_8 
REMARK    2  A    between atoms: N1_8  and  C6_9 
ROOT
HETATM    1  O1  UNL     1      26.812  -2.120  53.341  1.00  0.00    -0.258 OA
HETATM    2  C1  UNL     1      26.475  -1.037  53.072  1.00  0.00     0.302 C 
HETATM    3  C2  UNL     1      25.483  -0.180  52.637  1.00  0.00    -0.003 C 
HETATM    4  C3  UNL     1      24.703   0.522  52.287  1.00  0.00    -0.070 C 
HETATM    5  C4  UNL     1      23.724   1.443  51.837  1.00  0.00     0.273 C 
HETATM    6  O2  UNL     1      24.429   2.763  51.942  1.00  0.00    -0.309 OA
HETATM    7  C5  UNL     1      25.860   2.717  51.648  1.00  0.00     0.243 C 
HETATM    8  N2  UNL     1      27.196   2.570  51.708  1.00  0.00    -0.237 NA
HETATM    9  C12 UNL     1      27.983   2.147  52.824  1.00  0.00     0.188 C 
HETATM   10  C13 UNL     1      28.302   0.937  53.468  1.00  0.00     0.022 C 
HETATM   11  C14 UNL     1      29.152   0.627  54.623  1.00  0.00     0.075 C 
HETATM   12  C15 UNL     1      29.323  -0.671  53.863  1.00  0.00     0.138 C 
HETATM   13  N3  UNL     1      27.888  -0.521  53.429  1.00  0.00    -0.312 N 
ENDROOT
BRANCH   7  14
HETATM   14  N1  UNL     1      25.814   3.154  50.250  1.00  0.00    -0.321 N 
HETATM   15  H3  UNL     1      25.452   2.503  49.458  1.00  0.00     0.169 HD
BRANCH  14  16
HETATM   16  C6  UNL     1      26.208   4.445  49.717  1.00  0.00     0.037 A 
HETATM   17  C7  UNL     1      27.290   4.596  48.890  1.00  0.00     0.032 A 
HETATM   18  C8  UNL     1      27.720   5.783  48.336  1.00  0.00     0.046 A 
HETATM   19  C9  UNL     1      26.983   6.933  48.653  1.00  0.00     0.138 A 
HETATM   20  F1  UNL     1      27.279   8.176  48.191  1.00  0.00    -0.204 F 
HETATM   21  C10 UNL     1      25.898   6.782  49.484  1.00  0.00     0.074 A 
HETATM   22 CL1  UNL     1      24.939   8.185  49.916  1.00  0.00    -0.081 Cl
HETATM   23  C11 UNL     1      25.493   5.579  50.021  1.00  0.00     0.056 A 
ENDBRANCH  14  16
ENDBRANCH   7  14
TORSDOF 2
ENDMDL
MODEL 2
REMARK VINA RESULT:      -8.1      4.592      7.206
REMARK  2 active torsions:
REMARK  status: ('A' for Active; 'I' for Inactive)
REMARK    1  A    between atoms: C5_7  and  N1_8 
REMARK    2  A    between atoms: N1_8  and  C6_9 
ROOT
HETATM    1  O1  UNL     1      19.573   3.547  52.346  1.00  0.00    -0.258 OA
HETATM    2  C1  UNL     1      20.322   2.658  52.428  1.00  0.00     0.302 C 
HETATM    3  C2  UNL     1      20.702   1.483  53.048  1.00  0.00    -0.003 C 
HETATM    4  C3  UNL     1      21.025   0.544  53.533  1.00  0.00    -0.070 C 
HETATM    5  C4  UNL     1      21.464  -0.660  54.140  1.00  0.00     0.273 C 
HETATM    6  O2  UNL     1      22.656  -1.039  53.313  1.00  0.00    -0.309 OA
HETATM    7  C5  UNL     1      23.444   0.089  52.820  1.00  0.00     0.243 C 
HETATM    8  N2  UNL     1      23.924   1.133  52.121  1.00  0.00    -0.237 NA
HETATM    9  C12 UNL     1      23.382   1.719  50.935  1.00  0.00     0.188 C 
HETATM   10  C13 UNL     1      22.330   2.591  50.597  1.00  0.00     0.022 C 
HETATM   11  C14 UNL     1      21.876   3.139  49.314  1.00  0.00     0.075 C 
HETATM   12  C15 UNL     1      21.460   4.287  50.209  1.00  0.00     0.138 C 
HETATM   13  N3  UNL     1      21.140   3.256  51.260  1.00  0.00    -0.312 N 
ENDROOT
BRANCH   7  14
HETATM   14  N1  UNL     1      24.490   0.094  53.846  1.00  0.00    -0.321 N 
HETATM   15  H3  UNL     1      24.270   0.311  54.888  1.00  0.00     0.169 HD
BRANCH  14  16
HETATM   16  C6  UNL     1      25.903  -0.182  53.663  1.00  0.00     0.037 A 
HETATM   17  C7  UNL     1      26.352  -1.298  53.007  1.00  0.00     0.032 A 
HETATM   18  C8  UNL     1      27.673  -1.624  52.784  1.00  0.00     0.046 A 
HETATM   19  C9  UNL     1      28.636  -0.731  53.276  1.00  0.00     0.138 A 
HETATM   20  F1  UNL     1      29.977  -0.910  53.140  1.00  0.00    -0.204 F 
HETATM   21  C10 UNL     1      28.186   0.389  53.934  1.00  0.00     0.074 A 
HETATM   22 CL1  UNL     1      29.345   1.541  54.572  1.00  0.00    -0.081 Cl
HETATM   23  C11 UNL     1      26.857   0.686  54.140  1.00  0.00     0.056 A 
ENDBRANCH  14  16
ENDBRANCH   7  14
TORSDOF 2
ENDMDL
MODEL 3
REMARK VINA RESULT:      -7.6      2.706      3.999
REMARK  2 active torsions:
REMARK  status: ('A' for Active; 'I' for Inactive)
REMARK    1  A    between atoms: C5_7  and  N1_8 
REMARK    2  A    between atoms: N1_8  and  C6_9 
ROOT
HETATM    1  O1  UNL     1      25.992  -1.026  54.104  1.00  0.00    -0.258 OA
HETATM    2  C1  UNL     1      25.638  -0.155  53.415  1.00  0.00     0.302 C 
HETATM    3  C2  UNL     1      25.951   0.839  52.509  1.00  0.00    -0.003 C 
HETATM    4  C3  UNL     1      26.182   1.643  51.785  1.00  0.00    -0.070 C 
HETATM    5  C4  UNL     1      26.449   2.683  50.859  1.00  0.00     0.273 C 
HETATM    6  O2  UNL     1      25.081   3.202  50.531  1.00  0.00    -0.309 OA
HETATM    7  C5  UNL     1      24.133   3.176  51.644  1.00  0.00     0.243 C 
HETATM    8  N2  UNL     1      23.224   2.820  52.570  1.00  0.00    -0.237 NA
HETATM    9  C12 UNL     1      22.612   1.541  52.753  1.00  0.00     0.188 C 
HETATM   10  C13 UNL     1      22.959   0.295  53.308  1.00  0.00     0.022 C 
HETATM   11  C14 UNL     1      22.220  -0.963  53.449  1.00  0.00     0.075 C 
HETATM   12  C15 UNL     1      23.103  -1.083  54.673  1.00  0.00     0.138 C 
HETATM   13  N3  UNL     1      24.182  -0.403  53.871  1.00  0.00    -0.312 N 
ENDROOT
BRANCH   7  14
HETATM   14  N1  UNL     1      24.265   4.568  52.082  1.00  0.00    -0.321 N 
HETATM   15  H3  UNL     1      24.788   4.832  52.999  1.00  0.00     0.169 HD
BRANCH  14  16
HETATM   16  C6  UNL     1      23.766   5.754  51.411  1.00  0.00     0.037 A 
HETATM   17  C7  UNL     1      22.429   5.971  51.209  1.00  0.00     0.032 A 
HETATM   18  C8  UNL     1      21.877   7.073  50.592  1.00  0.00     0.046 A 
HETATM   19  C9  UNL     1      22.769   8.054  50.133  1.00  0.00     0.138 A 
HETATM   20  F1  UNL     1      22.383   9.195  49.504  1.00  0.00    -0.204 F 
HETATM   21  C10 UNL     1      24.110   7.836  50.336  1.00  0.00     0.074 A 
HETATM   22 CL1  UNL     1      25.273   9.027  49.782  1.00  0.00    -0.081 Cl
HETATM   23  C11 UNL     1      24.630   6.721  50.957  1.00  0.00     0.056 A 
ENDBRANCH  14  16
ENDBRANCH   7  14
TORSDOF 2
ENDMDL
MODEL 4
REMARK VINA RESULT:      -7.4      4.750      7.592
REMARK  2 active torsions:
REMARK  status: ('A' for Active; 'I' for Inactive)
REMARK    1  A    between atoms: C5_7  and  N1_8 
REMARK    2  A    between atoms: N1_8  and  C6_9 
ROOT
HETATM    1  O1  UNL     1      24.491   7.082  47.797  1.00  0.00    -0.258 OA
HETATM    2  C1  UNL     1      24.318   6.033  48.276  1.00  0.00     0.302 C 
HETATM    3  C2  UNL     1      23.456   4.996  48.576  1.00  0.00    -0.003 C 
HETATM    4  C3  UNL     1      22.782   4.157  48.828  1.00  0.00    -0.070 C 
HETATM    5  C4  UNL     1      21.938   3.069  49.168  1.00  0.00     0.273 C 
HETATM    6  O2  UNL     1      22.886   2.091  49.796  1.00  0.00    -0.309 OA
HETATM    7  C5  UNL     1      23.969   2.697  50.567  1.00  0.00     0.243 C 
HETATM    8  N2  UNL     1      25.112   3.287  50.963  1.00  0.00    -0.237 NA
HETATM    9  C12 UNL     1      26.209   3.712  50.150  1.00  0.00     0.188 C 
HETATM   10  C13 UNL     1      26.510   4.790  49.297  1.00  0.00     0.022 C 
HETATM   11  C14 UNL     1      27.703   5.125  48.513  1.00  0.00     0.075 C 
HETATM   12  C15 UNL     1      27.211   6.531  48.784  1.00  0.00     0.138 C 
HETATM   13  N3  UNL     1      25.811   5.983  48.674  1.00  0.00    -0.312 N 
ENDROOT
BRANCH   7  14
HETATM   14  N1  UNL     1      23.383   2.580  51.905  1.00  0.00    -0.321 N 
HETATM   15  H3  UNL     1      23.151   3.456  52.507  1.00  0.00     0.169 HD
BRANCH  14  16
HETATM   16  C6  UNL     1      23.024   1.361  52.605  1.00  0.00     0.037 A 
HETATM   17  C7  UNL     1      23.963   0.539  53.169  1.00  0.00     0.032 A 
HETATM   18  C8  UNL     1      23.702  -0.627  53.858  1.00  0.00     0.046 A 
HETATM   19  C9  UNL     1      22.355  -0.997  53.988  1.00  0.00     0.138 A 
HETATM   20  F1  UNL     1      21.935  -2.116  54.634  1.00  0.00    -0.204 F 
HETATM   21  C10 UNL     1      21.413  -0.172  53.422  1.00  0.00     0.074 A 
HETATM   22 CL1  UNL     1      19.714  -0.585  53.550  1.00  0.00    -0.081 Cl
HETATM   23  C11 UNL     1      21.708   0.988  52.739  1.00  0.00     0.056 A 
ENDBRANCH  14  16
ENDBRANCH   7  14
TORSDOF 2
ENDMDL
MODEL 5
REMARK VINA RESULT:      -7.4      1.849      2.392
REMARK  2 active torsions:
REMARK  status: ('A' for Active; 'I' for Inactive)
REMARK    1  A    between atoms: C5_7  and  N1_8 
REMARK    2  A    between atoms: N1_8  and  C6_9 
ROOT
HETATM    1  O1  UNL     1      23.591  -0.920  53.442  1.00  0.00    -0.258 OA
HETATM    2  C1  UNL     1      23.896   0.144  53.075  1.00  0.00     0.302 C 
HETATM    3  C2  UNL     1      23.529   1.438  52.764  1.00  0.00    -0.003 C 
HETATM    4  C3  UNL     1      23.256   2.479  52.506  1.00  0.00    -0.070 C 
HETATM    5  C4  UNL     1      22.932   3.816  52.166  1.00  0.00     0.273 C 
HETATM    6  O2  UNL     1      24.268   4.413  51.836  1.00  0.00    -0.309 OA
HETATM    7  C5  UNL     1      25.206   3.496  51.192  1.00  0.00     0.243 C 
HETATM    8  N2  UNL     1      26.127   2.552  50.926  1.00  0.00    -0.237 NA
HETATM    9  C12 UNL     1      26.816   1.712  51.856  1.00  0.00     0.188 C 
HETATM   10  C13 UNL     1      26.542   0.553  52.607  1.00  0.00     0.022 C 
HETATM   11  C14 UNL     1      27.358  -0.236  53.535  1.00  0.00     0.075 C 
HETATM   12  C15 UNL     1      26.474  -1.348  53.011  1.00  0.00     0.138 C 
HETATM   13  N3  UNL     1      25.361  -0.333  52.947  1.00  0.00    -0.312 N 
ENDROOT
BRANCH   7  14
HETATM   14  N1  UNL     1      24.983   3.892  49.799  1.00  0.00    -0.321 N 
HETATM   15  H3  UNL     1      24.344   3.314  49.134  1.00  0.00     0.169 HD
BRANCH  14  16
HETATM   16  C6  UNL     1      25.529   5.048  49.114  1.00  0.00     0.037 A 
HETATM   17  C7  UNL     1      24.742   6.084  48.684  1.00  0.00     0.032 A 
HETATM   18  C8  UNL     1      25.185   7.218  48.038  1.00  0.00     0.046 A 
HETATM   19  C9  UNL     1      26.565   7.312  47.801  1.00  0.00     0.138 A 
HETATM   20  F1  UNL     1      27.157   8.363  47.174  1.00  0.00    -0.204 F 
HETATM   21  C10 UNL     1      27.355   6.273  48.231  1.00  0.00     0.074 A 
HETATM   22 CL1  UNL     1      29.086   6.335  47.962  1.00  0.00    -0.081 Cl
HETATM   23  C11 UNL     1      26.879   5.152  48.876  1.00  0.00     0.056 A 
ENDBRANCH  14  16
ENDBRANCH   7  14
TORSDOF 2
ENDMDL
MODEL 6
REMARK VINA RESULT:      -7.1      4.638      8.119
REMARK  2 active torsions:
REMARK  status: ('A' for Active; 'I' for Inactive)
REMARK    1  A    between atoms: C5_7  and  N1_8 
REMARK    2  A    between atoms: N1_8  and  C6_9 
ROOT
HETATM    1  O1  UNL     1      23.422   6.595  47.557  1.00  0.00    -0.258 OA
HETATM    2  C1  UNL     1      23.755   5.901  48.432  1.00  0.00     0.302 C 
HETATM    3  C2  UNL     1      24.673   5.008  48.951  1.00  0.00    -0.003 C 
HETATM    4  C3  UNL     1      25.394   4.289  49.383  1.00  0.00    -0.070 C 
HETATM    5  C4  UNL     1      26.299   3.363  49.959  1.00  0.00     0.273 C 
HETATM    6  O2  UNL     1      25.719   3.128  51.322  1.00  0.00    -0.309 OA
HETATM    7  C5  UNL     1      24.259   3.151  51.379  1.00  0.00     0.243 C 
HETATM    8  N2  UNL     1      22.966   3.516  51.445  1.00  0.00    -0.237 NA
HETATM    9  C12 UNL     1      22.429   4.838  51.529  1.00  0.00     0.188 C 
HETATM   10  C13 UNL     1      22.192   5.918  50.657  1.00  0.00     0.022 C 
HETATM   11  C14 UNL     1      21.611   7.247  50.868  1.00  0.00     0.075 C 
HETATM   12  C15 UNL     1      21.191   7.044  49.427  1.00  0.00     0.138 C 
HETATM   13  N3  UNL     1      22.495   6.317  49.226  1.00  0.00    -0.312 N 
ENDROOT
BRANCH   7  14
HETATM   14  N1  UNL     1      24.011   1.708  51.316  1.00  0.00    -0.321 N 
HETATM   15  H3  UNL     1      23.949   1.178  50.369  1.00  0.00     0.169 HD
BRANCH  14  16
HETATM   16  C6  UNL     1      23.828   0.797  52.431  1.00  0.00     0.037 A 
HETATM   17  C7  UNL     1      24.880   0.328  53.172  1.00  0.00     0.032 A 
HETATM   18  C8  UNL     1      24.788  -0.529  54.249  1.00  0.00     0.046 A 
HETATM   19  C9  UNL     1      23.501  -0.954  54.610  1.00  0.00     0.138 A 
HETATM   20  F1  UNL     1      23.243  -1.798  55.643  1.00  0.00    -0.204 F 
HETATM   21  C10 UNL     1      22.445  -0.483  53.866  1.00  0.00     0.074 A 
HETATM   22 CL1  UNL     1      20.813  -0.982  54.270  1.00  0.00    -0.081 Cl
HETATM   23  C11 UNL     1      22.572   0.373  52.794  1.00  0.00     0.056 A 
ENDBRANCH  14  16
ENDBRANCH   7  14
TORSDOF 2
ENDMDL
MODEL 7
REMARK VINA RESULT:      -7.1      4.589      7.489
REMARK  2 active torsions:
REMARK  status: ('A' for Active; 'I' for Inactive)
REMARK    1  A    between atoms: C5_7  and  N1_8 
REMARK    2  A    between atoms: N1_8  and  C6_9 
ROOT
HETATM    1  O1  UNL     1      27.438   9.734  50.175  1.00  0.00    -0.258 OA
HETATM    2  C1  UNL     1      26.788   8.771  50.076  1.00  0.00     0.302 C 
HETATM    3  C2  UNL     1      25.636   8.082  50.402  1.00  0.00    -0.003 C 
HETATM    4  C3  UNL     1      24.722   7.512  50.654  1.00  0.00    -0.070 C 
HETATM    5  C4  UNL     1      23.563   6.758  50.964  1.00  0.00     0.273 C 
HETATM    6  O2  UNL     1      23.738   5.516  50.141  1.00  0.00    -0.309 OA
HETATM    7  C5  UNL     1      25.122   5.068  49.997  1.00  0.00     0.243 C 
HETATM    8  N2  UNL     1      26.399   4.895  49.614  1.00  0.00    -0.237 NA
HETATM    9  C12 UNL     1      27.108   5.587  48.582  1.00  0.00     0.188 C 
HETATM   10  C13 UNL     1      27.729   6.839  48.412  1.00  0.00     0.022 C 
HETATM   11  C14 UNL     1      28.450   7.437  47.283  1.00  0.00     0.075 C 
HETATM   12  C15 UNL     1      29.176   8.139  48.412  1.00  0.00     0.138 C 
HETATM   13  N3  UNL     1      27.861   8.157  49.148  1.00  0.00    -0.312 N 
ENDROOT
BRANCH   7  14
HETATM   14  N1  UNL     1      25.137   4.051  51.052  1.00  0.00    -0.321 N 
HETATM   15  H3  UNL     1      25.912   4.027  51.815  1.00  0.00     0.169 HD
BRANCH  14  16
HETATM   16  C6  UNL     1      24.181   2.978  51.254  1.00  0.00     0.037 A 
HETATM   17  C7  UNL     1      24.001   2.379  52.474  1.00  0.00     0.032 A 
HETATM   18  C8  UNL     1      23.108   1.365  52.748  1.00  0.00     0.046 A 
HETATM   19  C9  UNL     1      22.320   0.910  51.681  1.00  0.00     0.138 A 
HETATM   20  F1  UNL     1      21.398  -0.083  51.788  1.00  0.00    -0.204 F 
HETATM   21  C10 UNL     1      22.501   1.510  50.458  1.00  0.00     0.074 A 
HETATM   22 CL1  UNL     1      21.545   0.982  49.086  1.00  0.00    -0.081 Cl
HETATM   23  C11 UNL     1      23.403   2.523  50.216  1.00  0.00     0.056 A 
ENDBRANCH  14  16
ENDBRANCH   7  14
TORSDOF 2
ENDMDL
MODEL 8
REMARK VINA RESULT:      -7.0      5.144      7.786
REMARK  2 active torsions:
REMARK  status: ('A' for Active; 'I' for Inactive)
REMARK    1  A    between atoms: C5_7  and  N1_8 
REMARK    2  A    between atoms: N1_8  and  C6_9 
ROOT
HETATM    1  O1  UNL     1      24.170   6.687  51.583  1.00  0.00    -0.258 OA
HETATM    2  C1  UNL     1      23.411   5.847  51.304  1.00  0.00     0.302 C 
HETATM    3  C2  UNL     1      22.407   4.982  51.694  1.00  0.00    -0.003 C 
HETATM    4  C3  UNL     1      21.604   4.280  51.986  1.00  0.00    -0.070 C 
HETATM    5  C4  UNL     1      20.577   3.367  52.335  1.00  0.00     0.273 C 
HETATM    6  O2  UNL     1      20.237   2.725  51.023  1.00  0.00    -0.309 OA
HETATM    7  C5  UNL     1      21.371   2.541  50.119  1.00  0.00     0.243 C 
HETATM    8  N2  UNL     1      22.349   2.703  49.211  1.00  0.00    -0.237 NA
HETATM    9  C12 UNL     1      22.669   3.881  48.465  1.00  0.00     0.188 C 
HETATM   10  C13 UNL     1      23.331   5.103  48.691  1.00  0.00     0.022 C 
HETATM   11  C14 UNL     1      23.610   6.249  47.820  1.00  0.00     0.075 C 
HETATM   12  C15 UNL     1      24.817   6.358  48.728  1.00  0.00     0.138 C 
HETATM   13  N3  UNL     1      23.926   5.882  49.847  1.00  0.00    -0.312 N 
ENDROOT
BRANCH   7  14
HETATM   14  N1  UNL     1      21.671   1.139  50.423  1.00  0.00    -0.321 N 
HETATM   15  H3  UNL     1      21.390   0.334  49.749  1.00  0.00     0.169 HD
BRANCH  14  16
HETATM   16  C6  UNL     1      22.358   0.619  51.591  1.00  0.00     0.037 A 
HETATM   17  C7  UNL     1      23.638   0.989  51.912  1.00  0.00     0.032 A 
HETATM   18  C8  UNL     1      24.352   0.549  53.006  1.00  0.00     0.046 A 
HETATM   19  C9  UNL     1      23.706  -0.357  53.860  1.00  0.00     0.138 A 
HETATM   20  F1  UNL     1      24.275  -0.884  54.977  1.00  0.00    -0.204 F 
HETATM   21  C10 UNL     1      22.423  -0.728  53.538  1.00  0.00     0.074 A 
HETATM   22 CL1  UNL     1      21.566  -1.859  54.569  1.00  0.00    -0.081 Cl
HETATM   23  C11 UNL     1      21.736  -0.269  52.435  1.00  0.00     0.056 A 
ENDBRANCH  14  16
ENDBRANCH   7  14
TORSDOF 2
ENDMDL
MODEL 9
REMARK VINA RESULT:      -6.9      4.052      7.538
REMARK  2 active torsions:
REMARK  status: ('A' for Active; 'I' for Inactive)
REMARK    1  A    between atoms: C5_7  and  N1_8 
REMARK    2  A    between atoms: N1_8  and  C6_9 
ROOT
HETATM    1  O1  UNL     1      24.297   8.624  47.573  1.00  0.00    -0.258 OA
HETATM    2  C1  UNL     1      24.412   7.508  47.889  1.00  0.00     0.302 C 
HETATM    3  C2  UNL     1      23.823   6.290  48.166  1.00  0.00    -0.003 C 
HETATM    4  C3  UNL     1      23.370   5.307  48.395  1.00  0.00    -0.070 C 
HETATM    5  C4  UNL     1      22.817   4.038  48.699  1.00  0.00     0.273 C 
HETATM    6  O2  UNL     1      24.029   3.194  48.957  1.00  0.00    -0.309 OA
HETATM    7  C5  UNL     1      25.139   3.896  49.599  1.00  0.00     0.243 C 
HETATM    8  N2  UNL     1      26.225   4.644  49.864  1.00  0.00    -0.237 NA
HETATM    9  C12 UNL     1      27.029   5.383  48.942  1.00  0.00     0.188 C 
HETATM   10  C13 UNL     1      26.950   6.603  48.244  1.00  0.00     0.022 C 
HETATM   11  C14 UNL     1      27.869   7.270  47.316  1.00  0.00     0.075 C 
HETATM   12  C15 UNL     1      27.220   8.501  47.913  1.00  0.00     0.138 C 
HETATM   13  N3  UNL     1      25.943   7.704  47.980  1.00  0.00    -0.312 N 
ENDROOT
BRANCH   7  14
HETATM   14  N1  UNL     1      24.888   3.488  50.984  1.00  0.00    -0.321 N 
HETATM   15  H3  UNL     1      24.407   4.152  51.698  1.00  0.00     0.169 HD
BRANCH  14  16
HETATM   16  C6  UNL     1      25.207   2.213  51.598  1.00  0.00     0.037 A 
HETATM   17  C7  UNL     1      26.454   1.651  51.511  1.00  0.00     0.032 A 
HETATM   18  C8  UNL     1      26.837   0.452  52.074  1.00  0.00     0.046 A 
HETATM   19  C9  UNL     1      25.860  -0.249  52.796  1.00  0.00     0.138 A 
HETATM   20  F1  UNL     1      26.079  -1.443  53.407  1.00  0.00    -0.204 F 
HETATM   21  C10 UNL     1      24.610   0.315  52.883  1.00  0.00     0.074 A 
HETATM   22 CL1  UNL     1      23.347  -0.517  53.772  1.00  0.00    -0.081 Cl
HETATM   23  C11 UNL     1      24.258   1.517  52.308  1.00  0.00     0.056 A 
ENDBRANCH  14  16
ENDBRANCH   7  14
TORSDOF 2
ENDMDL
