MODEL 1
REMARK VINA RESULT:      -8.0      0.000      0.000
REMARK  4 active torsions:
REMARK  status: ('A' for Active; 'I' for Inactive)
REMARK    1  A    between atoms: C1_2  and  C2_3 
REMARK       I    between atoms: C1_2  and  N1_11 
REMARK    2  A    between atoms: C2_3  and  C3_4 
REMARK    3  A    between atoms: N1_11  and  S1_12 
REMARK    4  A    between atoms: S1_12  and  C9_15 
ROOT
HETATM    1  O1  UNL     1      22.923   0.860  51.392  1.00  0.00    -0.272 OA
HETATM    2  C1  UNL     1      23.485   1.169  52.480  1.00  0.00     0.235 C 
HETATM    3  N1  UNL     1      23.787   2.524  52.786  1.00  0.00    -0.250 N 
HETATM    4  H7  UNL     1      24.254   2.695  53.706  1.00  0.00     0.181 HD
ENDROOT
BRANCH   3   5
HETATM    5  S1  UNL     1      23.534   3.969  51.928  1.00  0.00     0.265 S 
HETATM    6  O2  UNL     1      22.166   3.939  51.319  1.00  0.00    -0.200 OA
HETATM    7  O3  UNL     1      23.488   5.067  52.986  1.00  0.00    -0.200 OA
BRANCH   5   8
HETATM    8  C9  UNL     1      24.777   4.386  50.796  1.00  0.00     0.080 A 
HETATM    9  C10 UNL     1      24.998   5.618  50.213  1.00  0.00     0.028 A 
HETATM   10  C11 UNL     1      26.031   5.800  49.323  1.00  0.00     0.044 A 
HETATM   11  C12 UNL     1      26.872   4.739  48.996  1.00  0.00     0.116 A 
HETATM   12  F1  UNL     1      27.912   4.871  48.117  1.00  0.00    -0.206 F 
HETATM   13  C13 UNL     1      26.696   3.470  49.555  1.00  0.00     0.044 A 
HETATM   14  C14 UNL     1      25.633   3.365  50.444  1.00  0.00     0.028 A 
ENDBRANCH   5   8
ENDBRANCH   3   5
BRANCH   2  15
HETATM   15  C2  UNL     1      23.833   0.093  53.447  1.00  0.00     0.142 C 
BRANCH  15  16
HETATM   16  C3  UNL     1      25.282  -0.046  53.618  1.00  0.00    -0.049 A 
HETATM   17  C4  UNL     1      26.069   0.439  54.648  1.00  0.00     0.009 A 
HETATM   18  C5  UNL     1      27.430   0.241  54.692  1.00  0.00     0.019 A 
HETATM   19  C6  UNL     1      28.099  -0.458  53.707  1.00  0.00     0.011 A 
HETATM   20 BR1  UNL     1      29.953  -0.806  53.636  1.00  0.00    -0.051 Br
HETATM   21  C7  UNL     1      27.344  -0.954  52.666  1.00  0.00     0.019 A 
HETATM   22  C8  UNL     1      25.981  -0.751  52.630  1.00  0.00     0.009 A 
ENDBRANCH  15  16
ENDBRANCH   2  15
TORSDOF 4
ENDMDL
MODEL 2
REMARK VINA RESULT:      -7.7      1.663      2.105
REMARK  4 active torsions:
REMARK  status: ('A' for Active; 'I' for Inactive)
REMARK    1  A    between atoms: C1_2  and  C2_3 
REMARK       I    between atoms: C1_2  and  N1_11 
REMARK    2  A    between atoms: C2_3  and  C3_4 
REMARK    3  A    between atoms: N1_11  and  S1_12 
REMARK    4  A    between atoms: S1_12  and  C9_15 
ROOT
HETATM    1  O1  UNL     1      24.163   2.445  50.733  1.00  0.00    -0.272 OA
HETATM    2  C1  UNL     1      24.311   3.084  51.813  1.00  0.00     0.235 C 
HETATM    3  N1  UNL     1      24.387   4.504  51.817  1.00  0.00    -0.250 N 
HETATM    4  H7  UNL     1      24.511   4.956  52.751  1.00  0.00     0.181 HD
ENDROOT
BRANCH   3   5
HETATM    5  S1  UNL     1      24.316   5.650  50.564  1.00  0.00     0.265 S 
HETATM    6  O2  UNL     1      23.145   5.338  49.685  1.00  0.00    -0.200 OA
HETATM    7  O3  UNL     1      23.977   6.973  51.244  1.00  0.00    -0.200 OA
BRANCH   5   8
HETATM    8  C9  UNL     1      25.790   5.879  49.684  1.00  0.00     0.080 A 
HETATM    9  C10 UNL     1      26.349   7.077  49.285  1.00  0.00     0.028 A 
HETATM   10  C11 UNL     1      27.533   7.103  48.584  1.00  0.00     0.044 A 
HETATM   11  C12 UNL     1      28.187   5.915  48.267  1.00  0.00     0.116 A 
HETATM   12  F1  UNL     1      29.365   5.890  47.573  1.00  0.00    -0.206 F 
HETATM   13  C13 UNL     1      27.669   4.674  48.645  1.00  0.00     0.044 A 
HETATM   14  C14 UNL     1      26.472   4.729  49.349  1.00  0.00     0.028 A 
ENDBRANCH   5   8
ENDBRANCH   3   5
BRANCH   2  15
HETATM   15  C2  UNL     1      24.406   2.331  53.092  1.00  0.00     0.142 C 
BRANCH  15  16
HETATM   16  C3  UNL     1      25.587   1.464  53.134  1.00  0.00    -0.049 A 
HETATM   17  C4  UNL     1      25.695   0.149  52.715  1.00  0.00     0.009 A 
HETATM   18  C5  UNL     1      26.869  -0.562  52.810  1.00  0.00     0.019 A 
HETATM   19  C6  UNL     1      28.020  -0.005  53.332  1.00  0.00     0.011 A 
HETATM   20 BR1  UNL     1      29.694  -0.854  53.523  1.00  0.00    -0.051 Br
HETATM   21  C7  UNL     1      27.947   1.304  53.759  1.00  0.00     0.019 A 
HETATM   22  C8  UNL     1      26.766   2.009  53.660  1.00  0.00     0.009 A 
ENDBRANCH  15  16
ENDBRANCH   2  15
TORSDOF 4
ENDMDL
MODEL 3
REMARK VINA RESULT:      -7.7      1.437      1.923
REMARK  4 active torsions:
REMARK  status: ('A' for Active; 'I' for Inactive)
REMARK    1  A    between atoms: C1_2  and  C2_3 
REMARK       I    between atoms: C1_2  and  N1_11 
REMARK    2  A    between atoms: C2_3  and  C3_4 
REMARK    3  A    between atoms: N1_11  and  S1_12 
REMARK    4  A    between atoms: S1_12  and  C9_15 
ROOT
HETATM    1  O1  UNL     1      23.912   2.108  50.704  1.00  0.00    -0.272 OA
HETATM    2  C1  UNL     1      24.114   2.652  51.828  1.00  0.00     0.235 C 
HETATM    3  N1  UNL     1      24.269   4.060  51.940  1.00  0.00    -0.250 N 
HETATM    4  H7  UNL     1      24.435   4.430  52.905  1.00  0.00     0.181 HD
ENDROOT
BRANCH   3   5
HETATM    5  S1  UNL     1      24.238   5.305  50.783  1.00  0.00     0.265 S 
HETATM    6  O2  UNL     1      22.988   5.181  49.970  1.00  0.00    -0.200 OA
HETATM    7  O3  UNL     1      24.084   6.596  51.580  1.00  0.00    -0.200 OA
BRANCH   5   8
HETATM    8  C9  UNL     1      25.669   5.454  49.819  1.00  0.00     0.080 A 
HETATM    9  C10 UNL     1      26.512   4.440  49.409  1.00  0.00     0.028 A 
HETATM   10  C11 UNL     1      27.622   4.713  48.643  1.00  0.00     0.044 A 
HETATM   11  C12 UNL     1      27.911   6.022  48.268  1.00  0.00     0.116 A 
HETATM   12  F1  UNL     1      29.001   6.343  47.506  1.00  0.00    -0.206 F 
HETATM   13  C13 UNL     1      27.094   7.088  48.652  1.00  0.00     0.044 A 
HETATM   14  C14 UNL     1      25.994   6.734  49.424  1.00  0.00     0.028 A 
ENDBRANCH   5   8
ENDBRANCH   3   5
BRANCH   2  15
HETATM   15  C2  UNL     1      24.191   1.796  53.042  1.00  0.00     0.142 C 
BRANCH  15  16
HETATM   16  C3  UNL     1      25.534   1.242  53.241  1.00  0.00    -0.049 A 
HETATM   17  C4  UNL     1      26.637   1.863  53.801  1.00  0.00     0.009 A 
HETATM   18  C5  UNL     1      27.852   1.231  53.931  1.00  0.00     0.019 A 
HETATM   19  C6  UNL     1      28.048  -0.069  53.510  1.00  0.00     0.011 A 
HETATM   20 BR1  UNL     1      29.650  -1.060  53.624  1.00  0.00    -0.051 Br
HETATM   21  C7  UNL     1      26.969  -0.717  52.947  1.00  0.00     0.019 A 
HETATM   22  C8  UNL     1      25.755  -0.075  52.821  1.00  0.00     0.009 A 
ENDBRANCH  15  16
ENDBRANCH   2  15
TORSDOF 4
ENDMDL
MODEL 4
REMARK VINA RESULT:      -7.7      3.431      6.578
REMARK  4 active torsions:
REMARK  status: ('A' for Active; 'I' for Inactive)
REMARK    1  A    between atoms: C1_2  and  C2_3 
REMARK       I    between atoms: C1_2  and  N1_11 
REMARK    2  A    between atoms: C2_3  and  C3_4 
REMARK    3  A    between atoms: N1_11  and  S1_12 
REMARK    4  A    between atoms: S1_12  and  C9_15 
ROOT
HETATM    1  O1  UNL     1      24.144   4.083  51.750  1.00  0.00    -0.272 OA
HETATM    2  C1  UNL     1      24.705   3.279  50.952  1.00  0.00     0.235 C 
HETATM    3  N1  UNL     1      25.373   2.120  51.432  1.00  0.00    -0.250 N 
HETATM    4  H7  UNL     1      25.811   1.507  50.707  1.00  0.00     0.181 HD
ENDROOT
BRANCH   3   5
HETATM    5  S1  UNL     1      25.611   1.512  53.001  1.00  0.00     0.265 S 
HETATM    6  O2  UNL     1      25.509   2.639  53.980  1.00  0.00    -0.200 OA
HETATM    7  O3  UNL     1      24.405   0.618  53.277  1.00  0.00    -0.200 OA
BRANCH   5   8
HETATM    8  C9  UNL     1      27.033   0.547  53.214  1.00  0.00     0.080 A 
HETATM    9  C10 UNL     1      27.196  -0.787  52.895  1.00  0.00     0.028 A 
HETATM   10  C11 UNL     1      28.392  -1.425  53.126  1.00  0.00     0.044 A 
HETATM   11  C12 UNL     1      29.461  -0.732  53.687  1.00  0.00     0.116 A 
HETATM   12  F1  UNL     1      30.670  -1.323  53.934  1.00  0.00    -0.206 F 
HETATM   13  C13 UNL     1      29.355   0.618  54.029  1.00  0.00     0.044 A 
HETATM   14  C14 UNL     1      28.118   1.193  53.767  1.00  0.00     0.028 A 
ENDBRANCH   5   8
ENDBRANCH   3   5
BRANCH   2  15
HETATM   15  C2  UNL     1      24.658   3.559  49.492  1.00  0.00     0.142 C 
BRANCH  15  16
HETATM   16  C3  UNL     1      25.637   4.576  49.095  1.00  0.00    -0.049 A 
HETATM   17  C4  UNL     1      25.410   5.909  48.803  1.00  0.00     0.009 A 
HETATM   18  C5  UNL     1      26.422   6.767  48.438  1.00  0.00     0.019 A 
HETATM   19  C6  UNL     1      27.734   6.350  48.342  1.00  0.00     0.011 A 
HETATM   20 BR1  UNL     1      29.219   7.409  47.856  1.00  0.00    -0.051 Br
HETATM   21  C7  UNL     1      27.995   5.026  48.626  1.00  0.00     0.019 A 
HETATM   22  C8  UNL     1      26.975   4.174  48.990  1.00  0.00     0.009 A 
ENDBRANCH  15  16
ENDBRANCH   2  15
TORSDOF 4
ENDMDL
MODEL 5
REMARK VINA RESULT:      -7.4      4.844      6.419
REMARK  4 active torsions:
REMARK  status: ('A' for Active; 'I' for Inactive)
REMARK    1  A    between atoms: C1_2  and  C2_3 
REMARK       I    between atoms: C1_2  and  N1_11 
REMARK    2  A    between atoms: C2_3  and  C3_4 
REMARK    3  A    between atoms: N1_11  and  S1_12 
REMARK    4  A    between atoms: S1_12  and  C9_15 
ROOT
HETATM    1  O1  UNL     1      24.311  -0.620  54.439  1.00  0.00    -0.272 OA
HETATM    2  C1  UNL     1      23.782  -0.254  53.351  1.00  0.00     0.235 C 
HETATM    3  N1  UNL     1      24.435   0.677  52.498  1.00  0.00    -0.250 N 
HETATM    4  H7  UNL     1      23.930   0.928  51.618  1.00  0.00     0.181 HD
ENDROOT
BRANCH   3   5
HETATM    5  S1  UNL     1      25.921   1.491  52.629  1.00  0.00     0.265 S 
HETATM    6  O2  UNL     1      26.122   2.335  51.409  1.00  0.00    -0.200 OA
HETATM    7  O3  UNL     1      25.746   2.473  53.783  1.00  0.00    -0.200 OA
BRANCH   5   8
HETATM    8  C9  UNL     1      27.284   0.489  52.998  1.00  0.00     0.080 A 
HETATM    9  C10 UNL     1      27.384  -0.880  52.840  1.00  0.00     0.028 A 
HETATM   10  C11 UNL     1      28.538  -1.546  53.183  1.00  0.00     0.044 A 
HETATM   11  C12 UNL     1      29.627  -0.846  53.696  1.00  0.00     0.116 A 
HETATM   12  F1  UNL     1      30.795  -1.464  54.050  1.00  0.00    -0.206 F 
HETATM   13  C13 UNL     1      29.583   0.539  53.878  1.00  0.00     0.044 A 
HETATM   14  C14 UNL     1      28.386   1.140  53.510  1.00  0.00     0.028 A 
ENDBRANCH   5   8
ENDBRANCH   3   5
BRANCH   2  15
HETATM   15  C2  UNL     1      22.457  -0.811  52.967  1.00  0.00     0.142 C 
BRANCH  15  16
HETATM   16  C3  UNL     1      21.604   0.192  52.323  1.00  0.00    -0.049 A 
HETATM   17  C4  UNL     1      21.271   0.294  50.983  1.00  0.00     0.009 A 
HETATM   18  C5  UNL     1      20.456   1.291  50.499  1.00  0.00     0.019 A 
HETATM   19  C6  UNL     1      19.916   2.257  51.325  1.00  0.00     0.011 A 
HETATM   20 BR1  UNL     1      18.787   3.678  50.805  1.00  0.00    -0.051 Br
HETATM   21  C7  UNL     1      20.228   2.185  52.666  1.00  0.00     0.019 A 
HETATM   22  C8  UNL     1      21.046   1.182  53.141  1.00  0.00     0.009 A 
ENDBRANCH  15  16
ENDBRANCH   2  15
TORSDOF 4
ENDMDL
MODEL 6
REMARK VINA RESULT:      -7.4      4.048      7.075
REMARK  4 active torsions:
REMARK  status: ('A' for Active; 'I' for Inactive)
REMARK    1  A    between atoms: C1_2  and  C2_3 
REMARK       I    between atoms: C1_2  and  N1_11 
REMARK    2  A    between atoms: C2_3  and  C3_4 
REMARK    3  A    between atoms: N1_11  and  S1_12 
REMARK    4  A    between atoms: S1_12  and  C9_15 
ROOT
HETATM    1  O1  UNL     1      24.210   3.740  52.074  1.00  0.00    -0.272 OA
HETATM    2  C1  UNL     1      24.569   2.980  51.130  1.00  0.00     0.235 C 
HETATM    3  N1  UNL     1      25.133   1.702  51.396  1.00  0.00    -0.250 N 
HETATM    4  H7  UNL     1      25.405   1.136  50.560  1.00  0.00     0.181 HD
ENDROOT
BRANCH   3   5
HETATM    5  S1  UNL     1      25.465   0.885  52.848  1.00  0.00     0.265 S 
HETATM    6  O2  UNL     1      26.690   0.045  52.664  1.00  0.00    -0.200 OA
HETATM    7  O3  UNL     1      25.859   1.972  53.844  1.00  0.00    -0.200 OA
BRANCH   5   8
HETATM    8  C9  UNL     1      24.133   0.012  53.528  1.00  0.00     0.080 A 
HETATM    9  C10 UNL     1      24.132  -0.748  54.682  1.00  0.00     0.028 A 
HETATM   10  C11 UNL     1      22.989  -1.391  55.099  1.00  0.00     0.044 A 
HETATM   11  C12 UNL     1      21.814  -1.285  54.361  1.00  0.00     0.116 A 
HETATM   12  F1  UNL     1      20.654  -1.905  54.736  1.00  0.00    -0.206 F 
HETATM   13  C13 UNL     1      21.756  -0.530  53.187  1.00  0.00     0.044 A 
HETATM   14  C14 UNL     1      22.947   0.089  52.830  1.00  0.00     0.028 A 
ENDBRANCH   5   8
ENDBRANCH   3   5
BRANCH   2  15
HETATM   15  C2  UNL     1      24.396   3.438  49.725  1.00  0.00     0.142 C 
BRANCH  15  16
HETATM   16  C3  UNL     1      25.502   4.294  49.286  1.00  0.00    -0.049 A 
HETATM   17  C4  UNL     1      26.839   3.961  49.157  1.00  0.00     0.009 A 
HETATM   18  C5  UNL     1      27.787   4.863  48.733  1.00  0.00     0.019 A 
HETATM   19  C6  UNL     1      27.461   6.165  48.406  1.00  0.00     0.011 A 
HETATM   20 BR1  UNL     1      28.649   7.506  47.812  1.00  0.00    -0.051 Br
HETATM   21  C7  UNL     1      26.137   6.530  48.523  1.00  0.00     0.019 A 
HETATM   22  C8  UNL     1      25.195   5.619  48.950  1.00  0.00     0.009 A 
ENDBRANCH  15  16
ENDBRANCH   2  15
TORSDOF 4
ENDMDL
MODEL 7
REMARK VINA RESULT:      -7.3      4.676      6.697
REMARK  4 active torsions:
REMARK  status: ('A' for Active; 'I' for Inactive)
REMARK    1  A    between atoms: C1_2  and  C2_3 
REMARK       I    between atoms: C1_2  and  N1_11 
REMARK    2  A    between atoms: C2_3  and  C3_4 
REMARK    3  A    between atoms: N1_11  and  S1_12 
REMARK    4  A    between atoms: S1_12  and  C9_15 
ROOT
HETATM    1  O1  UNL     1      22.929  -1.236  53.008  1.00  0.00    -0.272 OA
HETATM    2  C1  UNL     1      22.364  -0.235  53.533  1.00  0.00     0.235 C 
HETATM    3  N1  UNL     1      22.921   1.067  53.407  1.00  0.00    -0.250 N 
HETATM    4  H7  UNL     1      22.392   1.841  53.871  1.00  0.00     0.181 HD
ENDROOT
BRANCH   3   5
HETATM    5  S1  UNL     1      24.319   1.636  52.627  1.00  0.00     0.265 S 
HETATM    6  O2  UNL     1      24.046   1.748  51.159  1.00  0.00    -0.200 OA
HETATM    7  O3  UNL     1      24.505   3.067  53.120  1.00  0.00    -0.200 OA
BRANCH   5   8
HETATM    8  C9  UNL     1      25.773   0.767  52.987  1.00  0.00     0.080 A 
HETATM    9  C10 UNL     1      26.263  -0.351  52.339  1.00  0.00     0.028 A 
HETATM   10  C11 UNL     1      27.439  -0.939  52.742  1.00  0.00     0.044 A 
HETATM   11  C12 UNL     1      28.156  -0.414  53.814  1.00  0.00     0.116 A 
HETATM   12  F1  UNL     1      29.330  -0.963  54.250  1.00  0.00    -0.206 F 
HETATM   13  C13 UNL     1      27.710   0.715  54.506  1.00  0.00     0.044 A 
HETATM   14  C14 UNL     1      26.516   1.253  54.042  1.00  0.00     0.028 A 
ENDBRANCH   5   8
ENDBRANCH   3   5
BRANCH   2  15
HETATM   15  C2  UNL     1      21.100  -0.433  54.291  1.00  0.00     0.142 C 
BRANCH  15  16
HETATM   16  C3  UNL     1      19.932  -0.498  53.407  1.00  0.00    -0.049 A 
HETATM   17  C4  UNL     1      18.786  -1.259  53.563  1.00  0.00     0.009 A 
HETATM   18  C5  UNL     1      17.754  -1.232  52.653  1.00  0.00     0.019 A 
HETATM   19  C6  UNL     1      17.797  -0.440  51.523  1.00  0.00     0.011 A 
HETATM   20 BR1  UNL     1      16.462  -0.302  50.195  1.00  0.00    -0.051 Br
HETATM   21  C7  UNL     1      18.925   0.331  51.338  1.00  0.00     0.019 A 
HETATM   22  C8  UNL     1      19.954   0.297  52.254  1.00  0.00     0.009 A 
ENDBRANCH  15  16
ENDBRANCH   2  15
TORSDOF 4
ENDMDL
MODEL 8
REMARK VINA RESULT:      -7.1      2.850      6.063
REMARK  4 active torsions:
REMARK  status: ('A' for Active; 'I' for Inactive)
REMARK    1  A    between atoms: C1_2  and  C2_3 
REMARK       I    between atoms: C1_2  and  N1_11 
REMARK    2  A    between atoms: C2_3  and  C3_4 
REMARK    3  A    between atoms: N1_11  and  S1_12 
REMARK    4  A    between atoms: S1_12  and  C9_15 
ROOT
HETATM    1  O1  UNL     1      23.779   5.135  51.561  1.00  0.00    -0.272 OA
HETATM    2  C1  UNL     1      23.651   4.602  50.422  1.00  0.00     0.235 C 
HETATM    3  N1  UNL     1      23.317   3.226  50.292  1.00  0.00    -0.250 N 
HETATM    4  H7  UNL     1      23.231   2.863  49.316  1.00  0.00     0.181 HD
ENDROOT
BRANCH   3   5
HETATM    5  S1  UNL     1      23.020   2.014  51.446  1.00  0.00     0.265 S 
HETATM    6  O2  UNL     1      22.154   2.577  52.530  1.00  0.00    -0.200 OA
HETATM    7  O3  UNL     1      22.160   0.976  50.731  1.00  0.00    -0.200 OA
BRANCH   5   8
HETATM    8  C9  UNL     1      24.426   1.202  52.046  1.00  0.00     0.080 A 
HETATM    9  C10 UNL     1      24.466   0.122  52.907  1.00  0.00     0.028 A 
HETATM   10  C11 UNL     1      25.668  -0.419  53.302  1.00  0.00     0.044 A 
HETATM   11  C12 UNL     1      26.866   0.117  52.837  1.00  0.00     0.116 A 
HETATM   12  F1  UNL     1      28.084  -0.388  53.201  1.00  0.00    -0.206 F 
HETATM   13  C13 UNL     1      26.887   1.208  51.965  1.00  0.00     0.044 A 
HETATM   14  C14 UNL     1      25.636   1.699  51.612  1.00  0.00     0.028 A 
ENDBRANCH   5   8
ENDBRANCH   3   5
BRANCH   2  15
HETATM   15  C2  UNL     1      23.856   5.435  49.206  1.00  0.00     0.142 C 
BRANCH  15  16
HETATM   16  C3  UNL     1      25.277   5.627  48.904  1.00  0.00    -0.049 A 
HETATM   17  C4  UNL     1      25.905   6.774  48.449  1.00  0.00     0.009 A 
HETATM   18  C5  UNL     1      27.257   6.825  48.199  1.00  0.00     0.019 A 
HETATM   19  C6  UNL     1      28.077   5.730  48.388  1.00  0.00     0.011 A 
HETATM   20 BR1  UNL     1      29.939   5.654  48.089  1.00  0.00    -0.051 Br
HETATM   21  C7  UNL     1      27.483   4.571  48.840  1.00  0.00     0.019 A 
HETATM   22  C8  UNL     1      26.128   4.529  49.088  1.00  0.00     0.009 A 
ENDBRANCH  15  16
ENDBRANCH   2  15
TORSDOF 4
ENDMDL
MODEL 9
REMARK VINA RESULT:      -7.1      3.628      6.647
REMARK  4 active torsions:
REMARK  status: ('A' for Active; 'I' for Inactive)
REMARK    1  A    between atoms: C1_2  and  C2_3 
REMARK       I    between atoms: C1_2  and  N1_11 
REMARK    2  A    between atoms: C2_3  and  C3_4 
REMARK    3  A    between atoms: N1_11  and  S1_12 
REMARK    4  A    between atoms: S1_12  and  C9_15 
ROOT
HETATM    1  O1  UNL     1      26.650   2.847  49.617  1.00  0.00    -0.272 OA
HETATM    2  C1  UNL     1      25.870   3.758  50.017  1.00  0.00     0.235 C 
HETATM    3  N1  UNL     1      25.162   3.626  51.243  1.00  0.00    -0.250 N 
HETATM    4  H7  UNL     1      24.537   4.423  51.502  1.00  0.00     0.181 HD
ENDROOT
BRANCH   3   5
HETATM    5  S1  UNL     1      25.128   2.391  52.411  1.00  0.00     0.265 S 
HETATM    6  O2  UNL     1      24.336   2.860  53.591  1.00  0.00    -0.200 OA
HETATM    7  O3  UNL     1      24.308   1.266  51.787  1.00  0.00    -0.200 OA
BRANCH   5   8
HETATM    8  C9  UNL     1      26.672   1.735  52.840  1.00  0.00     0.080 A 
HETATM    9  C10 UNL     1      27.772   2.425  53.313  1.00  0.00     0.028 A 
HETATM   10  C11 UNL     1      28.942   1.764  53.610  1.00  0.00     0.044 A 
HETATM   11  C12 UNL     1      29.033   0.385  53.439  1.00  0.00     0.116 A 
HETATM   12  F1  UNL     1      30.173  -0.315  53.722  1.00  0.00    -0.206 F 
HETATM   13  C13 UNL     1      27.953  -0.363  52.964  1.00  0.00     0.044 A 
HETATM   14  C14 UNL     1      26.808   0.373  52.685  1.00  0.00     0.028 A 
ENDBRANCH   5   8
ENDBRANCH   3   5
BRANCH   2  15
HETATM   15  C2  UNL     1      25.697   4.980  49.187  1.00  0.00     0.142 C 
BRANCH  15  16
HETATM   16  C3  UNL     1      26.982   5.532  48.747  1.00  0.00    -0.049 A 
HETATM   17  C4  UNL     1      28.173   4.858  48.538  1.00  0.00     0.009 A 
HETATM   18  C5  UNL     1      29.319   5.496  48.123  1.00  0.00     0.019 A 
HETATM   19  C6  UNL     1      29.352   6.856  47.887  1.00  0.00     0.011 A 
HETATM   20 BR1  UNL     1      30.844   7.862  47.317  1.00  0.00    -0.051 Br
HETATM   21  C7  UNL     1      28.182   7.558  48.085  1.00  0.00     0.019 A 
HETATM   22  C8  UNL     1      27.039   6.910  48.501  1.00  0.00     0.009 A 
ENDBRANCH  15  16
ENDBRANCH   2  15
TORSDOF 4
ENDMDL
