MODEL 1
REMARK VINA RESULT:      -8.8      0.000      0.000
REMARK  3 active torsions:
REMARK  status: ('A' for Active; 'I' for Inactive)
REMARK       I    between atoms: N1_1  and  C1_2 
REMARK       I    between atoms: C1_2  and  N2_4 
REMARK    1  A    between atoms: N2_4  and  C2_5 
REMARK    2  A    between atoms: C8_11  and  N3_12 
REMARK    3  A    between atoms: C15_19  and  N4_20 
ROOT
HETATM    1  C2  UNL     1      23.233   1.350  51.621  1.00  0.00     0.037 A 
HETATM    2  C3  UNL     1      22.332   0.418  52.096  1.00  0.00     0.032 A 
HETATM    3  C4  UNL     1      22.656  -0.394  53.164  1.00  0.00     0.034 A 
HETATM    4  C5  UNL     1      23.905  -0.231  53.724  1.00  0.00     0.065 A 
HETATM    5  C6  UNL     1      24.876   0.688  53.305  1.00  0.00     0.011 A 
HETATM    6  C7  UNL     1      24.468   1.464  52.225  1.00  0.00     0.041 A 
HETATM    7  C8  UNL     1      26.077   0.564  54.146  1.00  0.00     0.301 A 
HETATM    8  C16 UNL     1      25.662  -0.533  55.087  1.00  0.00     0.131 A 
HETATM    9  N5  UNL     1      24.472  -0.947  54.833  1.00  0.00    -0.262 NA
ENDROOT
BRANCH   7  10
HETATM   10  N3  UNL     1      27.292   0.280  53.465  1.00  0.00     0.137 N 
HETATM   11  C9  UNL     1      27.084  -0.604  52.393  1.00  0.00     0.290 C 
HETATM   12  C10 UNL     1      27.481  -2.070  52.569  1.00  0.00     0.078 A 
HETATM   13  C11 UNL     1      28.589  -2.804  53.112  1.00  0.00     0.001 A 
HETATM   14  C12 UNL     1      28.966  -1.540  53.323  1.00  0.00    -0.011 A 
HETATM   15  C13 UNL     1      29.247  -0.526  53.483  1.00  0.00    -0.144 C 
HETATM   16  C14 UNL     1      29.592   0.816  53.685  1.00  0.00     0.153 C 
HETATM   17  C15 UNL     1      28.132   1.442  53.204  1.00  0.00     0.462 C 
BRANCH  17  18
HETATM   18  N4  UNL     1      27.896   2.576  53.988  1.00  0.00     0.113 N 
HETATM   19  H15 UNL     1      27.788   2.383  55.030  1.00  0.00     0.315 HD
HETATM   20  H16 UNL     1      26.994   3.040  53.734  1.00  0.00     0.315 HD
ENDBRANCH  17  18
ENDBRANCH   7  10
BRANCH   1  21
HETATM   21  N2  UNL     1      22.845   2.160  50.517  1.00  0.00    -0.309 N 
HETATM   22  C1  UNL     1      22.286   3.432  50.880  1.00  0.00     0.318 C 
HETATM   23  N1  UNL     1      21.834   4.391  49.912  1.00  0.00    -0.352 N 
HETATM   24  O1  UNL     1      22.168   3.762  52.103  1.00  0.00    -0.247 OA
HETATM   25  H1  UNL     1      22.367   4.985  49.226  1.00  0.00     0.160 HD
HETATM   26  H2  UNL     1      20.790   4.571  49.833  1.00  0.00     0.160 HD
HETATM   27  H3  UNL     1      22.898   1.985  49.493  1.00  0.00     0.170 HD
ENDBRANCH   1  21
TORSDOF 3
ENDMDL
MODEL 2
REMARK VINA RESULT:      -7.8      2.088      3.681
REMARK  3 active torsions:
REMARK  status: ('A' for Active; 'I' for Inactive)
REMARK       I    between atoms: N1_1  and  C1_2 
REMARK       I    between atoms: C1_2  and  N2_4 
REMARK    1  A    between atoms: N2_4  and  C2_5 
REMARK    2  A    between atoms: C8_11  and  N3_12 
REMARK    3  A    between atoms: C15_19  and  N4_20 
ROOT
HETATM    1  C2  UNL     1      22.686   0.608  53.419  1.00  0.00     0.037 A 
HETATM    2  C3  UNL     1      22.402   1.873  52.945  1.00  0.00     0.032 A 
HETATM    3  C4  UNL     1      23.332   2.572  52.202  1.00  0.00     0.034 A 
HETATM    4  C5  UNL     1      24.540   1.953  51.961  1.00  0.00     0.065 A 
HETATM    5  C6  UNL     1      24.908   0.676  52.404  1.00  0.00     0.011 A 
HETATM    6  C7  UNL     1      23.915   0.043  53.144  1.00  0.00     0.041 A 
HETATM    7  C8  UNL     1      26.272   0.363  51.949  1.00  0.00     0.301 A 
HETATM    8  C16 UNL     1      26.623   1.617  51.197  1.00  0.00     0.131 A 
HETATM    9  N5  UNL     1      25.659   2.467  51.221  1.00  0.00    -0.262 NA
ENDROOT
BRANCH   7  10
HETATM   10  N3  UNL     1      27.213   0.043  52.964  1.00  0.00     0.137 N 
HETATM   11  C9  UNL     1      27.080   0.896  54.073  1.00  0.00     0.290 C 
HETATM   12  C10 UNL     1      28.098   2.024  54.252  1.00  0.00     0.078 A 
HETATM   13  C11 UNL     1      29.520   2.186  54.150  1.00  0.00     0.001 A 
HETATM   14  C12 UNL     1      29.367   0.895  53.843  1.00  0.00    -0.011 A 
HETATM   15  C13 UNL     1      29.224  -0.131  53.599  1.00  0.00    -0.144 C 
HETATM   16  C14 UNL     1      29.007  -1.476  53.277  1.00  0.00     0.153 C 
HETATM   17  C15 UNL     1      27.350  -1.380  53.244  1.00  0.00     0.462 C 
BRANCH  17  18
HETATM   18  N4  UNL     1      26.910  -2.260  52.250  1.00  0.00     0.113 N 
HETATM   19  H15 UNL     1      27.197  -1.994  51.260  1.00  0.00     0.315 HD
HETATM   20  H16 UNL     1      25.866  -2.294  52.199  1.00  0.00     0.315 HD
ENDBRANCH  17  18
ENDBRANCH   7  10
BRANCH   1  21
HETATM   21  N2  UNL     1      21.690  -0.066  54.180  1.00  0.00    -0.309 N 
HETATM   22  C1  UNL     1      20.535  -0.468  53.426  1.00  0.00     0.318 C 
HETATM   23  N1  UNL     1      19.422  -1.158  54.012  1.00  0.00    -0.352 N 
HETATM   24  O1  UNL     1      20.457  -0.218  52.181  1.00  0.00    -0.247 OA
HETATM   25  H1  UNL     1      19.336  -2.138  54.388  1.00  0.00     0.160 HD
HETATM   26  H2  UNL     1      18.501  -0.638  54.106  1.00  0.00     0.160 HD
HETATM   27  H3  UNL     1      21.658  -0.316  55.190  1.00  0.00     0.170 HD
ENDBRANCH   1  21
TORSDOF 3
ENDMDL
MODEL 3
REMARK VINA RESULT:      -7.8      2.798      7.079
REMARK  3 active torsions:
REMARK  status: ('A' for Active; 'I' for Inactive)
REMARK       I    between atoms: N1_1  and  C1_2 
REMARK       I    between atoms: C1_2  and  N2_4 
REMARK    1  A    between atoms: N2_4  and  C2_5 
REMARK    2  A    between atoms: C8_11  and  N3_12 
REMARK    3  A    between atoms: C15_19  and  N4_20 
ROOT
HETATM    1  C2  UNL     1      25.059   0.938  52.573  1.00  0.00     0.037 A 
HETATM    2  C3  UNL     1      25.361   2.114  51.915  1.00  0.00     0.032 A 
HETATM    3  C4  UNL     1      24.379   3.049  51.657  1.00  0.00     0.034 A 
HETATM    4  C5  UNL     1      23.102   2.756  52.084  1.00  0.00     0.065 A 
HETATM    5  C6  UNL     1      22.711   1.590  52.757  1.00  0.00     0.011 A 
HETATM    6  C7  UNL     1      23.760   0.703  52.974  1.00  0.00     0.041 A 
HETATM    7  C8  UNL     1      21.269   1.640  53.046  1.00  0.00     0.301 A 
HETATM    8  C16 UNL     1      20.899   2.973  52.456  1.00  0.00     0.131 A 
HETATM    9  N5  UNL     1      21.920   3.559  51.938  1.00  0.00    -0.262 NA
ENDROOT
BRANCH   7  10
HETATM   10  N3  UNL     1      20.489   0.570  52.529  1.00  0.00     0.137 N 
HETATM   11  C9  UNL     1      20.777   0.334  51.174  1.00  0.00     0.290 C 
HETATM   12  C10 UNL     1      19.787   0.836  50.121  1.00  0.00     0.078 A 
HETATM   13  C11 UNL     1      18.364   0.855  49.937  1.00  0.00     0.001 A 
HETATM   14  C12 UNL     1      18.481   0.241  51.118  1.00  0.00    -0.011 A 
HETATM   15  C13 UNL     1      18.595  -0.245  52.058  1.00  0.00    -0.144 C 
HETATM   16  C14 UNL     1      18.774  -0.878  53.294  1.00  0.00     0.153 C 
HETATM   17  C15 UNL     1      20.406  -0.599  53.395  1.00  0.00     0.462 C 
BRANCH  17  18
HETATM   18  N4  UNL     1      20.703  -0.401  54.747  1.00  0.00     0.113 N 
HETATM   19  H15 UNL     1      21.736  -0.251  54.960  1.00  0.00     0.315 HD
HETATM   20  H16 UNL     1      20.457  -1.238  55.323  1.00  0.00     0.315 HD
ENDBRANCH  17  18
ENDBRANCH   7  10
BRANCH   1  21
HETATM   21  N2  UNL     1      26.111   0.010  52.811  1.00  0.00    -0.309 N 
HETATM   22  C1  UNL     1      26.848   0.242  54.022  1.00  0.00     0.318 C 
HETATM   23  N1  UNL     1      27.945  -0.583  54.438  1.00  0.00    -0.352 N 
HETATM   24  O1  UNL     1      26.545   1.213  54.787  1.00  0.00    -0.247 OA
HETATM   25  H1  UNL     1      27.971  -1.577  54.786  1.00  0.00     0.160 HD
HETATM   26  H2  UNL     1      28.923  -0.169  54.412  1.00  0.00     0.160 HD
HETATM   27  H3  UNL     1      26.437  -0.807  52.254  1.00  0.00     0.170 HD
ENDBRANCH   1  21
TORSDOF 3
ENDMDL
MODEL 4
REMARK VINA RESULT:      -7.4      2.663      6.745
REMARK  3 active torsions:
REMARK  status: ('A' for Active; 'I' for Inactive)
REMARK       I    between atoms: N1_1  and  C1_2 
REMARK       I    between atoms: C1_2  and  N2_4 
REMARK    1  A    between atoms: N2_4  and  C2_5 
REMARK    2  A    between atoms: C8_11  and  N3_12 
REMARK    3  A    between atoms: C15_19  and  N4_20 
ROOT
HETATM    1  C2  UNL     1      25.230   0.467  53.020  1.00  0.00     0.037 A 
HETATM    2  C3  UNL     1      26.385   0.220  52.305  1.00  0.00     0.032 A 
HETATM    3  C4  UNL     1      26.830   1.116  51.354  1.00  0.00     0.034 A 
HETATM    4  C5  UNL     1      26.076   2.252  51.156  1.00  0.00     0.065 A 
HETATM    5  C6  UNL     1      24.895   2.579  51.836  1.00  0.00     0.011 A 
HETATM    6  C7  UNL     1      24.519   1.624  52.775  1.00  0.00     0.041 A 
HETATM    7  C8  UNL     1      24.380   3.869  51.351  1.00  0.00     0.301 A 
HETATM    8  C16 UNL     1      25.413   4.225  50.318  1.00  0.00     0.131 A 
HETATM    9  N5  UNL     1      26.326   3.324  50.234  1.00  0.00    -0.262 NA
ENDROOT
BRANCH   7  10
HETATM   10  N3  UNL     1      23.057   3.859  50.830  1.00  0.00     0.137 N 
HETATM   11  C9  UNL     1      22.758   2.631  50.216  1.00  0.00     0.290 C 
HETATM   12  C10 UNL     1      22.770   2.559  48.688  1.00  0.00     0.078 A 
HETATM   13  C11 UNL     1      22.300   3.356  47.591  1.00  0.00     0.001 A 
HETATM   14  C12 UNL     1      21.913   4.081  48.645  1.00  0.00    -0.011 A 
HETATM   15  C13 UNL     1      21.615   4.645  49.497  1.00  0.00    -0.144 C 
HETATM   16  C14 UNL     1      21.238   5.368  50.634  1.00  0.00     0.153 C 
HETATM   17  C15 UNL     1      22.045   4.410  51.723  1.00  0.00     0.462 C 
BRANCH  17  18
HETATM   18  N4  UNL     1      22.500   5.248  52.746  1.00  0.00     0.113 N 
HETATM   19  H15 UNL     1      23.403   4.930  53.214  1.00  0.00     0.315 HD
HETATM   20  H16 UNL     1      21.820   5.294  53.538  1.00  0.00     0.315 HD
ENDBRANCH  17  18
ENDBRANCH   7  10
BRANCH   1  21
HETATM   21  N2  UNL     1      24.819  -0.491  53.989  1.00  0.00    -0.309 N 
HETATM   22  C1  UNL     1      25.538  -0.430  55.230  1.00  0.00     0.318 C 
HETATM   23  N1  UNL     1      25.273  -1.312  56.330  1.00  0.00    -0.352 N 
HETATM   24  O1  UNL     1      26.461   0.429  55.401  1.00  0.00    -0.247 OA
HETATM   25  H1  UNL     1      24.447  -1.378  56.981  1.00  0.00     0.160 HD
HETATM   26  H2  UNL     1      26.002  -2.044  56.574  1.00  0.00     0.160 HD
HETATM   27  H3  UNL     1      24.085  -1.228  53.947  1.00  0.00     0.170 HD
ENDBRANCH   1  21
TORSDOF 3
ENDMDL
MODEL 5
REMARK VINA RESULT:      -7.3      2.708      6.910
REMARK  3 active torsions:
REMARK  status: ('A' for Active; 'I' for Inactive)
REMARK       I    between atoms: N1_1  and  C1_2 
REMARK       I    between atoms: C1_2  and  N2_4 
REMARK    1  A    between atoms: N2_4  and  C2_5 
REMARK    2  A    between atoms: C8_11  and  N3_12 
REMARK    3  A    between atoms: C15_19  and  N4_20 
ROOT
HETATM    1  C2  UNL     1      25.289   0.289  53.504  1.00  0.00     0.037 A 
HETATM    2  C3  UNL     1      26.010   1.448  53.296  1.00  0.00     0.032 A 
HETATM    3  C4  UNL     1      25.376   2.616  52.925  1.00  0.00     0.034 A 
HETATM    4  C5  UNL     1      24.006   2.569  52.775  1.00  0.00     0.065 A 
HETATM    5  C6  UNL     1      23.200   1.438  52.966  1.00  0.00     0.011 A 
HETATM    6  C7  UNL     1      23.920   0.307  53.336  1.00  0.00     0.041 A 
HETATM    7  C8  UNL     1      21.792   1.780  52.713  1.00  0.00     0.301 A 
HETATM    8  C16 UNL     1      21.905   3.237  52.358  1.00  0.00     0.131 A 
HETATM    9  N5  UNL     1      23.125   3.640  52.400  1.00  0.00    -0.262 NA
ENDROOT
BRANCH   7  10
HETATM   10  N3  UNL     1      21.132   1.016  51.712  1.00  0.00     0.137 N 
HETATM   11  C9  UNL     1      21.994   0.718  50.643  1.00  0.00     0.290 C 
HETATM   12  C10 UNL     1      21.852   1.518  49.347  1.00  0.00     0.078 A 
HETATM   13  C11 UNL     1      20.785   1.986  48.510  1.00  0.00     0.001 A 
HETATM   14  C12 UNL     1      20.117   1.352  49.478  1.00  0.00    -0.011 A 
HETATM   15  C13 UNL     1      19.604   0.844  50.260  1.00  0.00    -0.144 C 
HETATM   16  C14 UNL     1      18.954   0.173  51.302  1.00  0.00     0.153 C 
HETATM   17  C15 UNL     1      20.314  -0.078  52.219  1.00  0.00     0.462 C 
BRANCH  17  18
HETATM   18  N4  UNL     1      19.922   0.001  53.560  1.00  0.00     0.113 N 
HETATM   19  H15 UNL     1      20.086   0.949  54.017  1.00  0.00     0.315 HD
HETATM   20  H16 UNL     1      20.469  -0.656  54.161  1.00  0.00     0.315 HD
ENDBRANCH  17  18
ENDBRANCH   7  10
BRANCH   1  21
HETATM   21  N2  UNL     1      25.996  -0.886  53.885  1.00  0.00    -0.309 N 
HETATM   22  C1  UNL     1      26.750  -1.497  52.826  1.00  0.00     0.318 C 
HETATM   23  N1  UNL     1      27.527  -2.689  53.009  1.00  0.00    -0.352 N 
HETATM   24  O1  UNL     1      26.753  -0.991  51.659  1.00  0.00    -0.247 OA
HETATM   25  H1  UNL     1      28.419  -2.858  53.543  1.00  0.00     0.160 HD
HETATM   26  H2  UNL     1      27.192  -3.584  52.547  1.00  0.00     0.160 HD
HETATM   27  H3  UNL     1      26.057  -1.376  54.801  1.00  0.00     0.170 HD
ENDBRANCH   1  21
TORSDOF 3
ENDMDL
MODEL 6
REMARK VINA RESULT:      -7.3      2.925      5.172
REMARK  3 active torsions:
REMARK  status: ('A' for Active; 'I' for Inactive)
REMARK       I    between atoms: N1_1  and  C1_2 
REMARK       I    between atoms: C1_2  and  N2_4 
REMARK    1  A    between atoms: N2_4  and  C2_5 
REMARK    2  A    between atoms: C8_11  and  N3_12 
REMARK    3  A    between atoms: C15_19  and  N4_20 
ROOT
HETATM    1  C2  UNL     1      22.274  -0.031  52.793  1.00  0.00     0.037 A 
HETATM    2  C3  UNL     1      23.269  -0.918  53.150  1.00  0.00     0.032 A 
HETATM    3  C4  UNL     1      24.558  -0.479  53.374  1.00  0.00     0.034 A 
HETATM    4  C5  UNL     1      24.799   0.870  53.224  1.00  0.00     0.065 A 
HETATM    5  C6  UNL     1      23.849   1.837  52.865  1.00  0.00     0.011 A 
HETATM    6  C7  UNL     1      22.579   1.308  52.658  1.00  0.00     0.041 A 
HETATM    7  C8  UNL     1      24.483   3.163  52.807  1.00  0.00     0.301 A 
HETATM    8  C16 UNL     1      25.900   2.825  53.177  1.00  0.00     0.131 A 
HETATM    9  N5  UNL     1      26.043   1.566  53.399  1.00  0.00    -0.262 NA
ENDROOT
BRANCH   7  10
HETATM   10  N3  UNL     1      24.383   3.851  51.567  1.00  0.00     0.137 N 
HETATM   11  C9  UNL     1      24.599   2.985  50.482  1.00  0.00     0.290 C 
HETATM   12  C10 UNL     1      25.952   3.030  49.769  1.00  0.00     0.078 A 
HETATM   13  C11 UNL     1      26.861   4.036  49.299  1.00  0.00     0.001 A 
HETATM   14  C12 UNL     1      25.881   4.776  49.824  1.00  0.00    -0.011 A 
HETATM   15  C13 UNL     1      25.090   5.347  50.249  1.00  0.00    -0.144 C 
HETATM   16  C14 UNL     1      24.038   6.075  50.819  1.00  0.00     0.153 C 
HETATM   17  C15 UNL     1      23.252   4.763  51.464  1.00  0.00     0.462 C 
BRANCH  17  18
HETATM   18  N4  UNL     1      22.674   5.185  52.666  1.00  0.00     0.113 N 
HETATM   19  H15 UNL     1      23.334   5.709  53.318  1.00  0.00     0.315 HD
HETATM   20  H16 UNL     1      22.354   4.375  53.245  1.00  0.00     0.315 HD
ENDBRANCH  17  18
ENDBRANCH   7  10
BRANCH   1  21
HETATM   21  N2  UNL     1      20.963  -0.540  52.575  1.00  0.00    -0.309 N 
HETATM   22  C1  UNL     1      20.094  -0.457  53.716  1.00  0.00     0.318 C 
HETATM   23  N1  UNL     1      18.736  -0.918  53.698  1.00  0.00    -0.352 N 
HETATM   24  O1  UNL     1      20.511   0.040  54.811  1.00  0.00    -0.247 OA
HETATM   25  H1  UNL     1      17.884  -0.543  53.206  1.00  0.00     0.160 HD
HETATM   26  H2  UNL     1      18.492  -1.785  54.262  1.00  0.00     0.160 HD
HETATM   27  H3  UNL     1      20.529  -0.963  51.729  1.00  0.00     0.170 HD
ENDBRANCH   1  21
TORSDOF 3
ENDMDL
MODEL 7
REMARK VINA RESULT:      -7.3      2.760      6.651
REMARK  3 active torsions:
REMARK  status: ('A' for Active; 'I' for Inactive)
REMARK       I    between atoms: N1_1  and  C1_2 
REMARK       I    between atoms: C1_2  and  N2_4 
REMARK    1  A    between atoms: N2_4  and  C2_5 
REMARK    2  A    between atoms: C8_11  and  N3_12 
REMARK    3  A    between atoms: C15_19  and  N4_20 
ROOT
HETATM    1  C2  UNL     1      25.402   1.199  53.444  1.00  0.00     0.037 A 
HETATM    2  C3  UNL     1      24.283   0.400  53.563  1.00  0.00     0.032 A 
HETATM    3  C4  UNL     1      23.265   0.469  52.635  1.00  0.00     0.034 A 
HETATM    4  C5  UNL     1      23.418   1.364  51.597  1.00  0.00     0.065 A 
HETATM    5  C6  UNL     1      24.518   2.210  51.401  1.00  0.00     0.011 A 
HETATM    6  C7  UNL     1      25.496   2.076  52.382  1.00  0.00     0.041 A 
HETATM    7  C8  UNL     1      24.318   3.017  50.188  1.00  0.00     0.301 A 
HETATM    8  C16 UNL     1      22.975   2.521  49.726  1.00  0.00     0.131 A 
HETATM    9  N5  UNL     1      22.508   1.620  50.515  1.00  0.00    -0.262 NA
ENDROOT
BRANCH   7  10
HETATM   10  N3  UNL     1      24.359   4.427  50.359  1.00  0.00     0.137 N 
HETATM   11  C9  UNL     1      23.788   4.811  51.585  1.00  0.00     0.290 C 
HETATM   12  C10 UNL     1      22.378   5.405  51.578  1.00  0.00     0.078 A 
HETATM   13  C11 UNL     1      21.642   6.361  50.802  1.00  0.00     0.001 A 
HETATM   14  C12 UNL     1      22.830   6.369  50.192  1.00  0.00    -0.011 A 
HETATM   15  C13 UNL     1      23.784   6.360  49.720  1.00  0.00    -0.144 C 
HETATM   16  C14 UNL     1      25.046   6.325  49.115  1.00  0.00     0.153 C 
HETATM   17  C15 UNL     1      25.627   5.049  50.002  1.00  0.00     0.462 C 
BRANCH  17  18
HETATM   18  N4  UNL     1      26.471   4.317  49.161  1.00  0.00     0.113 N 
HETATM   19  H15 UNL     1      27.501   4.578  49.226  1.00  0.00     0.315 HD
HETATM   20  H16 UNL     1      26.243   4.478  48.153  1.00  0.00     0.315 HD
ENDBRANCH  17  18
ENDBRANCH   7  10
BRANCH   1  21
HETATM   21  N2  UNL     1      26.421   1.085  54.430  1.00  0.00    -0.309 N 
HETATM   22  C1  UNL     1      27.427   0.103  54.137  1.00  0.00     0.318 C 
HETATM   23  N1  UNL     1      28.536  -0.162  55.008  1.00  0.00    -0.352 N 
HETATM   24  O1  UNL     1      27.368  -0.584  53.068  1.00  0.00    -0.247 OA
HETATM   25  H1  UNL     1      29.381   0.418  55.249  1.00  0.00     0.160 HD
HETATM   26  H2  UNL     1      28.559  -1.091  55.523  1.00  0.00     0.160 HD
HETATM   27  H3  UNL     1      26.558   1.593  55.329  1.00  0.00     0.170 HD
ENDBRANCH   1  21
TORSDOF 3
ENDMDL
MODEL 8
REMARK VINA RESULT:      -7.2      3.352      6.115
REMARK  3 active torsions:
REMARK  status: ('A' for Active; 'I' for Inactive)
REMARK       I    between atoms: N1_1  and  C1_2 
REMARK       I    between atoms: C1_2  and  N2_4 
REMARK    1  A    between atoms: N2_4  and  C2_5 
REMARK    2  A    between atoms: C8_11  and  N3_12 
REMARK    3  A    between atoms: C15_19  and  N4_20 
ROOT
HETATM    1  C2  UNL     1      21.562  -0.098  53.780  1.00  0.00     0.037 A 
HETATM    2  C3  UNL     1      22.651  -0.943  53.713  1.00  0.00     0.032 A 
HETATM    3  C4  UNL     1      23.840  -0.518  53.155  1.00  0.00     0.034 A 
HETATM    4  C5  UNL     1      23.885   0.775  52.677  1.00  0.00     0.065 A 
HETATM    5  C6  UNL     1      22.829   1.696  52.706  1.00  0.00     0.011 A 
HETATM    6  C7  UNL     1      21.670   1.185  53.283  1.00  0.00     0.041 A 
HETATM    7  C8  UNL     1      23.258   2.967  52.104  1.00  0.00     0.301 A 
HETATM    8  C16 UNL     1      24.681   2.649  51.735  1.00  0.00     0.131 A 
HETATM    9  N5  UNL     1      24.995   1.445  52.059  1.00  0.00    -0.262 NA
ENDROOT
BRANCH   7  10
HETATM   10  N3  UNL     1      22.489   3.429  51.001  1.00  0.00     0.137 N 
HETATM   11  C9  UNL     1      21.692   2.403  50.467  1.00  0.00     0.290 C 
HETATM   12  C10 UNL     1      22.140   1.732  49.167  1.00  0.00     0.078 A 
HETATM   13  C11 UNL     1      22.667   2.143  47.898  1.00  0.00     0.001 A 
HETATM   14  C12 UNL     1      22.524   3.313  48.527  1.00  0.00    -0.011 A 
HETATM   15  C13 UNL     1      22.404   4.234  49.047  1.00  0.00    -0.144 C 
HETATM   16  C14 UNL     1      22.239   5.431  49.754  1.00  0.00     0.153 C 
HETATM   17  C15 UNL     1      21.848   4.722  51.203  1.00  0.00     0.462 C 
BRANCH  17  18
HETATM   18  N4  UNL     1      22.376   5.535  52.211  1.00  0.00     0.113 N 
HETATM   19  H15 UNL     1      23.144   5.080  52.793  1.00  0.00     0.315 HD
HETATM   20  H16 UNL     1      21.652   5.788  52.921  1.00  0.00     0.315 HD
ENDBRANCH  17  18
ENDBRANCH   7  10
BRANCH   1  21
HETATM   21  N2  UNL     1      20.362  -0.590  54.365  1.00  0.00    -0.309 N 
HETATM   22  C1  UNL     1      19.282  -0.781  53.438  1.00  0.00     0.318 C 
HETATM   23  N1  UNL     1      17.992  -1.269  53.832  1.00  0.00    -0.352 N 
HETATM   24  O1  UNL     1      19.436  -0.517  52.203  1.00  0.00    -0.247 OA
HETATM   25  H1  UNL     1      17.682  -2.219  54.163  1.00  0.00     0.160 HD
HETATM   26  H2  UNL     1      17.170  -0.595  53.805  1.00  0.00     0.160 HD
HETATM   27  H3  UNL     1      20.135  -0.833  55.351  1.00  0.00     0.170 HD
ENDBRANCH   1  21
TORSDOF 3
ENDMDL
MODEL 9
REMARK VINA RESULT:      -7.1      4.023      7.015
REMARK  3 active torsions:
REMARK  status: ('A' for Active; 'I' for Inactive)
REMARK       I    between atoms: N1_1  and  C1_2 
REMARK       I    between atoms: C1_2  and  N2_4 
REMARK    1  A    between atoms: N2_4  and  C2_5 
REMARK    2  A    between atoms: C8_11  and  N3_12 
REMARK    3  A    between atoms: C15_19  and  N4_20 
ROOT
HETATM    1  C2  UNL     1      25.080   7.596  50.483  1.00  0.00     0.037 A 
HETATM    2  C3  UNL     1      24.100   8.357  49.878  1.00  0.00     0.032 A 
HETATM    3  C4  UNL     1      22.781   7.950  49.894  1.00  0.00     0.034 A 
HETATM    4  C5  UNL     1      22.496   6.762  50.534  1.00  0.00     0.065 A 
HETATM    5  C6  UNL     1      23.427   5.931  51.171  1.00  0.00     0.011 A 
HETATM    6  C7  UNL     1      24.730   6.416  51.107  1.00  0.00     0.041 A 
HETATM    7  C8  UNL     1      22.745   4.758  51.737  1.00  0.00     0.301 A 
HETATM    8  C16 UNL     1      21.320   5.030  51.342  1.00  0.00     0.131 A 
HETATM    9  N5  UNL     1      21.214   6.132  50.686  1.00  0.00    -0.262 NA
ENDROOT
BRANCH   7  10
HETATM   10  N3  UNL     1      23.209   3.489  51.294  1.00  0.00     0.137 N 
HETATM   11  C9  UNL     1      23.363   3.459  49.898  1.00  0.00     0.290 C 
HETATM   12  C10 UNL     1      22.299   2.746  49.062  1.00  0.00     0.078 A 
HETATM   13  C11 UNL     1      21.557   1.519  49.124  1.00  0.00     0.001 A 
HETATM   14  C12 UNL     1      22.308   1.444  50.227  1.00  0.00    -0.011 A 
HETATM   15  C13 UNL     1      22.913   1.404  51.102  1.00  0.00    -0.144 C 
HETATM   16  C14 UNL     1      23.717   1.378  52.248  1.00  0.00     0.153 C 
HETATM   17  C15 UNL     1      24.294   2.926  52.087  1.00  0.00     0.462 C 
BRANCH  17  18
HETATM   18  N4  UNL     1      24.458   3.436  53.379  1.00  0.00     0.113 N 
HETATM   19  H15 UNL     1      24.309   4.487  53.465  1.00  0.00     0.315 HD
HETATM   20  H16 UNL     1      25.435   3.300  53.726  1.00  0.00     0.315 HD
ENDBRANCH  17  18
ENDBRANCH   7  10
BRANCH   1  21
HETATM   21  N2  UNL     1      26.423   8.064  50.436  1.00  0.00    -0.309 N 
HETATM   22  C1  UNL     1      27.140   7.700  49.246  1.00  0.00     0.318 C 
HETATM   23  N1  UNL     1      28.504   8.076  49.011  1.00  0.00    -0.352 N 
HETATM   24  O1  UNL     1      26.575   7.012  48.336  1.00  0.00    -0.247 OA
HETATM   25  H1  UNL     1      28.939   9.013  48.809  1.00  0.00     0.160 HD
HETATM   26  H2  UNL     1      29.246   7.315  49.031  1.00  0.00     0.160 HD
HETATM   27  H3  UNL     1      26.972   8.625  51.119  1.00  0.00     0.170 HD
ENDBRANCH   1  21
TORSDOF 3
ENDMDL
