MODEL 1
REMARK VINA RESULT:      -8.9      0.000      0.000
REMARK  2 active torsions:
REMARK  status: ('A' for Active; 'I' for Inactive)
REMARK    1  A    between atoms: O1_2  and  C2_3 
REMARK    2  A    between atoms: C12_16  and  N4_17 
ROOT
HETATM    1  C2  UNL     1      18.718   0.209  51.236  1.00  0.00     0.069 A 
HETATM    2  C3  UNL     1      18.278  -0.575  52.255  1.00  0.00     0.039 A 
HETATM    3  C4  UNL     1      19.148  -0.861  53.281  1.00  0.00     0.040 A 
HETATM    4  C5  UNL     1      20.438  -0.346  53.247  1.00  0.00     0.086 A 
HETATM    5  C6  UNL     1      20.928   0.451  52.238  1.00  0.00    -0.004 A 
HETATM    6  C7  UNL     1      20.016   0.717  51.218  1.00  0.00     0.048 A 
HETATM    7  C8  UNL     1      22.215   1.106  51.971  1.00  0.00     0.161 C 
HETATM    8  N1  UNL     1      23.362   0.396  52.501  1.00  0.00    -0.379 N 
HETATM    9  C9  UNL     1      23.486  -0.298  53.717  1.00  0.00     0.128 A 
HETATM   10  C10 UNL     1      22.532  -0.817  54.567  1.00  0.00     0.202 A 
HETATM   11  N2  UNL     1      22.841  -1.459  55.701  1.00  0.00    -0.215 NA
HETATM   12  C11 UNL     1      24.143  -1.595  56.014  1.00  0.00     0.238 A 
HETATM   13  N3  UNL     1      25.099  -1.099  55.206  1.00  0.00    -0.222 NA
HETATM   14  C12 UNL     1      24.794  -0.450  54.056  1.00  0.00     0.158 A 
HETATM   15  O2  UNL     1      21.156  -0.754  54.378  1.00  0.00    -0.289 OA
HETATM   16  H9  UNL     1      24.234   0.377  51.929  1.00  0.00     0.160 HD
ENDROOT
BRANCH  14  17
HETATM   17  N4  UNL     1      25.893   0.035  53.273  1.00  0.00    -0.360 N 
HETATM   18  C13 UNL     1      26.629   1.312  53.235  1.00  0.00     0.153 C 
HETATM   19  C14 UNL     1      28.048   0.909  53.558  1.00  0.00     0.012 C 
HETATM   20  C15 UNL     1      28.583  -0.298  53.407  1.00  0.00     0.011 C 
HETATM   21 CL1  UNL     1      30.246  -0.692  53.806  1.00  0.00    -0.089 Cl
HETATM   22  C16 UNL     1      27.755  -1.388  52.877  1.00  0.00     0.071 C 
HETATM   23  C17 UNL     1      26.425  -0.902  52.299  1.00  0.00     0.130 C 
ENDBRANCH  14  17
BRANCH   1  24
HETATM   24  O1  UNL     1      17.932   0.556  50.161  1.00  0.00    -0.356 OA
HETATM   25  C1  UNL     1      16.833  -0.142  49.677  1.00  0.00     0.210 C 
ENDBRANCH   1  24
TORSDOF 2
ENDMDL
MODEL 2
REMARK VINA RESULT:      -8.1      3.827      7.954
REMARK  2 active torsions:
REMARK  status: ('A' for Active; 'I' for Inactive)
REMARK    1  A    between atoms: O1_2  and  C2_3 
REMARK    2  A    between atoms: C12_16  and  N4_17 
ROOT
HETATM    1  C2  UNL     1      28.659   0.169  53.894  1.00  0.00     0.069 A 
HETATM    2  C3  UNL     1      28.904   1.500  53.769  1.00  0.00     0.039 A 
HETATM    3  C4  UNL     1      27.832   2.351  53.635  1.00  0.00     0.040 A 
HETATM    4  C5  UNL     1      26.544   1.833  53.630  1.00  0.00     0.086 A 
HETATM    5  C6  UNL     1      26.246   0.496  53.753  1.00  0.00    -0.004 A 
HETATM    6  C7  UNL     1      27.359  -0.334  53.886  1.00  0.00     0.048 A 
HETATM    7  C8  UNL     1      25.006  -0.289  53.778  1.00  0.00     0.161 C 
HETATM    8  N1  UNL     1      23.928   0.282  52.993  1.00  0.00    -0.379 N 
HETATM    9  C9  UNL     1      23.571   1.631  52.834  1.00  0.00     0.128 A 
HETATM   10  C10 UNL     1      24.288   2.790  53.043  1.00  0.00     0.202 A 
HETATM   11  N2  UNL     1      23.775   4.010  52.835  1.00  0.00    -0.215 NA
HETATM   12  C11 UNL     1      22.502   4.093  52.404  1.00  0.00     0.238 A 
HETATM   13  N3  UNL     1      21.775   2.981  52.191  1.00  0.00    -0.222 NA
HETATM   14  C12 UNL     1      22.288   1.744  52.399  1.00  0.00     0.158 A 
HETATM   15  O2  UNL     1      25.605   2.861  53.484  1.00  0.00    -0.289 OA
HETATM   16  H9  UNL     1      23.312  -0.370  52.460  1.00  0.00     0.160 HD
ENDROOT
BRANCH  14  17
HETATM   17  N4  UNL     1      21.422   0.630  52.139  1.00  0.00    -0.360 N 
HETATM   18  C13 UNL     1      20.685  -0.309  53.004  1.00  0.00     0.153 C 
HETATM   19  C14 UNL     1      19.244  -0.094  52.609  1.00  0.00     0.012 C 
HETATM   20  C15 UNL     1      18.804   0.409  51.460  1.00  0.00     0.011 C 
HETATM   21 CL1  UNL     1      17.107   0.629  51.071  1.00  0.00    -0.089 Cl
HETATM   22  C16 UNL     1      19.774   0.813  50.436  1.00  0.00     0.071 C 
HETATM   23  C17 UNL     1      21.195   0.333  50.735  1.00  0.00     0.130 C 
ENDBRANCH  14  17
BRANCH   1  24
HETATM   24  O1  UNL     1      29.655  -0.769  54.033  1.00  0.00    -0.356 OA
HETATM   25  C1  UNL     1      29.725  -2.004  53.400  1.00  0.00     0.210 C 
ENDBRANCH   1  24
TORSDOF 2
ENDMDL
MODEL 3
REMARK VINA RESULT:      -8.0      4.262      7.030
REMARK  2 active torsions:
REMARK  status: ('A' for Active; 'I' for Inactive)
REMARK    1  A    between atoms: O1_2  and  C2_3 
REMARK    2  A    between atoms: C12_16  and  N4_17 
ROOT
HETATM    1  C2  UNL     1      26.401  -0.267  53.680  1.00  0.00     0.069 A 
HETATM    2  C3  UNL     1      25.263  -0.782  54.216  1.00  0.00     0.039 A 
HETATM    3  C4  UNL     1      24.060  -0.228  53.848  1.00  0.00     0.040 A 
HETATM    4  C5  UNL     1      24.040   0.831  52.950  1.00  0.00     0.086 A 
HETATM    5  C6  UNL     1      25.163   1.385  52.382  1.00  0.00    -0.004 A 
HETATM    6  C7  UNL     1      26.363   0.796  52.780  1.00  0.00     0.048 A 
HETATM    7  C8  UNL     1      25.410   2.478  51.432  1.00  0.00     0.161 C 
HETATM    8  N1  UNL     1      24.433   3.547  51.493  1.00  0.00    -0.379 N 
HETATM    9  C9  UNL     1      23.044   3.465  51.691  1.00  0.00     0.128 A 
HETATM   10  C10 UNL     1      22.262   2.463  52.225  1.00  0.00     0.202 A 
HETATM   11  N2  UNL     1      20.931   2.561  52.336  1.00  0.00    -0.215 NA
HETATM   12  C11 UNL     1      20.344   3.692  51.903  1.00  0.00     0.238 A 
HETATM   13  N3  UNL     1      21.079   4.689  51.376  1.00  0.00    -0.222 NA
HETATM   14  C12 UNL     1      22.427   4.597  51.261  1.00  0.00     0.158 A 
HETATM   15  O2  UNL     1      22.724   1.244  52.711  1.00  0.00    -0.289 OA
HETATM   16  H9  UNL     1      24.772   4.527  51.379  1.00  0.00     0.160 HD
ENDROOT
BRANCH  14  17
HETATM   17  N4  UNL     1      23.107   5.720  50.685  1.00  0.00    -0.360 N 
HETATM   18  C13 UNL     1      23.973   6.778  51.238  1.00  0.00     0.153 C 
HETATM   19  C14 UNL     1      25.271   6.596  50.488  1.00  0.00     0.012 C 
HETATM   20  C15 UNL     1      25.429   6.003  49.309  1.00  0.00     0.011 C 
HETATM   21 CL1  UNL     1      26.975   5.830  48.497  1.00  0.00    -0.089 Cl
HETATM   22  C16 UNL     1      24.256   5.449  48.622  1.00  0.00     0.071 C 
HETATM   23  C17 UNL     1      22.933   5.886  49.253  1.00  0.00     0.130 C 
ENDBRANCH  14  17
BRANCH   1  24
HETATM   24  O1  UNL     1      27.656  -0.744  53.979  1.00  0.00    -0.356 OA
HETATM   25  C1  UNL     1      28.683  -0.045  54.600  1.00  0.00     0.210 C 
ENDBRANCH   1  24
TORSDOF 2
ENDMDL
MODEL 4
REMARK VINA RESULT:      -7.9      2.906      4.379
REMARK  2 active torsions:
REMARK  status: ('A' for Active; 'I' for Inactive)
REMARK    1  A    between atoms: O1_2  and  C2_3 
REMARK    2  A    between atoms: C12_16  and  N4_17 
ROOT
HETATM    1  C2  UNL     1      19.252   3.662  51.488  1.00  0.00     0.069 A 
HETATM    2  C3  UNL     1      19.630   4.588  50.567  1.00  0.00     0.039 A 
HETATM    3  C4  UNL     1      20.913   4.532  50.075  1.00  0.00     0.040 A 
HETATM    4  C5  UNL     1      21.777   3.543  50.526  1.00  0.00     0.086 A 
HETATM    5  C6  UNL     1      21.440   2.585  51.455  1.00  0.00    -0.004 A 
HETATM    6  C7  UNL     1      20.132   2.676  51.930  1.00  0.00     0.048 A 
HETATM    7  C8  UNL     1      22.146   1.461  52.083  1.00  0.00     0.161 C 
HETATM    8  N1  UNL     1      23.573   1.667  52.232  1.00  0.00    -0.379 N 
HETATM    9  C9  UNL     1      24.472   2.290  51.351  1.00  0.00     0.128 A 
HETATM   10  C10 UNL     1      24.260   3.174  50.314  1.00  0.00     0.202 A 
HETATM   11  N2  UNL     1      25.256   3.673  49.569  1.00  0.00    -0.215 NA
HETATM   12  C11 UNL     1      26.512   3.285  49.855  1.00  0.00     0.238 A 
HETATM   13  N3  UNL     1      26.753   2.423  50.860  1.00  0.00    -0.222 NA
HETATM   14  C12 UNL     1      25.751   1.915  51.619  1.00  0.00     0.158 A 
HETATM   15  O2  UNL     1      23.025   3.663  49.903  1.00  0.00    -0.289 OA
HETATM   16  H9  UNL     1      24.030   1.317  53.103  1.00  0.00     0.160 HD
ENDROOT
BRANCH  14  17
HETATM   17  N4  UNL     1      26.124   1.005  52.663  1.00  0.00    -0.360 N 
HETATM   18  C13 UNL     1      26.024  -0.457  52.822  1.00  0.00     0.153 C 
HETATM   19  C14 UNL     1      27.460  -0.890  52.995  1.00  0.00     0.012 C 
HETATM   20  C15 UNL     1      28.472  -0.134  53.407  1.00  0.00     0.011 C 
HETATM   21 CL1  UNL     1      30.120  -0.710  53.585  1.00  0.00    -0.089 Cl
HETATM   22  C16 UNL     1      28.225   1.274  53.741  1.00  0.00     0.071 C 
HETATM   23  C17 UNL     1      26.737   1.615  53.830  1.00  0.00     0.130 C 
ENDBRANCH  14  17
BRANCH   1  24
HETATM   24  O1  UNL     1      17.995   3.626  52.046  1.00  0.00    -0.356 OA
HETATM   25  C1  UNL     1      16.842   4.203  51.529  1.00  0.00     0.210 C 
ENDBRANCH   1  24
TORSDOF 2
ENDMDL
MODEL 5
REMARK VINA RESULT:      -7.9      5.283      7.999
REMARK  2 active torsions:
REMARK  status: ('A' for Active; 'I' for Inactive)
REMARK    1  A    between atoms: O1_2  and  C2_3 
REMARK    2  A    between atoms: C12_16  and  N4_17 
ROOT
HETATM    1  C2  UNL     1      27.004  -0.267  53.607  1.00  0.00     0.069 A 
HETATM    2  C3  UNL     1      25.754  -0.744  53.843  1.00  0.00     0.039 A 
HETATM    3  C4  UNL     1      24.696  -0.151  53.196  1.00  0.00     0.040 A 
HETATM    4  C5  UNL     1      24.930   0.907  52.328  1.00  0.00     0.086 A 
HETATM    5  C6  UNL     1      26.176   1.425  52.057  1.00  0.00    -0.004 A 
HETATM    6  C7  UNL     1      27.222   0.798  52.733  1.00  0.00     0.048 A 
HETATM    7  C8  UNL     1      26.682   2.508  51.205  1.00  0.00     0.161 C 
HETATM    8  N1  UNL     1      25.754   3.609  51.033  1.00  0.00    -0.379 N 
HETATM    9  C9  UNL     1      24.358   3.571  50.883  1.00  0.00     0.128 A 
HETATM   10  C10 UNL     1      23.437   2.595  51.201  1.00  0.00     0.202 A 
HETATM   11  N2  UNL     1      22.123   2.737  50.983  1.00  0.00    -0.215 NA
HETATM   12  C11 UNL     1      21.696   3.886  50.427  1.00  0.00     0.238 A 
HETATM   13  N3  UNL     1      22.569   4.858  50.105  1.00  0.00    -0.222 NA
HETATM   14  C12 UNL     1      23.900   4.723  50.323  1.00  0.00     0.158 A 
HETATM   15  O2  UNL     1      23.727   1.363  51.777  1.00  0.00    -0.289 OA
HETATM   16  H9  UNL     1      26.142   4.578  51.013  1.00  0.00     0.160 HD
ENDROOT
BRANCH  14  17
HETATM   17  N4  UNL     1      24.736   5.823  49.941  1.00  0.00    -0.360 N 
HETATM   18  C13 UNL     1      25.604   6.085  48.778  1.00  0.00     0.153 C 
HETATM   19  C14 UNL     1      25.011   7.334  48.171  1.00  0.00     0.012 C 
HETATM   20  C15 UNL     1      24.254   8.234  48.791  1.00  0.00     0.011 C 
HETATM   21 CL1  UNL     1      23.599   9.666  48.017  1.00  0.00    -0.089 Cl
HETATM   22  C16 UNL     1      23.930   8.043  50.210  1.00  0.00     0.071 C 
HETATM   23  C17 UNL     1      24.760   6.940  50.869  1.00  0.00     0.130 C 
ENDBRANCH  14  17
BRANCH   1  24
HETATM   24  O1  UNL     1      28.132  -0.784  54.200  1.00  0.00    -0.356 OA
HETATM   25  C1  UNL     1      29.450  -0.486  53.877  1.00  0.00     0.210 C 
ENDBRANCH   1  24
TORSDOF 2
ENDMDL
MODEL 6
REMARK VINA RESULT:      -7.9      3.809      5.604
REMARK  2 active torsions:
REMARK  status: ('A' for Active; 'I' for Inactive)
REMARK    1  A    between atoms: O1_2  and  C2_3 
REMARK    2  A    between atoms: C12_16  and  N4_17 
ROOT
HETATM    1  C2  UNL     1      25.392   5.319  48.924  1.00  0.00     0.069 A 
HETATM    2  C3  UNL     1      24.058   5.299  48.664  1.00  0.00     0.039 A 
HETATM    3  C4  UNL     1      23.263   4.450  49.396  1.00  0.00     0.040 A 
HETATM    4  C5  UNL     1      23.838   3.644  50.370  1.00  0.00     0.086 A 
HETATM    5  C6  UNL     1      25.181   3.629  50.669  1.00  0.00    -0.004 A 
HETATM    6  C7  UNL     1      25.953   4.503  49.905  1.00  0.00     0.048 A 
HETATM    7  C8  UNL     1      26.019   2.893  51.625  1.00  0.00     0.161 C 
HETATM    8  N1  UNL     1      25.532   1.564  51.938  1.00  0.00    -0.379 N 
HETATM    9  C9  UNL     1      24.208   1.127  52.113  1.00  0.00     0.128 A 
HETATM   10  C10 UNL     1      23.011   1.677  51.710  1.00  0.00     0.202 A 
HETATM   11  N2  UNL     1      21.825   1.110  51.971  1.00  0.00    -0.215 NA
HETATM   12  C11 UNL     1      21.818  -0.047  52.660  1.00  0.00     0.238 A 
HETATM   13  N3  UNL     1      22.970  -0.609  53.069  1.00  0.00    -0.222 NA
HETATM   14  C12 UNL     1      24.173  -0.042  52.807  1.00  0.00     0.158 A 
HETATM   15  O2  UNL     1      22.861   2.860  50.995  1.00  0.00    -0.289 OA
HETATM   16  H9  UNL     1      26.234   0.801  52.056  1.00  0.00     0.160 HD
ENDROOT
BRANCH  14  17
HETATM   17  N4  UNL     1      25.335  -0.731  53.291  1.00  0.00    -0.360 N 
HETATM   18  C13 UNL     1      26.426  -1.471  52.632  1.00  0.00     0.153 C 
HETATM   19  C14 UNL     1      27.664  -0.709  53.041  1.00  0.00     0.012 C 
HETATM   20  C15 UNL     1      27.794   0.081  54.102  1.00  0.00     0.011 C 
HETATM   21 CL1  UNL     1      29.270   0.936  54.515  1.00  0.00    -0.089 Cl
HETATM   22  C16 UNL     1      26.649   0.268  55.001  1.00  0.00     0.071 C 
HETATM   23  C17 UNL     1      25.510  -0.718  54.732  1.00  0.00     0.130 C 
ENDBRANCH  14  17
BRANCH   1  24
HETATM   24  O1  UNL     1      26.278   6.129  48.252  1.00  0.00    -0.356 OA
HETATM   25  C1  UNL     1      27.655   6.178  48.428  1.00  0.00     0.210 C 
ENDBRANCH   1  24
TORSDOF 2
ENDMDL
MODEL 7
REMARK VINA RESULT:      -7.5      2.955      3.606
REMARK  2 active torsions:
REMARK  status: ('A' for Active; 'I' for Inactive)
REMARK    1  A    between atoms: O1_2  and  C2_3 
REMARK    2  A    between atoms: C12_16  and  N4_17 
ROOT
HETATM    1  C2  UNL     1      20.315   5.329  50.599  1.00  0.00     0.069 A 
HETATM    2  C3  UNL     1      19.298   4.443  50.763  1.00  0.00     0.039 A 
HETATM    3  C4  UNL     1      19.538   3.301  51.490  1.00  0.00     0.040 A 
HETATM    4  C5  UNL     1      20.799   3.086  52.029  1.00  0.00     0.086 A 
HETATM    5  C6  UNL     1      21.859   3.952  51.891  1.00  0.00    -0.004 A 
HETATM    6  C7  UNL     1      21.576   5.097  51.147  1.00  0.00     0.048 A 
HETATM    7  C8  UNL     1      23.254   3.960  52.348  1.00  0.00     0.161 C 
HETATM    8  N1  UNL     1      23.841   2.641  52.483  1.00  0.00    -0.379 N 
HETATM    9  C9  UNL     1      23.250   1.456  52.952  1.00  0.00     0.128 A 
HETATM   10  C10 UNL     1      21.927   1.088  53.071  1.00  0.00     0.202 A 
HETATM   11  N2  UNL     1      21.544  -0.105  53.547  1.00  0.00    -0.215 NA
HETATM   12  C11 UNL     1      22.504  -0.972  53.921  1.00  0.00     0.238 A 
HETATM   13  N3  UNL     1      23.804  -0.642  53.817  1.00  0.00    -0.222 NA
HETATM   14  C12 UNL     1      24.199   0.562  53.336  1.00  0.00     0.158 A 
HETATM   15  O2  UNL     1      20.832   1.873  52.728  1.00  0.00    -0.289 OA
HETATM   16  H9  UNL     1      24.839   2.518  52.203  1.00  0.00     0.160 HD
ENDROOT
BRANCH  14  17
HETATM   17  N4  UNL     1      25.611   0.803  53.270  1.00  0.00    -0.360 N 
HETATM   18  C13 UNL     1      26.623   1.199  54.266  1.00  0.00     0.153 C 
HETATM   19  C14 UNL     1      27.605   0.052  54.245  1.00  0.00     0.012 C 
HETATM   20  C15 UNL     1      27.792  -0.813  53.253  1.00  0.00     0.011 C 
HETATM   21 CL1  UNL     1      28.956  -2.125  53.301  1.00  0.00    -0.089 Cl
HETATM   22  C16 UNL     1      26.987  -0.687  52.032  1.00  0.00     0.071 C 
HETATM   23  C17 UNL     1      26.212   0.629  51.959  1.00  0.00     0.130 C 
ENDBRANCH  14  17
BRANCH   1  24
HETATM   24  O1  UNL     1      20.185   6.501  49.892  1.00  0.00    -0.356 OA
HETATM   25  C1  UNL     1      21.133   7.511  49.778  1.00  0.00     0.210 C 
ENDBRANCH   1  24
TORSDOF 2
ENDMDL
MODEL 8
REMARK VINA RESULT:      -7.4      5.516      8.438
REMARK  2 active torsions:
REMARK  status: ('A' for Active; 'I' for Inactive)
REMARK    1  A    between atoms: O1_2  and  C2_3 
REMARK    2  A    between atoms: C12_16  and  N4_17 
ROOT
HETATM    1  C2  UNL     1      27.771   5.211  48.589  1.00  0.00     0.069 A 
HETATM    2  C3  UNL     1      27.072   6.346  48.318  1.00  0.00     0.039 A 
HETATM    3  C4  UNL     1      25.814   6.481  48.855  1.00  0.00     0.040 A 
HETATM    4  C5  UNL     1      25.296   5.466  49.649  1.00  0.00     0.086 A 
HETATM    5  C6  UNL     1      25.964   4.301  49.951  1.00  0.00    -0.004 A 
HETATM    6  C7  UNL     1      27.235   4.202  49.388  1.00  0.00     0.048 A 
HETATM    7  C8  UNL     1      25.651   3.106  50.744  1.00  0.00     0.161 C 
HETATM    8  N1  UNL     1      24.241   2.769  50.775  1.00  0.00    -0.379 N 
HETATM    9  C9  UNL     1      23.129   3.626  50.846  1.00  0.00     0.128 A 
HETATM   10  C10 UNL     1      22.998   4.966  50.552  1.00  0.00     0.202 A 
HETATM   11  N2  UNL     1      21.840   5.628  50.682  1.00  0.00    -0.215 NA
HETATM   12  C11 UNL     1      20.768   4.943  51.120  1.00  0.00     0.238 A 
HETATM   13  N3  UNL     1      20.864   3.634  51.416  1.00  0.00    -0.222 NA
HETATM   14  C12 UNL     1      22.031   2.957  51.287  1.00  0.00     0.158 A 
HETATM   15  O2  UNL     1      24.011   5.800  50.093  1.00  0.00    -0.289 OA
HETATM   16  H9  UNL     1      23.978   1.760  50.742  1.00  0.00     0.160 HD
ENDROOT
BRANCH  14  17
HETATM   17  N4  UNL     1      22.016   1.565  51.630  1.00  0.00    -0.360 N 
HETATM   18  C13 UNL     1      22.490   0.800  52.798  1.00  0.00     0.153 C 
HETATM   19  C14 UNL     1      21.235   0.145  53.323  1.00  0.00     0.012 C 
HETATM   20  C15 UNL     1      20.122  -0.098  52.638  1.00  0.00     0.011 C 
HETATM   21 CL1  UNL     1      18.699  -0.867  53.318  1.00  0.00    -0.089 Cl
HETATM   22  C16 UNL     1      20.052   0.289  51.223  1.00  0.00     0.071 C 
HETATM   23  C17 UNL     1      21.411   0.687  50.644  1.00  0.00     0.130 C 
ENDBRANCH  14  17
BRANCH   1  24
HETATM   24  O1  UNL     1      29.035   4.973  48.104  1.00  0.00    -0.356 OA
HETATM   25  C1  UNL     1      30.027   5.918  47.874  1.00  0.00     0.210 C 
ENDBRANCH   1  24
TORSDOF 2
ENDMDL
MODEL 9
REMARK VINA RESULT:      -7.4      3.431      7.044
REMARK  2 active torsions:
REMARK  status: ('A' for Active; 'I' for Inactive)
REMARK    1  A    between atoms: O1_2  and  C2_3 
REMARK    2  A    between atoms: C12_16  and  N4_17 
ROOT
HETATM    1  C2  UNL     1      27.180   0.978  53.465  1.00  0.00     0.069 A 
HETATM    2  C3  UNL     1      26.871   0.095  54.451  1.00  0.00     0.039 A 
HETATM    3  C4  UNL     1      25.594  -0.414  54.494  1.00  0.00     0.040 A 
HETATM    4  C5  UNL     1      24.666  -0.016  53.540  1.00  0.00     0.086 A 
HETATM    5  C6  UNL     1      24.932   0.873  52.525  1.00  0.00    -0.004 A 
HETATM    6  C7  UNL     1      26.236   1.367  52.516  1.00  0.00     0.048 A 
HETATM    7  C8  UNL     1      24.151   1.443  51.419  1.00  0.00     0.161 C 
HETATM    8  N1  UNL     1      22.737   1.585  51.705  1.00  0.00    -0.379 N 
HETATM    9  C9  UNL     1      21.889   0.721  52.419  1.00  0.00     0.128 A 
HETATM   10  C10 UNL     1      22.169  -0.273  53.332  1.00  0.00     0.202 A 
HETATM   11  N2  UNL     1      21.215  -1.007  53.922  1.00  0.00    -0.215 NA
HETATM   12  C11 UNL     1      19.934  -0.752  53.599  1.00  0.00     0.238 A 
HETATM   13  N3  UNL     1      19.628   0.211  52.710  1.00  0.00    -0.222 NA
HETATM   14  C12 UNL     1      20.587   0.958  52.110  1.00  0.00     0.158 A 
HETATM   15  O2  UNL     1      23.437  -0.648  53.762  1.00  0.00    -0.289 OA
HETATM   16  H9  UNL     1      22.248   2.434  51.346  1.00  0.00     0.160 HD
ENDROOT
BRANCH  14  17
HETATM   17  N4  UNL     1      20.145   1.957  51.181  1.00  0.00    -0.360 N 
HETATM   18  C13 UNL     1      20.115   3.430  51.209  1.00  0.00     0.153 C 
HETATM   19  C14 UNL     1      20.970   3.821  50.027  1.00  0.00     0.012 C 
HETATM   20  C15 UNL     1      21.242   3.072  48.963  1.00  0.00     0.011 C 
HETATM   21 CL1  UNL     1      22.247   3.597  47.624  1.00  0.00    -0.089 Cl
HETATM   22  C16 UNL     1      20.680   1.718  48.877  1.00  0.00     0.071 C 
HETATM   23  C17 UNL     1      19.605   1.449  49.931  1.00  0.00     0.130 C 
ENDBRANCH  14  17
BRANCH   1  24
HETATM   24  O1  UNL     1      28.424   1.548  53.329  1.00  0.00    -0.356 OA
HETATM   25  C1  UNL     1      29.339   1.796  54.345  1.00  0.00     0.210 C 
ENDBRANCH   1  24
TORSDOF 2
ENDMDL
