MODEL 1
REMARK VINA RESULT:      -7.6      0.000      0.000
REMARK  7 active torsions:
REMARK  status: ('A' for Active; 'I' for Inactive)
REMARK    1  A    between atoms: O1_2  and  C2_3 
REMARK    2  A    between atoms: C2_3  and  C3_4 
REMARK    3  A    between atoms: C3_4  and  C4_5 
REMARK    4  A    between atoms: C9_12  and  N1_13 
REMARK    5  A    between atoms: N1_13  and  C10_14 
REMARK    6  A    between atoms: C14_18  and  C15_19 
REMARK    7  A    between atoms: C16_20  and  O4_21 
ROOT
HETATM    1  C4  UNL     1      26.059   1.026  51.875  1.00  0.00    -0.032 C 
HETATM    2  C5  UNL     1      26.721   2.056  51.301  1.00  0.00     0.141 C 
HETATM    3  O2  UNL     1      27.081   3.298  50.731  1.00  0.00    -0.360 OA
HETATM    4  C6  UNL     1      26.268   3.644  49.582  1.00  0.00     0.200 C 
HETATM    5  C7  UNL     1      24.884   3.132  50.008  1.00  0.00     0.194 C 
HETATM    6  O3  UNL     1      24.570   3.828  51.185  1.00  0.00    -0.383 OA
HETATM    7  C8  UNL     1      23.390   3.312  51.740  1.00  0.00     0.224 C 
HETATM    8  C9  UNL     1      23.677   1.902  52.207  1.00  0.00     0.034 C 
HETATM    9  C18 UNL     1      24.669   1.036  52.262  1.00  0.00     0.036 C 
ENDROOT
BRANCH   8  10
HETATM   10  N1  UNL     1      22.381   1.525  52.726  1.00  0.00    -0.358 N 
HETATM   11  H15 UNL     1      21.836   2.432  52.699  1.00  0.00     0.166 HD
BRANCH  10  12
HETATM   12  C10 UNL     1      21.650   0.428  53.223  1.00  0.00     0.033 A 
HETATM   13  C11 UNL     1      22.347  -0.484  53.999  1.00  0.00     0.029 A 
HETATM   14  C12 UNL     1      21.693  -1.594  54.526  1.00  0.00     0.004 A 
HETATM   15  C13 UNL     1      20.348  -1.707  54.222  1.00  0.00     0.021 A 
HETATM   16  C14 UNL     1      19.599  -0.836  53.457  1.00  0.00     0.022 A 
HETATM   17  C17 UNL     1      20.295   0.259  52.952  1.00  0.00     0.050 A 
BRANCH  16  18
HETATM   18  C15 UNL     1      18.213  -1.054  53.210  1.00  0.00    -0.037 C 
HETATM   19  C16 UNL     1      17.029  -1.242  53.009  1.00  0.00     0.057 C 
BRANCH  19  20
HETATM   20  O4  UNL     1      15.681  -1.443  52.797  1.00  0.00    -0.314 OA
HETATM   21  H19 UNL     1      15.394  -2.335  52.381  1.00  0.00     0.230 HD
ENDBRANCH  19  20
ENDBRANCH  16  18
ENDBRANCH  10  12
ENDBRANCH   8  10
BRANCH   1  22
HETATM   22  C3  UNL     1      26.856  -0.206  52.111  1.00  0.00     0.066 C 
BRANCH  22  23
HETATM   23  C2  UNL     1      26.679  -0.740  53.515  1.00  0.00     0.171 C 
BRANCH  23  24
HETATM   24  O1  UNL     1      27.965  -0.977  54.011  1.00  0.00    -0.396 OA
HETATM   25  C1  UNL     1      28.437   0.099  54.756  1.00  0.00     0.201 C 
ENDBRANCH  23  24
ENDBRANCH  22  23
ENDBRANCH   1  22
TORSDOF 7
ENDMDL
MODEL 2
REMARK VINA RESULT:      -7.3      2.704      8.023
REMARK  7 active torsions:
REMARK  status: ('A' for Active; 'I' for Inactive)
REMARK    1  A    between atoms: O1_2  and  C2_3 
REMARK    2  A    between atoms: C2_3  and  C3_4 
REMARK    3  A    between atoms: C3_4  and  C4_5 
REMARK    4  A    between atoms: C9_12  and  N1_13 
REMARK    5  A    between atoms: N1_13  and  C10_14 
REMARK    6  A    between atoms: C14_18  and  C15_19 
REMARK    7  A    between atoms: C16_20  and  O4_21 
ROOT
HETATM    1  C4  UNL     1      24.903   0.194  53.604  1.00  0.00    -0.032 C 
HETATM    2  C5  UNL     1      25.822   0.128  54.593  1.00  0.00     0.141 C 
HETATM    3  O2  UNL     1      26.969   0.292  55.404  1.00  0.00    -0.360 OA
HETATM    4  C6  UNL     1      28.193  -0.084  54.726  1.00  0.00     0.200 C 
HETATM    5  C7  UNL     1      27.930   0.416  53.297  1.00  0.00     0.194 C 
HETATM    6  O3  UNL     1      27.720   1.799  53.416  1.00  0.00    -0.383 OA
HETATM    7  C8  UNL     1      27.313   2.323  52.180  1.00  0.00     0.224 C 
HETATM    8  C9  UNL     1      25.942   1.764  51.869  1.00  0.00     0.034 C 
HETATM    9  C18 UNL     1      25.032   0.967  52.392  1.00  0.00     0.036 C 
ENDROOT
BRANCH   8  10
HETATM   10  N1  UNL     1      25.688   2.381  50.587  1.00  0.00    -0.358 N 
HETATM   11  H15 UNL     1      25.389   1.567  49.980  1.00  0.00     0.166 HD
BRANCH  10  12
HETATM   12  C10 UNL     1      25.705   3.623  49.919  1.00  0.00     0.033 A 
HETATM   13  C11 UNL     1      24.493   4.281  49.798  1.00  0.00     0.029 A 
HETATM   14  C12 UNL     1      24.429   5.512  49.152  1.00  0.00     0.004 A 
HETATM   15  C13 UNL     1      25.626   6.001  48.661  1.00  0.00     0.021 A 
HETATM   16  C14 UNL     1      26.863   5.396  48.748  1.00  0.00     0.022 A 
HETATM   17  C17 UNL     1      26.877   4.168  49.403  1.00  0.00     0.050 A 
BRANCH  16  18
HETATM   18  C15 UNL     1      28.034   5.997  48.203  1.00  0.00    -0.037 C 
HETATM   19  C16 UNL     1      29.036   6.515  47.747  1.00  0.00     0.057 C 
BRANCH  19  20
HETATM   20  O4  UNL     1      30.181   7.098  47.247  1.00  0.00    -0.314 OA
HETATM   21  H19 UNL     1      30.395   8.055  47.543  1.00  0.00     0.230 HD
ENDBRANCH  19  20
ENDBRANCH  16  18
ENDBRANCH  10  12
ENDBRANCH   8  10
BRANCH   1  22
HETATM   22  C3  UNL     1      23.671  -0.611  53.809  1.00  0.00     0.066 C 
BRANCH  22  23
HETATM   23  C2  UNL     1      23.612  -1.220  55.192  1.00  0.00     0.171 C 
BRANCH  23  24
HETATM   24  O1  UNL     1      22.314  -1.714  55.350  1.00  0.00    -0.396 OA
HETATM   25  C1  UNL     1      21.433  -1.151  54.431  1.00  0.00     0.201 C 
ENDBRANCH  23  24
ENDBRANCH  22  23
ENDBRANCH   1  22
TORSDOF 7
ENDMDL
MODEL 3
REMARK VINA RESULT:      -7.3      2.620      7.207
REMARK  7 active torsions:
REMARK  status: ('A' for Active; 'I' for Inactive)
REMARK    1  A    between atoms: O1_2  and  C2_3 
REMARK    2  A    between atoms: C2_3  and  C3_4 
REMARK    3  A    between atoms: C3_4  and  C4_5 
REMARK    4  A    between atoms: C9_12  and  N1_13 
REMARK    5  A    between atoms: N1_13  and  C10_14 
REMARK    6  A    between atoms: C14_18  and  C15_19 
REMARK    7  A    between atoms: C16_20  and  O4_21 
ROOT
HETATM    1  C4  UNL     1      24.648   0.243  53.471  1.00  0.00    -0.032 C 
HETATM    2  C5  UNL     1      23.788  -0.593  54.096  1.00  0.00     0.141 C 
HETATM    3  O2  UNL     1      22.660  -1.354  54.479  1.00  0.00    -0.360 OA
HETATM    4  C6  UNL     1      21.491  -0.536  54.732  1.00  0.00     0.200 C 
HETATM    5  C7  UNL     1      21.617   0.541  53.643  1.00  0.00     0.194 C 
HETATM    6  O3  UNL     1      21.600  -0.153  52.424  1.00  0.00    -0.383 OA
HETATM    7  C8  UNL     1      21.870   0.733  51.371  1.00  0.00     0.224 C 
HETATM    8  C9  UNL     1      23.303   1.198  51.515  1.00  0.00     0.034 C 
HETATM    9  C18 UNL     1      24.350   1.024  52.295  1.00  0.00     0.036 C 
ENDROOT
BRANCH   8  10
HETATM   10  N1  UNL     1      23.405   2.093  50.384  1.00  0.00    -0.358 N 
HETATM   11  H15 UNL     1      22.866   1.590  49.625  1.00  0.00     0.166 HD
BRANCH  10  12
HETATM   12  C10 UNL     1      23.948   3.331  49.982  1.00  0.00     0.033 A 
HETATM   13  C11 UNL     1      23.086   4.415  49.972  1.00  0.00     0.029 A 
HETATM   14  C12 UNL     1      23.548   5.670  49.587  1.00  0.00     0.004 A 
HETATM   15  C13 UNL     1      24.882   5.741  49.228  1.00  0.00     0.021 A 
HETATM   16  C14 UNL     1      25.790   4.701  49.216  1.00  0.00     0.022 A 
HETATM   17  C17 UNL     1      25.282   3.466  49.609  1.00  0.00     0.050 A 
BRANCH  16  18
HETATM   18  C15 UNL     1      27.147   4.893  48.827  1.00  0.00    -0.037 C 
HETATM   19  C16 UNL     1      28.307   5.046  48.494  1.00  0.00     0.057 C 
BRANCH  19  20
HETATM   20  O4  UNL     1      29.620   5.204  48.104  1.00  0.00    -0.314 OA
HETATM   21  H19 UNL     1      29.813   5.265  47.099  1.00  0.00     0.230 HD
ENDBRANCH  19  20
ENDBRANCH  16  18
ENDBRANCH  10  12
ENDBRANCH   8  10
BRANCH   1  22
HETATM   22  C3  UNL     1      26.002   0.348  54.073  1.00  0.00     0.066 C 
BRANCH  22  23
HETATM   23  C2  UNL     1      27.004  -0.552  53.384  1.00  0.00     0.171 C 
BRANCH  23  24
HETATM   24  O1  UNL     1      28.064  -0.720  54.280  1.00  0.00    -0.396 OA
HETATM   25  C1  UNL     1      29.278  -0.880  53.618  1.00  0.00     0.201 C 
ENDBRANCH  23  24
ENDBRANCH  22  23
ENDBRANCH   1  22
TORSDOF 7
ENDMDL
MODEL 4
REMARK VINA RESULT:      -7.3      2.947      5.379
REMARK  7 active torsions:
REMARK  status: ('A' for Active; 'I' for Inactive)
REMARK    1  A    between atoms: O1_2  and  C2_3 
REMARK    2  A    between atoms: C2_3  and  C3_4 
REMARK    3  A    between atoms: C3_4  and  C4_5 
REMARK    4  A    between atoms: C9_12  and  N1_13 
REMARK    5  A    between atoms: N1_13  and  C10_14 
REMARK    6  A    between atoms: C14_18  and  C15_19 
REMARK    7  A    between atoms: C16_20  and  O4_21 
ROOT
HETATM    1  C4  UNL     1      26.062   6.080  49.430  1.00  0.00    -0.032 C 
HETATM    2  C5  UNL     1      25.541   7.260  49.836  1.00  0.00     0.141 C 
HETATM    3  O2  UNL     1      24.759   8.270  50.440  1.00  0.00    -0.360 OA
HETATM    4  C6  UNL     1      23.355   8.175  50.094  1.00  0.00     0.200 C 
HETATM    5  C7  UNL     1      23.137   6.654  50.075  1.00  0.00     0.194 C 
HETATM    6  O3  UNL     1      23.459   6.211  51.366  1.00  0.00    -0.383 OA
HETATM    7  C8  UNL     1      23.444   4.809  51.403  1.00  0.00     0.224 C 
HETATM    8  C9  UNL     1      24.585   4.312  50.544  1.00  0.00     0.034 C 
HETATM    9  C18 UNL     1      25.570   4.776  49.800  1.00  0.00     0.036 C 
ENDROOT
BRANCH   8  10
HETATM   10  N1  UNL     1      24.417   2.882  50.680  1.00  0.00    -0.358 N 
HETATM   11  H15 UNL     1      23.944   2.605  49.774  1.00  0.00     0.166 HD
BRANCH  10  12
HETATM   12  C10 UNL     1      24.655   1.806  51.558  1.00  0.00     0.033 A 
HETATM   13  C11 UNL     1      25.974   1.420  51.727  1.00  0.00     0.029 A 
HETATM   14  C12 UNL     1      26.289   0.365  52.579  1.00  0.00     0.004 A 
HETATM   15  C13 UNL     1      25.220  -0.241  53.214  1.00  0.00     0.021 A 
HETATM   16  C14 UNL     1      23.887   0.094  53.088  1.00  0.00     0.022 A 
HETATM   17  C17 UNL     1      23.621   1.155  52.227  1.00  0.00     0.050 A 
BRANCH  16  18
HETATM   18  C15 UNL     1      22.866  -0.604  53.795  1.00  0.00    -0.037 C 
HETATM   19  C16 UNL     1      21.988  -1.194  54.394  1.00  0.00     0.057 C 
BRANCH  19  20
HETATM   20  O4  UNL     1      20.981  -1.865  55.056  1.00  0.00    -0.314 OA
HETATM   21  H19 UNL     1      21.228  -2.358  55.920  1.00  0.00     0.230 HD
ENDBRANCH  19  20
ENDBRANCH  16  18
ENDBRANCH  10  12
ENDBRANCH   8  10
BRANCH   1  22
HETATM   22  C3  UNL     1      27.237   6.168  48.525  1.00  0.00     0.066 C 
BRANCH  22  23
HETATM   23  C2  UNL     1      28.034   4.883  48.498  1.00  0.00     0.171 C 
BRANCH  23  24
HETATM   24  O1  UNL     1      29.374   5.252  48.344  1.00  0.00    -0.396 OA
HETATM   25  C1  UNL     1      29.505   6.610  48.064  1.00  0.00     0.201 C 
ENDBRANCH  23  24
ENDBRANCH  22  23
ENDBRANCH   1  22
TORSDOF 7
ENDMDL
MODEL 5
REMARK VINA RESULT:      -7.3      3.559      6.514
REMARK  7 active torsions:
REMARK  status: ('A' for Active; 'I' for Inactive)
REMARK    1  A    between atoms: O1_2  and  C2_3 
REMARK    2  A    between atoms: C2_3  and  C3_4 
REMARK    3  A    between atoms: C3_4  and  C4_5 
REMARK    4  A    between atoms: C9_12  and  N1_13 
REMARK    5  A    between atoms: N1_13  and  C10_14 
REMARK    6  A    between atoms: C14_18  and  C15_19 
REMARK    7  A    between atoms: C16_20  and  O4_21 
ROOT
HETATM    1  C4  UNL     1      25.762   5.803  49.628  1.00  0.00    -0.032 C 
HETATM    2  C5  UNL     1      25.241   6.974  50.061  1.00  0.00     0.141 C 
HETATM    3  O2  UNL     1      24.473   7.970  50.706  1.00  0.00    -0.360 OA
HETATM    4  C6  UNL     1      23.056   7.850  50.431  1.00  0.00     0.200 C 
HETATM    5  C7  UNL     1      22.863   6.326  50.421  1.00  0.00     0.194 C 
HETATM    6  O3  UNL     1      23.258   5.888  51.694  1.00  0.00    -0.383 OA
HETATM    7  C8  UNL     1      23.268   4.486  51.730  1.00  0.00     0.224 C 
HETATM    8  C9  UNL     1      24.374   4.009  50.813  1.00  0.00     0.034 C 
HETATM    9  C18 UNL     1      25.311   4.490  50.021  1.00  0.00     0.036 C 
ENDROOT
BRANCH   8  10
HETATM   10  N1  UNL     1      24.237   2.577  50.956  1.00  0.00    -0.358 N 
HETATM   11  H15 UNL     1      23.702   2.295  50.086  1.00  0.00     0.166 HD
BRANCH  10  12
HETATM   12  C10 UNL     1      24.555   1.501  51.810  1.00  0.00     0.033 A 
HETATM   13  C11 UNL     1      23.495   0.871  52.440  1.00  0.00     0.029 A 
HETATM   14  C12 UNL     1      23.730  -0.199  53.298  1.00  0.00     0.004 A 
HETATM   15  C13 UNL     1      25.054  -0.565  53.462  1.00  0.00     0.021 A 
HETATM   16  C14 UNL     1      26.152   0.021  52.866  1.00  0.00     0.022 A 
HETATM   17  C17 UNL     1      25.868   1.086  52.017  1.00  0.00     0.050 A 
BRANCH  16  18
HETATM   18  C15 UNL     1      27.477  -0.443  53.111  1.00  0.00    -0.037 C 
HETATM   19  C16 UNL     1      28.611  -0.831  53.314  1.00  0.00     0.057 C 
BRANCH  19  20
HETATM   20  O4  UNL     1      29.904  -1.252  53.545  1.00  0.00    -0.314 OA
HETATM   21  H19 UNL     1      30.282  -1.982  52.933  1.00  0.00     0.230 HD
ENDBRANCH  19  20
ENDBRANCH  16  18
ENDBRANCH  10  12
ENDBRANCH   8  10
BRANCH   1  22
HETATM   22  C3  UNL     1      26.888   5.912  48.665  1.00  0.00     0.066 C 
BRANCH  22  23
HETATM   23  C2  UNL     1      27.759   4.674  48.664  1.00  0.00     0.171 C 
BRANCH  23  24
HETATM   24  O1  UNL     1      29.046   5.099  48.322  1.00  0.00    -0.396 OA
HETATM   25  C1  UNL     1      29.081   6.462  48.039  1.00  0.00     0.201 C 
ENDBRANCH  23  24
ENDBRANCH  22  23
ENDBRANCH   1  22
TORSDOF 7
ENDMDL
MODEL 6
REMARK VINA RESULT:      -7.1      1.406      3.920
REMARK  7 active torsions:
REMARK  status: ('A' for Active; 'I' for Inactive)
REMARK    1  A    between atoms: O1_2  and  C2_3 
REMARK    2  A    between atoms: C2_3  and  C3_4 
REMARK    3  A    between atoms: C3_4  and  C4_5 
REMARK    4  A    between atoms: C9_12  and  N1_13 
REMARK    5  A    between atoms: N1_13  and  C10_14 
REMARK    6  A    between atoms: C14_18  and  C15_19 
REMARK    7  A    between atoms: C16_20  and  O4_21 
ROOT
HETATM    1  C4  UNL     1      26.262   1.408  52.029  1.00  0.00    -0.032 C 
HETATM    2  C5  UNL     1      27.372   0.865  52.578  1.00  0.00     0.141 C 
HETATM    3  O2  UNL     1      28.281   0.101  53.344  1.00  0.00    -0.360 OA
HETATM    4  C6  UNL     1      28.086   0.261  54.771  1.00  0.00     0.200 C 
HETATM    5  C7  UNL     1      26.555   0.345  54.873  1.00  0.00     0.194 C 
HETATM    6  O3  UNL     1      26.076  -0.862  54.343  1.00  0.00    -0.383 OA
HETATM    7  C8  UNL     1      24.677  -0.815  54.246  1.00  0.00     0.224 C 
HETATM    8  C9  UNL     1      24.322   0.218  53.199  1.00  0.00     0.034 C 
HETATM    9  C18 UNL     1      24.904   1.056  52.365  1.00  0.00     0.036 C 
ENDROOT
BRANCH   8  10
HETATM   10  N1  UNL     1      22.878   0.148  53.238  1.00  0.00    -0.358 N 
HETATM   11  H15 UNL     1      22.671  -0.057  54.255  1.00  0.00     0.166 HD
BRANCH  10  12
HETATM   12  C10 UNL     1      21.730   0.256  52.427  1.00  0.00     0.033 A 
HETATM   13  C11 UNL     1      21.908   0.794  51.163  1.00  0.00     0.029 A 
HETATM   14  C12 UNL     1      20.822   0.932  50.304  1.00  0.00     0.004 A 
HETATM   15  C13 UNL     1      19.602   0.506  50.797  1.00  0.00     0.021 A 
HETATM   16  C14 UNL     1      19.358  -0.037  52.042  1.00  0.00     0.022 A 
HETATM   17  C17 UNL     1      20.475  -0.155  52.866  1.00  0.00     0.050 A 
BRANCH  16  18
HETATM   18  C15 UNL     1      18.053  -0.443  52.443  1.00  0.00    -0.037 C 
HETATM   19  C16 UNL     1      16.941  -0.800  52.782  1.00  0.00     0.057 C 
BRANCH  19  20
HETATM   20  O4  UNL     1      15.688  -1.220  53.174  1.00  0.00    -0.314 OA
HETATM   21  H19 UNL     1      15.091  -0.544  53.661  1.00  0.00     0.230 HD
ENDBRANCH  19  20
ENDBRANCH  16  18
ENDBRANCH  10  12
ENDBRANCH   8  10
BRANCH   1  22
HETATM   22  C3  UNL     1      26.494   2.455  51.000  1.00  0.00     0.066 C 
BRANCH  22  23
HETATM   23  C2  UNL     1      25.290   3.353  50.819  1.00  0.00     0.171 C 
BRANCH  23  24
HETATM   24  O1  UNL     1      25.678   4.356  49.925  1.00  0.00    -0.396 OA
HETATM   25  C1  UNL     1      26.891   4.058  49.311  1.00  0.00     0.201 C 
ENDBRANCH  23  24
ENDBRANCH  22  23
ENDBRANCH   1  22
TORSDOF 7
ENDMDL
MODEL 7
REMARK VINA RESULT:      -7.1      4.846      6.812
REMARK  7 active torsions:
REMARK  status: ('A' for Active; 'I' for Inactive)
REMARK    1  A    between atoms: O1_2  and  C2_3 
REMARK    2  A    between atoms: C2_3  and  C3_4 
REMARK    3  A    between atoms: C3_4  and  C4_5 
REMARK    4  A    between atoms: C9_12  and  N1_13 
REMARK    5  A    between atoms: N1_13  and  C10_14 
REMARK    6  A    between atoms: C14_18  and  C15_19 
REMARK    7  A    between atoms: C16_20  and  O4_21 
ROOT
HETATM    1  C4  UNL     1      27.773   5.614  48.555  1.00  0.00    -0.032 C 
HETATM    2  C5  UNL     1      27.199   6.837  48.495  1.00  0.00     0.141 C 
HETATM    3  O2  UNL     1      26.330   7.944  48.625  1.00  0.00    -0.360 OA
HETATM    4  C6  UNL     1      25.012   7.689  48.080  1.00  0.00     0.200 C 
HETATM    5  C7  UNL     1      24.785   6.221  48.472  1.00  0.00     0.194 C 
HETATM    6  O3  UNL     1      24.862   6.190  49.873  1.00  0.00    -0.383 OA
HETATM    7  C8  UNL     1      24.826   4.861  50.319  1.00  0.00     0.224 C 
HETATM    8  C9  UNL     1      26.100   4.185  49.862  1.00  0.00     0.034 C 
HETATM    9  C18 UNL     1      27.208   4.454  49.202  1.00  0.00     0.036 C 
ENDROOT
BRANCH   8  10
HETATM   10  N1  UNL     1      25.894   2.852  50.383  1.00  0.00    -0.358 N 
HETATM   11  H15 UNL     1      25.554   2.311  49.539  1.00  0.00     0.166 HD
BRANCH  10  12
HETATM   12  C10 UNL     1      25.989   2.084  51.561  1.00  0.00     0.033 A 
HETATM   13  C11 UNL     1      25.435   2.630  52.707  1.00  0.00     0.029 A 
HETATM   14  C12 UNL     1      25.488   1.931  53.909  1.00  0.00     0.004 A 
HETATM   15  C13 UNL     1      26.115   0.698  53.866  1.00  0.00     0.021 A 
HETATM   16  C14 UNL     1      26.685   0.100  52.761  1.00  0.00     0.022 A 
HETATM   17  C17 UNL     1      26.607   0.837  51.582  1.00  0.00     0.050 A 
BRANCH  16  18
HETATM   18  C15 UNL     1      27.307  -1.179  52.835  1.00  0.00    -0.037 C 
HETATM   19  C16 UNL     1      27.839  -2.270  52.908  1.00  0.00     0.057 C 
BRANCH  19  20
HETATM   20  O4  UNL     1      28.434  -3.510  53.009  1.00  0.00    -0.314 OA
HETATM   21  H19 UNL     1      28.214  -4.202  52.286  1.00  0.00     0.230 HD
ENDBRANCH  19  20
ENDBRANCH  16  18
ENDBRANCH  10  12
ENDBRANCH   8  10
BRANCH   1  22
HETATM   22  C3  UNL     1      29.094   5.485  47.888  1.00  0.00     0.066 C 
BRANCH  22  23
HETATM   23  C2  UNL     1      30.153   6.340  48.549  1.00  0.00     0.171 C 
BRANCH  23  24
HETATM   24  O1  UNL     1      30.959   5.468  49.287  1.00  0.00    -0.396 OA
HETATM   25  C1  UNL     1      32.254   5.959  49.430  1.00  0.00     0.201 C 
ENDBRANCH  23  24
ENDBRANCH  22  23
ENDBRANCH   1  22
TORSDOF 7
ENDMDL
MODEL 8
REMARK VINA RESULT:      -6.9      4.516      7.240
REMARK  7 active torsions:
REMARK  status: ('A' for Active; 'I' for Inactive)
REMARK    1  A    between atoms: O1_2  and  C2_3 
REMARK    2  A    between atoms: C2_3  and  C3_4 
REMARK    3  A    between atoms: C3_4  and  C4_5 
REMARK    4  A    between atoms: C9_12  and  N1_13 
REMARK    5  A    between atoms: N1_13  and  C10_14 
REMARK    6  A    between atoms: C14_18  and  C15_19 
REMARK    7  A    between atoms: C16_20  and  O4_21 
ROOT
HETATM    1  C4  UNL     1      28.947   5.919  48.289  1.00  0.00    -0.032 C 
HETATM    2  C5  UNL     1      28.813   7.264  48.344  1.00  0.00     0.141 C 
HETATM    3  O2  UNL     1      28.330   8.581  48.516  1.00  0.00    -0.360 OA
HETATM    4  C6  UNL     1      27.145   8.851  47.727  1.00  0.00     0.200 C 
HETATM    5  C7  UNL     1      26.391   7.516  47.821  1.00  0.00     0.194 C 
HETATM    6  O3  UNL     1      26.156   7.313  49.189  1.00  0.00    -0.383 OA
HETATM    7  C8  UNL     1      25.609   6.037  49.391  1.00  0.00     0.224 C 
HETATM    8  C9  UNL     1      26.672   5.019  49.041  1.00  0.00     0.034 C 
HETATM    9  C18 UNL     1      27.922   4.961  48.627  1.00  0.00     0.036 C 
ENDROOT
BRANCH   8  10
HETATM   10  N1  UNL     1      25.953   3.789  49.286  1.00  0.00    -0.358 N 
HETATM   11  H15 UNL     1      25.614   3.508  48.323  1.00  0.00     0.166 HD
BRANCH  10  12
HETATM   12  C10 UNL     1      25.576   2.898  50.311  1.00  0.00     0.033 A 
HETATM   13  C11 UNL     1      24.241   2.905  50.683  1.00  0.00     0.029 A 
HETATM   14  C12 UNL     1      23.792   2.053  51.687  1.00  0.00     0.004 A 
HETATM   15  C13 UNL     1      24.749   1.235  52.260  1.00  0.00     0.021 A 
HETATM   16  C14 UNL     1      26.090   1.180  51.937  1.00  0.00     0.022 A 
HETATM   17  C17 UNL     1      26.492   2.050  50.926  1.00  0.00     0.050 A 
BRANCH  16  18
HETATM   18  C15 UNL     1      26.987   0.292  52.597  1.00  0.00    -0.037 C 
HETATM   19  C16 UNL     1      27.748  -0.464  53.170  1.00  0.00     0.057 C 
BRANCH  19  20
HETATM   20  O4  UNL     1      28.595  -1.330  53.829  1.00  0.00    -0.314 OA
HETATM   21  H19 UNL     1      29.601  -1.231  53.660  1.00  0.00     0.230 HD
ENDBRANCH  19  20
ENDBRANCH  16  18
ENDBRANCH  10  12
ENDBRANCH   8  10
BRANCH   1  22
HETATM   22  C3  UNL     1      30.270   5.418  47.836  1.00  0.00     0.066 C 
BRANCH  22  23
HETATM   23  C2  UNL     1      31.389   5.839  48.764  1.00  0.00     0.171 C 
BRANCH  23  24
HETATM   24  O1  UNL     1      32.557   5.259  48.262  1.00  0.00    -0.396 OA
HETATM   25  C1  UNL     1      32.301   4.042  47.637  1.00  0.00     0.201 C 
ENDBRANCH  23  24
ENDBRANCH  22  23
ENDBRANCH   1  22
TORSDOF 7
ENDMDL
MODEL 9
REMARK VINA RESULT:      -6.9      2.170      4.425
REMARK  7 active torsions:
REMARK  status: ('A' for Active; 'I' for Inactive)
REMARK    1  A    between atoms: O1_2  and  C2_3 
REMARK    2  A    between atoms: C2_3  and  C3_4 
REMARK    3  A    between atoms: C3_4  and  C4_5 
REMARK    4  A    between atoms: C9_12  and  N1_13 
REMARK    5  A    between atoms: N1_13  and  C10_14 
REMARK    6  A    between atoms: C14_18  and  C15_19 
REMARK    7  A    between atoms: C16_20  and  O4_21 
ROOT
HETATM    1  C4  UNL     1      26.372   1.674  52.022  1.00  0.00    -0.032 C 
HETATM    2  C5  UNL     1      27.611   1.448  52.514  1.00  0.00     0.141 C 
HETATM    3  O2  UNL     1      28.731   0.936  53.207  1.00  0.00    -0.360 OA
HETATM    4  C6  UNL     1      28.544   0.921  54.644  1.00  0.00     0.200 C 
HETATM    5  C7  UNL     1      27.062   0.534  54.765  1.00  0.00     0.194 C 
HETATM    6  O3  UNL     1      26.948  -0.718  54.141  1.00  0.00    -0.383 OA
HETATM    7  C8  UNL     1      25.596  -1.085  54.060  1.00  0.00     0.224 C 
HETATM    8  C9  UNL     1      24.914  -0.129  53.106  1.00  0.00     0.034 C 
HETATM    9  C18 UNL     1      25.192   0.906  52.339  1.00  0.00     0.036 C 
ENDROOT
BRANCH   8  10
HETATM   10  N1  UNL     1      23.560  -0.631  53.151  1.00  0.00    -0.358 N 
HETATM   11  H15 UNL     1      23.669  -1.590  53.588  1.00  0.00     0.166 HD
BRANCH  10  12
HETATM   12  C10 UNL     1      22.229  -0.294  52.829  1.00  0.00     0.033 A 
HETATM   13  C11 UNL     1      21.265  -0.591  53.778  1.00  0.00     0.029 A 
HETATM   14  C12 UNL     1      19.929  -0.287  53.533  1.00  0.00     0.004 A 
HETATM   15  C13 UNL     1      19.656   0.309  52.315  1.00  0.00     0.021 A 
HETATM   16  C14 UNL     1      20.568   0.629  51.330  1.00  0.00     0.022 A 
HETATM   17  C17 UNL     1      21.891   0.307  51.620  1.00  0.00     0.050 A 
BRANCH  16  18
HETATM   18  C15 UNL     1      20.170   1.245  50.109  1.00  0.00    -0.037 C 
HETATM   19  C16 UNL     1      19.838   1.778  49.067  1.00  0.00     0.057 C 
BRANCH  19  20
HETATM   20  O4  UNL     1      19.481   2.383  47.881  1.00  0.00    -0.314 OA
HETATM   21  H19 UNL     1      19.269   3.386  47.905  1.00  0.00     0.230 HD
ENDBRANCH  19  20
ENDBRANCH  16  18
ENDBRANCH  10  12
ENDBRANCH   8  10
BRANCH   1  22
HETATM   22  C3  UNL     1      26.247   2.817  51.081  1.00  0.00     0.066 C 
BRANCH  22  23
HETATM   23  C2  UNL     1      24.880   3.462  51.146  1.00  0.00     0.171 C 
BRANCH  23  24
HETATM   24  O1  UNL     1      24.515   3.745  49.826  1.00  0.00    -0.396 OA
HETATM   25  C1  UNL     1      23.473   2.929  49.393  1.00  0.00     0.201 C 
ENDBRANCH  23  24
ENDBRANCH  22  23
ENDBRANCH   1  22
TORSDOF 7
ENDMDL
