MODEL 1
REMARK VINA RESULT:      -8.7      0.000      0.000
REMARK  9 active torsions:
REMARK  status: ('A' for Active; 'I' for Inactive)
REMARK    1  A    between atoms: O1_2  and  C2_3 
REMARK    2  A    between atoms: C6_9  and  N3_10 
REMARK    3  A    between atoms: N3_10  and  C7_11 
REMARK    4  A    between atoms: C11_16  and  O2_17 
REMARK    5  A    between atoms: C15_21  and  O3_22 
REMARK    6  A    between atoms: O3_22  and  C16_23 
REMARK    7  A    between atoms: C16_23  and  C17_24 
REMARK    8  A    between atoms: C17_24  and  C18_25 
REMARK    9  A    between atoms: C18_25  and  N4_26 
ROOT
HETATM    1  C2  UNL     1      20.153   0.557  52.249  1.00  0.00     0.103 A 
HETATM    2  C3  UNL     1      20.297  -0.156  53.421  1.00  0.00     0.072 A 
HETATM    3  C4  UNL     1      21.580  -0.432  53.830  1.00  0.00     0.075 A 
HETATM    4  N1  UNL     1      21.683  -1.136  54.992  1.00  0.00    -0.241 NA
HETATM    5  C5  UNL     1      22.900  -1.462  55.486  1.00  0.00     0.236 A 
HETATM    6  N2  UNL     1      23.975  -1.069  54.797  1.00  0.00    -0.224 NA
HETATM    7  C6  UNL     1      23.973  -0.379  53.655  1.00  0.00     0.142 A 
HETATM    8  C13 UNL     1      22.728  -0.061  53.174  1.00  0.00     0.042 A 
HETATM    9  C14 UNL     1      22.486   0.643  52.022  1.00  0.00     0.057 A 
HETATM   10  C15 UNL     1      21.263   0.984  51.502  1.00  0.00     0.103 A 
ENDROOT
BRANCH   7  11
HETATM   11  N3  UNL     1      25.114   0.024  52.948  1.00  0.00    -0.340 N 
HETATM   12  H6  UNL     1      25.064   0.691  52.154  1.00  0.00     0.167 HD
BRANCH  11  13
HETATM   13  C7  UNL     1      26.463  -0.354  53.141  1.00  0.00     0.036 A 
HETATM   14  C8  UNL     1      27.484   0.504  53.568  1.00  0.00     0.032 A 
HETATM   15  C9  UNL     1      28.780   0.127  53.754  1.00  0.00     0.047 A 
HETATM   16  C10 UNL     1      29.161  -1.169  53.520  1.00  0.00     0.149 A 
HETATM   17  F1  UNL     1      30.465  -1.468  53.727  1.00  0.00    -0.203 F 
HETATM   18  C11 UNL     1      28.210  -2.058  53.100  1.00  0.00     0.106 A 
HETATM   19  C12 UNL     1      26.905  -1.636  52.924  1.00  0.00     0.069 A 
BRANCH  18  20
HETATM   20  O2  UNL     1      28.638  -3.361  52.873  1.00  0.00    -0.358 OA
HETATM   21  H9  UNL     1      29.348  -3.804  53.469  1.00  0.00     0.217 HD
ENDBRANCH  18  20
ENDBRANCH  11  13
ENDBRANCH   7  11
BRANCH  10  22
HETATM   22  O3  UNL     1      20.923   1.672  50.375  1.00  0.00    -0.348 OA
BRANCH  22  23
HETATM   23  C16 UNL     1      21.240   2.926  49.921  1.00  0.00     0.177 C 
BRANCH  23  24
HETATM   24  C17 UNL     1      22.675   3.219  49.616  1.00  0.00     0.057 C 
BRANCH  24  25
HETATM   25  C18 UNL     1      23.072   4.388  50.510  1.00  0.00     0.274 C 
BRANCH  25  26
HETATM   26  N4  UNL     1      24.454   4.277  50.871  1.00  0.00     0.092 N 
HETATM   27  C19 UNL     1      24.890   2.904  50.565  1.00  0.00     0.298 C 
HETATM   28  C20 UNL     1      26.367   2.865  50.886  1.00  0.00     0.198 C 
HETATM   29  O4  UNL     1      27.108   3.677  50.048  1.00  0.00    -0.388 OA
HETATM   30  C21 UNL     1      26.292   4.489  49.301  1.00  0.00     0.198 C 
HETATM   31  C22 UNL     1      25.241   5.226  50.096  1.00  0.00     0.298 C 
ENDBRANCH  25  26
ENDBRANCH  24  25
ENDBRANCH  23  24
ENDBRANCH  22  23
ENDBRANCH  10  22
BRANCH   1  32
HETATM   32  O1  UNL     1      18.852   0.833  51.841  1.00  0.00    -0.353 OA
HETATM   33  C1  UNL     1      18.025  -0.157  51.270  1.00  0.00     0.210 C 
ENDBRANCH   1  32
TORSDOF 9
ENDMDL
MODEL 2
REMARK VINA RESULT:      -8.6      1.269      1.701
REMARK  9 active torsions:
REMARK  status: ('A' for Active; 'I' for Inactive)
REMARK    1  A    between atoms: O1_2  and  C2_3 
REMARK    2  A    between atoms: C6_9  and  N3_10 
REMARK    3  A    between atoms: N3_10  and  C7_11 
REMARK    4  A    between atoms: C11_16  and  O2_17 
REMARK    5  A    between atoms: C15_21  and  O3_22 
REMARK    6  A    between atoms: O3_22  and  C16_23 
REMARK    7  A    between atoms: C16_23  and  C17_24 
REMARK    8  A    between atoms: C17_24  and  C18_25 
REMARK    9  A    between atoms: C18_25  and  N4_26 
ROOT
HETATM    1  C2  UNL     1      19.960   0.157  51.883  1.00  0.00     0.103 A 
HETATM    2  C3  UNL     1      20.109  -0.427  53.123  1.00  0.00     0.072 A 
HETATM    3  C4  UNL     1      21.392  -0.567  53.597  1.00  0.00     0.075 A 
HETATM    4  N1  UNL     1      21.500  -1.147  54.826  1.00  0.00    -0.241 NA
HETATM    5  C5  UNL     1      22.717  -1.333  55.387  1.00  0.00     0.236 A 
HETATM    6  N2  UNL     1      23.787  -0.930  54.696  1.00  0.00    -0.224 NA
HETATM    7  C6  UNL     1      23.780  -0.354  53.492  1.00  0.00     0.142 A 
HETATM    8  C13 UNL     1      22.535  -0.177  52.944  1.00  0.00     0.042 A 
HETATM    9  C14 UNL     1      22.288   0.393  51.721  1.00  0.00     0.057 A 
HETATM   10  C15 UNL     1      21.065   0.591  51.131  1.00  0.00     0.103 A 
ENDROOT
BRANCH   7  11
HETATM   11  N3  UNL     1      24.915   0.062  52.784  1.00  0.00    -0.340 N 
HETATM   12  H6  UNL     1      24.857   0.727  51.990  1.00  0.00     0.167 HD
BRANCH  11  13
HETATM   13  C7  UNL     1      26.269  -0.299  52.977  1.00  0.00     0.036 A 
HETATM   14  C8  UNL     1      27.294   0.587  53.335  1.00  0.00     0.032 A 
HETATM   15  C9  UNL     1      28.594   0.226  53.522  1.00  0.00     0.047 A 
HETATM   16  C10 UNL     1      28.977  -1.080  53.361  1.00  0.00     0.149 A 
HETATM   17  F1  UNL     1      30.285  -1.362  53.564  1.00  0.00    -0.203 F 
HETATM   18  C11 UNL     1      28.023  -1.996  53.011  1.00  0.00     0.106 A 
HETATM   19  C12 UNL     1      26.714  -1.590  52.831  1.00  0.00     0.069 A 
BRANCH  18  20
HETATM   20  O2  UNL     1      28.452  -3.309  52.857  1.00  0.00    -0.358 OA
HETATM   21  H9  UNL     1      28.618  -3.715  51.927  1.00  0.00     0.217 HD
ENDBRANCH  18  20
ENDBRANCH  11  13
ENDBRANCH   7  11
BRANCH  10  22
HETATM   22  O3  UNL     1      20.720   1.141  49.933  1.00  0.00    -0.348 OA
BRANCH  22  23
HETATM   23  C16 UNL     1      21.450   1.496  48.829  1.00  0.00     0.177 C 
BRANCH  23  24
HETATM   24  C17 UNL     1      21.940   2.906  48.737  1.00  0.00     0.057 C 
BRANCH  24  25
HETATM   25  C18 UNL     1      23.400   2.883  49.177  1.00  0.00     0.274 C 
BRANCH  25  26
HETATM   26  N4  UNL     1      23.637   3.921  50.134  1.00  0.00     0.092 N 
HETATM   27  C19 UNL     1      22.334   4.335  50.680  1.00  0.00     0.298 C 
HETATM   28  C20 UNL     1      22.645   5.369  51.739  1.00  0.00     0.198 C 
HETATM   29  O4  UNL     1      23.333   4.831  52.810  1.00  0.00    -0.388 OA
HETATM   30  C21 UNL     1      23.765   3.558  52.530  1.00  0.00     0.198 C 
HETATM   31  C22 UNL     1      24.480   3.414  51.208  1.00  0.00     0.298 C 
ENDBRANCH  25  26
ENDBRANCH  24  25
ENDBRANCH  23  24
ENDBRANCH  22  23
ENDBRANCH  10  22
BRANCH   1  32
HETATM   32  O1  UNL     1      18.660   0.295  51.409  1.00  0.00    -0.353 OA
HETATM   33  C1  UNL     1      17.556  -0.260  52.089  1.00  0.00     0.210 C 
ENDBRANCH   1  32
TORSDOF 9
ENDMDL
MODEL 3
REMARK VINA RESULT:      -8.5      1.823      2.142
REMARK  9 active torsions:
REMARK  status: ('A' for Active; 'I' for Inactive)
REMARK    1  A    between atoms: O1_2  and  C2_3 
REMARK    2  A    between atoms: C6_9  and  N3_10 
REMARK    3  A    between atoms: N3_10  and  C7_11 
REMARK    4  A    between atoms: C11_16  and  O2_17 
REMARK    5  A    between atoms: C15_21  and  O3_22 
REMARK    6  A    between atoms: O3_22  and  C16_23 
REMARK    7  A    between atoms: C16_23  and  C17_24 
REMARK    8  A    between atoms: C17_24  and  C18_25 
REMARK    9  A    between atoms: C18_25  and  N4_26 
ROOT
HETATM    1  C2  UNL     1      19.901  -0.185  52.427  1.00  0.00     0.103 A 
HETATM    2  C3  UNL     1      20.215  -0.748  53.646  1.00  0.00     0.072 A 
HETATM    3  C4  UNL     1      21.547  -0.806  53.982  1.00  0.00     0.075 A 
HETATM    4  N1  UNL     1      21.819  -1.367  55.194  1.00  0.00    -0.241 NA
HETATM    5  C5  UNL     1      23.097  -1.475  55.624  1.00  0.00     0.236 A 
HETATM    6  N2  UNL     1      24.062  -1.016  54.823  1.00  0.00    -0.224 NA
HETATM    7  C6  UNL     1      23.894  -0.453  53.625  1.00  0.00     0.142 A 
HETATM    8  C13 UNL     1      22.589  -0.355  53.210  1.00  0.00     0.042 A 
HETATM    9  C14 UNL     1      22.181   0.187  52.019  1.00  0.00     0.057 A 
HETATM   10  C15 UNL     1      20.893   0.307  51.561  1.00  0.00     0.103 A 
ENDROOT
BRANCH   7  11
HETATM   11  N3  UNL     1      24.921   0.023  52.799  1.00  0.00    -0.340 N 
HETATM   12  H6  UNL     1      24.738   0.385  51.844  1.00  0.00     0.167 HD
BRANCH  11  13
HETATM   13  C7  UNL     1      26.309   0.108  53.061  1.00  0.00     0.036 A 
HETATM   14  C8  UNL     1      27.213  -0.957  52.956  1.00  0.00     0.032 A 
HETATM   15  C9  UNL     1      28.548  -0.862  53.206  1.00  0.00     0.047 A 
HETATM   16  C10 UNL     1      29.093   0.336  53.591  1.00  0.00     0.149 A 
HETATM   17  F1  UNL     1      30.427   0.352  53.822  1.00  0.00    -0.203 F 
HETATM   18  C11 UNL     1      28.264   1.416  53.713  1.00  0.00     0.106 A 
HETATM   19  C12 UNL     1      26.913   1.278  53.449  1.00  0.00     0.069 A 
BRANCH  18  20
HETATM   20  O2  UNL     1      28.856   2.611  54.106  1.00  0.00    -0.358 OA
HETATM   21  H9  UNL     1      29.865   2.773  53.993  1.00  0.00     0.217 HD
ENDBRANCH  18  20
ENDBRANCH  11  13
ENDBRANCH   7  11
BRANCH  10  22
HETATM   22  O3  UNL     1      20.391   0.824  50.404  1.00  0.00    -0.348 OA
BRANCH  22  23
HETATM   23  C16 UNL     1      20.714   1.932  49.665  1.00  0.00     0.177 C 
BRANCH  23  24
HETATM   24  C17 UNL     1      22.007   1.920  48.913  1.00  0.00     0.057 C 
BRANCH  24  25
HETATM   25  C18 UNL     1      22.685   3.254  49.205  1.00  0.00     0.274 C 
BRANCH  25  26
HETATM   26  N4  UNL     1      22.621   3.536  50.608  1.00  0.00     0.092 N 
HETATM   27  C19 UNL     1      23.925   3.185  51.196  1.00  0.00     0.298 C 
HETATM   28  C20 UNL     1      23.833   3.577  52.654  1.00  0.00     0.198 C 
HETATM   29  O4  UNL     1      23.714   4.943  52.823  1.00  0.00    -0.388 OA
HETATM   30  C21 UNL     1      23.469   5.569  51.626  1.00  0.00     0.198 C 
HETATM   31  C22 UNL     1      22.356   4.953  50.811  1.00  0.00     0.298 C 
ENDBRANCH  25  26
ENDBRANCH  24  25
ENDBRANCH  23  24
ENDBRANCH  22  23
ENDBRANCH  10  22
BRANCH   1  32
HETATM   32  O1  UNL     1      18.553  -0.128  52.093  1.00  0.00    -0.353 OA
HETATM   33  C1  UNL     1      17.624  -1.073  52.579  1.00  0.00     0.210 C 
ENDBRANCH   1  32
TORSDOF 9
ENDMDL
MODEL 4
REMARK VINA RESULT:      -8.2      2.988      6.601
REMARK  9 active torsions:
REMARK  status: ('A' for Active; 'I' for Inactive)
REMARK    1  A    between atoms: O1_2  and  C2_3 
REMARK    2  A    between atoms: C6_9  and  N3_10 
REMARK    3  A    between atoms: N3_10  and  C7_11 
REMARK    4  A    between atoms: C11_16  and  O2_17 
REMARK    5  A    between atoms: C15_21  and  O3_22 
REMARK    6  A    between atoms: O3_22  and  C16_23 
REMARK    7  A    between atoms: C16_23  and  C17_24 
REMARK    8  A    between atoms: C17_24  and  C18_25 
REMARK    9  A    between atoms: C18_25  and  N4_26 
ROOT
HETATM    1  C2  UNL     1      26.968   0.462  53.100  1.00  0.00     0.103 A 
HETATM    2  C3  UNL     1      26.493  -0.307  54.140  1.00  0.00     0.072 A 
HETATM    3  C4  UNL     1      25.128  -0.445  54.242  1.00  0.00     0.075 A 
HETATM    4  N1  UNL     1      24.695  -1.214  55.281  1.00  0.00    -0.241 NA
HETATM    5  C5  UNL     1      23.372  -1.415  55.475  1.00  0.00     0.236 A 
HETATM    6  N2  UNL     1      22.525  -0.839  54.617  1.00  0.00    -0.224 NA
HETATM    7  C6  UNL     1      22.853  -0.074  53.575  1.00  0.00     0.142 A 
HETATM    8  C13 UNL     1      24.201   0.116  53.399  1.00  0.00     0.042 A 
HETATM    9  C14 UNL     1      24.766   0.862  52.397  1.00  0.00     0.057 A 
HETATM   10  C15 UNL     1      26.103   1.082  52.181  1.00  0.00     0.103 A 
ENDROOT
BRANCH   7  11
HETATM   11  N3  UNL     1      21.947   0.521  52.686  1.00  0.00    -0.340 N 
HETATM   12  H6  UNL     1      22.209   1.330  52.091  1.00  0.00     0.167 HD
BRANCH  11  13
HETATM   13  C7  UNL     1      20.599   0.182  52.427  1.00  0.00     0.036 A 
HETATM   14  C8  UNL     1      19.928   0.421  51.220  1.00  0.00     0.032 A 
HETATM   15  C9  UNL     1      18.630   0.086  50.981  1.00  0.00     0.047 A 
HETATM   16  C10 UNL     1      17.886  -0.528  51.955  1.00  0.00     0.149 A 
HETATM   17  F1  UNL     1      16.604  -0.830  51.643  1.00  0.00    -0.203 F 
HETATM   18  C11 UNL     1      18.482  -0.789  53.157  1.00  0.00     0.106 A 
HETATM   19  C12 UNL     1      19.803  -0.434  53.361  1.00  0.00     0.069 A 
BRANCH  18  20
HETATM   20  O2  UNL     1      17.693  -1.412  54.118  1.00  0.00    -0.358 OA
HETATM   21  H9  UNL     1      17.727  -2.429  54.263  1.00  0.00     0.217 HD
ENDBRANCH  18  20
ENDBRANCH  11  13
ENDBRANCH   7  11
BRANCH  10  22
HETATM   22  O3  UNL     1      26.756   1.801  51.225  1.00  0.00    -0.348 OA
BRANCH  22  23
HETATM   23  C16 UNL     1      26.580   3.067  50.732  1.00  0.00     0.177 C 
BRANCH  23  24
HETATM   24  C17 UNL     1      25.516   3.276  49.702  1.00  0.00     0.057 C 
BRANCH  24  25
HETATM   25  C18 UNL     1      25.067   4.727  49.837  1.00  0.00     0.274 C 
BRANCH  25  26
HETATM   26  N4  UNL     1      23.704   4.776  50.273  1.00  0.00     0.092 N 
HETATM   27  C19 UNL     1      23.110   3.449  50.041  1.00  0.00     0.298 C 
HETATM   28  C20 UNL     1      21.703   3.530  50.591  1.00  0.00     0.198 C 
HETATM   29  O4  UNL     1      21.685   3.701  51.962  1.00  0.00    -0.388 OA
HETATM   30  C21 UNL     1      22.939   3.993  52.439  1.00  0.00     0.198 C 
HETATM   31  C22 UNL     1      23.655   5.094  51.693  1.00  0.00     0.298 C 
ENDBRANCH  25  26
ENDBRANCH  24  25
ENDBRANCH  23  24
ENDBRANCH  22  23
ENDBRANCH  10  22
BRANCH   1  32
HETATM   32  O1  UNL     1      28.349   0.598  53.002  1.00  0.00    -0.353 OA
HETATM   33  C1  UNL     1      29.191   0.466  54.126  1.00  0.00     0.210 C 
ENDBRANCH   1  32
TORSDOF 9
ENDMDL
MODEL 5
REMARK VINA RESULT:      -8.1      2.435      3.871
REMARK  9 active torsions:
REMARK  status: ('A' for Active; 'I' for Inactive)
REMARK    1  A    between atoms: O1_2  and  C2_3 
REMARK    2  A    between atoms: C6_9  and  N3_10 
REMARK    3  A    between atoms: N3_10  and  C7_11 
REMARK    4  A    between atoms: C11_16  and  O2_17 
REMARK    5  A    between atoms: C15_21  and  O3_22 
REMARK    6  A    between atoms: O3_22  and  C16_23 
REMARK    7  A    between atoms: C16_23  and  C17_24 
REMARK    8  A    between atoms: C17_24  and  C18_25 
REMARK    9  A    between atoms: C18_25  and  N4_26 
ROOT
HETATM    1  C2  UNL     1      23.320   2.802  49.598  1.00  0.00     0.103 A 
HETATM    2  C3  UNL     1      22.464   1.842  50.094  1.00  0.00     0.072 A 
HETATM    3  C4  UNL     1      22.860   1.183  51.235  1.00  0.00     0.075 A 
HETATM    4  N1  UNL     1      21.987   0.243  51.697  1.00  0.00    -0.241 NA
HETATM    5  C5  UNL     1      22.277  -0.466  52.812  1.00  0.00     0.236 A 
HETATM    6  N2  UNL     1      23.434  -0.207  53.428  1.00  0.00    -0.224 NA
HETATM    7  C6  UNL     1      24.347   0.690  53.052  1.00  0.00     0.142 A 
HETATM    8  C13 UNL     1      24.031   1.396  51.919  1.00  0.00     0.042 A 
HETATM    9  C14 UNL     1      24.816   2.367  51.351  1.00  0.00     0.057 A 
HETATM   10  C15 UNL     1      24.544   3.097  50.222  1.00  0.00     0.103 A 
ENDROOT
BRANCH   7  11
HETATM   11  N3  UNL     1      25.555   0.947  53.714  1.00  0.00    -0.340 N 
HETATM   12  H6  UNL     1      25.667   1.743  54.370  1.00  0.00     0.167 HD
BRANCH  11  13
HETATM   13  C7  UNL     1      26.780   0.242  53.640  1.00  0.00     0.036 A 
HETATM   14  C8  UNL     1      28.036   0.779  53.952  1.00  0.00     0.032 A 
HETATM   15  C9  UNL     1      29.207   0.088  53.882  1.00  0.00     0.047 A 
HETATM   16  C10 UNL     1      29.212  -1.223  53.483  1.00  0.00     0.149 A 
HETATM   17  F1  UNL     1      30.414  -1.843  53.438  1.00  0.00    -0.203 F 
HETATM   18  C11 UNL     1      28.017  -1.807  53.164  1.00  0.00     0.106 A 
HETATM   19  C12 UNL     1      26.849  -1.072  53.249  1.00  0.00     0.069 A 
BRANCH  18  20
HETATM   20  O2  UNL     1      28.065  -3.138  52.764  1.00  0.00    -0.358 OA
HETATM   21  H9  UNL     1      28.575  -3.427  51.919  1.00  0.00     0.217 HD
ENDBRANCH  18  20
ENDBRANCH  11  13
ENDBRANCH   7  11
BRANCH  10  22
HETATM   22  O3  UNL     1      25.253   4.071  49.585  1.00  0.00    -0.348 OA
BRANCH  22  23
HETATM   23  C16 UNL     1      26.593   4.246  49.355  1.00  0.00     0.177 C 
BRANCH  23  24
HETATM   24  C17 UNL     1      27.029   5.501  48.668  1.00  0.00     0.057 C 
BRANCH  24  25
HETATM   25  C18 UNL     1      25.806   6.410  48.620  1.00  0.00     0.274 C 
BRANCH  25  26
HETATM   26  N4  UNL     1      26.002   7.537  49.481  1.00  0.00     0.092 N 
HETATM   27  C19 UNL     1      27.356   8.061  49.234  1.00  0.00     0.298 C 
HETATM   28  C20 UNL     1      27.482   9.293  50.102  1.00  0.00     0.198 C 
HETATM   29  O4  UNL     1      26.624  10.302  49.708  1.00  0.00    -0.388 OA
HETATM   30  C21 UNL     1      25.714   9.844  48.788  1.00  0.00     0.198 C 
HETATM   31  C22 UNL     1      25.015   8.564  49.177  1.00  0.00     0.298 C 
ENDBRANCH  25  26
ENDBRANCH  24  25
ENDBRANCH  23  24
ENDBRANCH  22  23
ENDBRANCH  10  22
BRANCH   1  32
HETATM   32  O1  UNL     1      22.914   3.465  48.445  1.00  0.00    -0.353 OA
HETATM   33  C1  UNL     1      22.224   2.803  47.408  1.00  0.00     0.210 C 
ENDBRANCH   1  32
TORSDOF 9
ENDMDL
MODEL 6
REMARK VINA RESULT:      -8.0      2.619      3.985
REMARK  9 active torsions:
REMARK  status: ('A' for Active; 'I' for Inactive)
REMARK    1  A    between atoms: O1_2  and  C2_3 
REMARK    2  A    between atoms: C6_9  and  N3_10 
REMARK    3  A    between atoms: N3_10  and  C7_11 
REMARK    4  A    between atoms: C11_16  and  O2_17 
REMARK    5  A    between atoms: C15_21  and  O3_22 
REMARK    6  A    between atoms: O3_22  and  C16_23 
REMARK    7  A    between atoms: C16_23  and  C17_24 
REMARK    8  A    between atoms: C17_24  and  C18_25 
REMARK    9  A    between atoms: C18_25  and  N4_26 
ROOT
HETATM    1  C2  UNL     1      23.121   2.691  49.524  1.00  0.00     0.103 A 
HETATM    2  C3  UNL     1      22.321   1.737  50.116  1.00  0.00     0.072 A 
HETATM    3  C4  UNL     1      22.801   1.145  51.261  1.00  0.00     0.075 A 
HETATM    4  N1  UNL     1      21.983   0.208  51.819  1.00  0.00    -0.241 NA
HETATM    5  C5  UNL     1      22.356  -0.438  52.947  1.00  0.00     0.236 A 
HETATM    6  N2  UNL     1      23.540  -0.121  53.480  1.00  0.00    -0.224 NA
HETATM    7  C6  UNL     1      24.404   0.779  53.008  1.00  0.00     0.142 A 
HETATM    8  C13 UNL     1      24.004   1.420  51.863  1.00  0.00     0.042 A 
HETATM    9  C14 UNL     1      24.728   2.380  51.204  1.00  0.00     0.057 A 
HETATM   10  C15 UNL     1      24.371   3.047  50.060  1.00  0.00     0.103 A 
ENDROOT
BRANCH   7  11
HETATM   11  N3  UNL     1      25.642   1.097  53.584  1.00  0.00    -0.340 N 
HETATM   12  H6  UNL     1      25.799   1.984  54.098  1.00  0.00     0.167 HD
BRANCH  11  13
HETATM   13  C7  UNL     1      26.842   0.348  53.590  1.00  0.00     0.036 A 
HETATM   14  C8  UNL     1      28.086   0.829  54.016  1.00  0.00     0.032 A 
HETATM   15  C9  UNL     1      29.234   0.096  54.022  1.00  0.00     0.047 A 
HETATM   16  C10 UNL     1      29.224  -1.205  53.590  1.00  0.00     0.149 A 
HETATM   17  F1  UNL     1      30.403  -1.868  53.624  1.00  0.00    -0.203 F 
HETATM   18  C11 UNL     1      28.039  -1.735  53.159  1.00  0.00     0.106 A 
HETATM   19  C12 UNL     1      26.895  -0.958  53.170  1.00  0.00     0.069 A 
BRANCH  18  20
HETATM   20  O2  UNL     1      28.071  -3.056  52.729  1.00  0.00    -0.358 OA
HETATM   21  H9  UNL     1      28.506  -3.795  53.296  1.00  0.00     0.217 HD
ENDBRANCH  18  20
ENDBRANCH  11  13
ENDBRANCH   7  11
BRANCH  10  22
HETATM   22  O3  UNL     1      25.015   4.006  49.336  1.00  0.00    -0.348 OA
BRANCH  22  23
HETATM   23  C16 UNL     1      26.020   4.885  49.645  1.00  0.00     0.177 C 
BRANCH  23  24
HETATM   24  C17 UNL     1      27.199   4.953  48.727  1.00  0.00     0.057 C 
BRANCH  24  25
HETATM   25  C18 UNL     1      27.411   6.429  48.410  1.00  0.00     0.274 C 
BRANCH  25  26
HETATM   26  N4  UNL     1      28.682   6.613  47.776  1.00  0.00     0.092 N 
HETATM   27  C19 UNL     1      29.260   7.868  48.286  1.00  0.00     0.298 C 
HETATM   28  C20 UNL     1      30.629   7.973  47.651  1.00  0.00     0.198 C 
HETATM   29  O4  UNL     1      31.485   6.976  48.081  1.00  0.00    -0.388 OA
HETATM   30  C21 UNL     1      30.805   6.013  48.785  1.00  0.00     0.198 C 
HETATM   31  C22 UNL     1      29.559   5.499  48.104  1.00  0.00     0.298 C 
ENDBRANCH  25  26
ENDBRANCH  24  25
ENDBRANCH  23  24
ENDBRANCH  22  23
ENDBRANCH  10  22
BRANCH   1  32
HETATM   32  O1  UNL     1      22.631   3.287  48.366  1.00  0.00    -0.353 OA
HETATM   33  C1  UNL     1      21.287   3.138  47.963  1.00  0.00     0.210 C 
ENDBRANCH   1  32
TORSDOF 9
ENDMDL
MODEL 7
REMARK VINA RESULT:      -8.0      4.128      6.983
REMARK  9 active torsions:
REMARK  status: ('A' for Active; 'I' for Inactive)
REMARK    1  A    between atoms: O1_2  and  C2_3 
REMARK    2  A    between atoms: C6_9  and  N3_10 
REMARK    3  A    between atoms: N3_10  and  C7_11 
REMARK    4  A    between atoms: C11_16  and  O2_17 
REMARK    5  A    between atoms: C15_21  and  O3_22 
REMARK    6  A    between atoms: O3_22  and  C16_23 
REMARK    7  A    between atoms: C16_23  and  C17_24 
REMARK    8  A    between atoms: C17_24  and  C18_25 
REMARK    9  A    between atoms: C18_25  and  N4_26 
ROOT
HETATM    1  C2  UNL     1      26.013   6.321  49.160  1.00  0.00     0.103 A 
HETATM    2  C3  UNL     1      24.909   6.354  49.985  1.00  0.00     0.072 A 
HETATM    3  C4  UNL     1      24.602   5.198  50.663  1.00  0.00     0.075 A 
HETATM    4  N1  UNL     1      23.506   5.269  51.470  1.00  0.00    -0.241 NA
HETATM    5  C5  UNL     1      23.113   4.189  52.183  1.00  0.00     0.236 A 
HETATM    6  N2  UNL     1      23.835   3.071  52.064  1.00  0.00    -0.224 NA
HETATM    7  C6  UNL     1      24.918   2.907  51.303  1.00  0.00     0.142 A 
HETATM    8  C13 UNL     1      25.297   4.016  50.589  1.00  0.00     0.042 A 
HETATM    9  C14 UNL     1      26.377   4.079  49.746  1.00  0.00     0.057 A 
HETATM   10  C15 UNL     1      26.793   5.161  49.013  1.00  0.00     0.103 A 
ENDROOT
BRANCH   7  11
HETATM   11  N3  UNL     1      25.662   1.725  51.192  1.00  0.00    -0.340 N 
HETATM   12  H6  UNL     1      25.534   1.063  50.403  1.00  0.00     0.167 HD
BRANCH  11  13
HETATM   13  C7  UNL     1      26.662   1.215  52.054  1.00  0.00     0.036 A 
HETATM   14  C8  UNL     1      26.914  -0.144  52.277  1.00  0.00     0.032 A 
HETATM   15  C9  UNL     1      27.883  -0.623  53.106  1.00  0.00     0.047 A 
HETATM   16  C10 UNL     1      28.691   0.245  53.794  1.00  0.00     0.149 A 
HETATM   17  F1  UNL     1      29.630  -0.305  54.599  1.00  0.00    -0.203 F 
HETATM   18  C11 UNL     1      28.496   1.588  53.622  1.00  0.00     0.106 A 
HETATM   19  C12 UNL     1      27.502   2.033  52.770  1.00  0.00     0.069 A 
BRANCH  18  20
HETATM   20  O2  UNL     1      29.335   2.433  54.337  1.00  0.00    -0.358 OA
HETATM   21  H9  UNL     1      29.297   2.485  55.364  1.00  0.00     0.217 HD
ENDBRANCH  18  20
ENDBRANCH  11  13
ENDBRANCH   7  11
BRANCH  10  22
HETATM   22  O3  UNL     1      27.841   5.320  48.155  1.00  0.00    -0.348 OA
BRANCH  22  23
HETATM   23  C16 UNL     1      29.081   5.885  48.298  1.00  0.00     0.177 C 
BRANCH  23  24
HETATM   24  C17 UNL     1      30.259   5.135  47.762  1.00  0.00     0.057 C 
BRANCH  24  25
HETATM   25  C18 UNL     1      31.497   5.824  48.323  1.00  0.00     0.274 C 
BRANCH  25  26
HETATM   26  N4  UNL     1      32.532   4.860  48.547  1.00  0.00     0.092 N 
HETATM   27  C19 UNL     1      32.416   3.825  47.506  1.00  0.00     0.298 C 
HETATM   28  C20 UNL     1      33.575   2.882  47.737  1.00  0.00     0.198 C 
HETATM   29  O4  UNL     1      34.797   3.487  47.514  1.00  0.00    -0.388 OA
HETATM   30  C21 UNL     1      34.656   4.845  47.373  1.00  0.00     0.198 C 
HETATM   31  C22 UNL     1      33.833   5.507  48.453  1.00  0.00     0.298 C 
ENDBRANCH  25  26
ENDBRANCH  24  25
ENDBRANCH  23  24
ENDBRANCH  22  23
ENDBRANCH  10  22
BRANCH   1  32
HETATM   32  O1  UNL     1      26.320   7.493  48.477  1.00  0.00    -0.353 OA
HETATM   33  C1  UNL     1      26.793   8.642  49.145  1.00  0.00     0.210 C 
ENDBRANCH   1  32
TORSDOF 9
ENDMDL
MODEL 8
REMARK VINA RESULT:      -8.0      2.354      5.674
REMARK  9 active torsions:
REMARK  status: ('A' for Active; 'I' for Inactive)
REMARK    1  A    between atoms: O1_2  and  C2_3 
REMARK    2  A    between atoms: C6_9  and  N3_10 
REMARK    3  A    between atoms: N3_10  and  C7_11 
REMARK    4  A    between atoms: C11_16  and  O2_17 
REMARK    5  A    between atoms: C15_21  and  O3_22 
REMARK    6  A    between atoms: O3_22  and  C16_23 
REMARK    7  A    between atoms: C16_23  and  C17_24 
REMARK    8  A    between atoms: C17_24  and  C18_25 
REMARK    9  A    between atoms: C18_25  and  N4_26 
ROOT
HETATM    1  C2  UNL     1      22.576   5.680  49.983  1.00  0.00     0.103 A 
HETATM    2  C3  UNL     1      23.759   5.851  49.297  1.00  0.00     0.072 A 
HETATM    3  C4  UNL     1      24.790   4.996  49.609  1.00  0.00     0.075 A 
HETATM    4  N1  UNL     1      25.944   5.193  48.910  1.00  0.00    -0.241 NA
HETATM    5  C5  UNL     1      27.022   4.408  49.138  1.00  0.00     0.236 A 
HETATM    6  N2  UNL     1      26.907   3.449  50.061  1.00  0.00    -0.224 NA
HETATM    7  C6  UNL     1      25.823   3.181  50.792  1.00  0.00     0.142 A 
HETATM    8  C13 UNL     1      24.743   3.991  50.543  1.00  0.00     0.042 A 
HETATM    9  C14 UNL     1      23.528   3.898  51.173  1.00  0.00     0.057 A 
HETATM   10  C15 UNL     1      22.423   4.681  50.959  1.00  0.00     0.103 A 
ENDROOT
BRANCH   7  11
HETATM   11  N3  UNL     1      25.723   2.169  51.756  1.00  0.00    -0.340 N 
HETATM   12  H6  UNL     1      24.807   1.815  52.091  1.00  0.00     0.167 HD
BRANCH  11  13
HETATM   13  C7  UNL     1      26.754   1.470  52.426  1.00  0.00     0.036 A 
HETATM   14  C8  UNL     1      26.950   0.084  52.374  1.00  0.00     0.032 A 
HETATM   15  C9  UNL     1      27.950  -0.577  53.021  1.00  0.00     0.047 A 
HETATM   16  C10 UNL     1      28.852   0.115  53.787  1.00  0.00     0.149 A 
HETATM   17  F1  UNL     1      29.816  -0.611  54.399  1.00  0.00    -0.203 F 
HETATM   18  C11 UNL     1      28.715   1.473  53.880  1.00  0.00     0.106 A 
HETATM   19  C12 UNL     1      27.686   2.107  53.208  1.00  0.00     0.069 A 
BRANCH  18  20
HETATM   20  O2  UNL     1      29.648   2.137  54.668  1.00  0.00    -0.358 OA
HETATM   21  H9  UNL     1      29.526   2.226  55.685  1.00  0.00     0.217 HD
ENDBRANCH  18  20
ENDBRANCH  11  13
ENDBRANCH   7  11
BRANCH  10  22
HETATM   22  O3  UNL     1      21.185   4.669  51.529  1.00  0.00    -0.348 OA
BRANCH  22  23
HETATM   23  C16 UNL     1      20.242   3.685  51.681  1.00  0.00     0.177 C 
BRANCH  23  24
HETATM   24  C17 UNL     1      20.521   2.593  52.665  1.00  0.00     0.057 C 
BRANCH  24  25
HETATM   25  C18 UNL     1      20.199   1.284  51.954  1.00  0.00     0.274 C 
BRANCH  25  26
HETATM   26  N4  UNL     1      21.082   0.252  52.409  1.00  0.00     0.092 N 
HETATM   27  C19 UNL     1      22.313   0.897  52.896  1.00  0.00     0.298 C 
HETATM   28  C20 UNL     1      23.173  -0.223  53.438  1.00  0.00     0.198 C 
HETATM   29  O4  UNL     1      22.613  -0.823  54.550  1.00  0.00    -0.388 OA
HETATM   30  C21 UNL     1      21.316  -0.411  54.732  1.00  0.00     0.198 C 
HETATM   31  C22 UNL     1      20.453  -0.487  53.495  1.00  0.00     0.298 C 
ENDBRANCH  25  26
ENDBRANCH  24  25
ENDBRANCH  23  24
ENDBRANCH  22  23
ENDBRANCH  10  22
BRANCH   1  32
HETATM   32  O1  UNL     1      21.537   6.547  49.662  1.00  0.00    -0.353 OA
HETATM   33  C1  UNL     1      21.212   6.859  48.325  1.00  0.00     0.210 C 
ENDBRANCH   1  32
TORSDOF 9
ENDMDL
MODEL 9
REMARK VINA RESULT:      -7.8      1.974      5.127
REMARK  9 active torsions:
REMARK  status: ('A' for Active; 'I' for Inactive)
REMARK    1  A    between atoms: O1_2  and  C2_3 
REMARK    2  A    between atoms: C6_9  and  N3_10 
REMARK    3  A    between atoms: N3_10  and  C7_11 
REMARK    4  A    between atoms: C11_16  and  O2_17 
REMARK    5  A    between atoms: C15_21  and  O3_22 
REMARK    6  A    between atoms: O3_22  and  C16_23 
REMARK    7  A    between atoms: C16_23  and  C17_24 
REMARK    8  A    between atoms: C17_24  and  C18_25 
REMARK    9  A    between atoms: C18_25  and  N4_26 
ROOT
HETATM    1  C2  UNL     1      22.278   4.697  50.281  1.00  0.00     0.103 A 
HETATM    2  C3  UNL     1      23.367   4.874  49.454  1.00  0.00     0.072 A 
HETATM    3  C4  UNL     1      24.558   4.323  49.864  1.00  0.00     0.075 A 
HETATM    4  N1  UNL     1      25.611   4.518  49.020  1.00  0.00    -0.241 NA
HETATM    5  C5  UNL     1      26.831   4.019  49.326  1.00  0.00     0.236 A 
HETATM    6  N2  UNL     1      26.954   3.339  50.469  1.00  0.00    -0.224 NA
HETATM    7  C6  UNL     1      25.985   3.098  51.354  1.00  0.00     0.142 A 
HETATM    8  C13 UNL     1      24.758   3.614  51.023  1.00  0.00     0.042 A 
HETATM    9  C14 UNL     1      23.620   3.490  51.779  1.00  0.00     0.057 A 
HETATM   10  C15 UNL     1      22.375   3.987  51.491  1.00  0.00     0.103 A 
ENDROOT
BRANCH   7  11
HETATM   11  N3  UNL     1      26.135   2.381  52.549  1.00  0.00    -0.340 N 
HETATM   12  H6  UNL     1      25.465   2.474  53.336  1.00  0.00     0.167 HD
BRANCH  11  13
HETATM   13  C7  UNL     1      27.142   1.457  52.914  1.00  0.00     0.036 A 
HETATM   14  C8  UNL     1      28.401   1.800  53.423  1.00  0.00     0.032 A 
HETATM   15  C9  UNL     1      29.361   0.900  53.776  1.00  0.00     0.047 A 
HETATM   16  C10 UNL     1      29.128  -0.444  53.641  1.00  0.00     0.149 A 
HETATM   17  F1  UNL     1      30.129  -1.276  54.012  1.00  0.00    -0.203 F 
HETATM   18  C11 UNL     1      27.917  -0.846  53.149  1.00  0.00     0.106 A 
HETATM   19  C12 UNL     1      26.969   0.099  52.803  1.00  0.00     0.069 A 
BRANCH  18  20
HETATM   20  O2  UNL     1      27.722  -2.217  53.027  1.00  0.00    -0.358 OA
HETATM   21  H9  UNL     1      26.779  -2.627  53.035  1.00  0.00     0.217 HD
ENDBRANCH  18  20
ENDBRANCH  11  13
ENDBRANCH   7  11
BRANCH  10  22
HETATM   22  O3  UNL     1      21.196   3.918  52.172  1.00  0.00    -0.348 OA
BRANCH  22  23
HETATM   23  C16 UNL     1      20.295   2.905  52.369  1.00  0.00     0.177 C 
BRANCH  23  24
HETATM   24  C17 UNL     1      20.703   1.519  51.980  1.00  0.00     0.057 C 
BRANCH  24  25
HETATM   25  C18 UNL     1      20.284   0.611  53.130  1.00  0.00     0.274 C 
BRANCH  25  26
HETATM   26  N4  UNL     1      21.397   0.383  54.002  1.00  0.00     0.092 N 
HETATM   27  C19 UNL     1      21.343  -1.021  54.442  1.00  0.00     0.298 C 
HETATM   28  C20 UNL     1      22.579  -1.231  55.288  1.00  0.00     0.198 C 
HETATM   29  O4  UNL     1      23.743  -1.125  54.552  1.00  0.00    -0.388 OA
HETATM   30  C21 UNL     1      23.491  -0.622  53.300  1.00  0.00     0.198 C 
HETATM   31  C22 UNL     1      22.640   0.625  53.283  1.00  0.00     0.298 C 
ENDBRANCH  25  26
ENDBRANCH  24  25
ENDBRANCH  23  24
ENDBRANCH  22  23
ENDBRANCH  10  22
BRANCH   1  32
HETATM   32  O1  UNL     1      21.076   5.256  49.862  1.00  0.00    -0.353 OA
HETATM   33  C1  UNL     1      20.441   4.849  48.670  1.00  0.00     0.210 C 
ENDBRANCH   1  32
TORSDOF 9
ENDMDL
