MODEL 1
REMARK VINA RESULT:      -7.9      0.000      0.000
REMARK  3 active torsions:
REMARK  status: ('A' for Active; 'I' for Inactive)
REMARK    1  A    between atoms: C11_14  and  C12_15 
REMARK    2  A    between atoms: C12_15  and  C13_16 
REMARK    3  A    between atoms: C13_16  and  N3_17 
ROOT
HETATM    1  F1  UNL     1      20.135   4.163  49.127  1.00  0.00    -0.189 F 
HETATM    2  C1  UNL     1      20.306   3.215  50.115  1.00  0.00     0.186 C 
HETATM    3  N1  UNL     1      20.657   3.706  51.316  1.00  0.00    -0.227 NA
HETATM    4  C2  UNL     1      21.556   2.937  52.231  1.00  0.00     0.064 C 
HETATM    5  C3  UNL     1      21.271   1.686  52.623  1.00  0.00    -0.020 C 
HETATM    6  C4  UNL     1      20.807   0.797  53.697  1.00  0.00     0.068 C 
HETATM    7  C5  UNL     1      21.535  -0.559  53.561  1.00  0.00    -0.020 C 
HETATM    8  C6  UNL     1      22.811  -0.222  53.214  1.00  0.00     0.026 C 
HETATM    9  C7  UNL     1      22.824   0.666  51.968  1.00  0.00     0.040 C 
HETATM   10  C8  UNL     1      21.686   1.025  51.305  1.00  0.00    -0.022 C 
HETATM   11  C9  UNL     1      21.171   0.833  49.909  1.00  0.00     0.050 C 
HETATM   12  C10 UNL     1      20.072   1.823  49.684  1.00  0.00     0.096 C 
HETATM   13  N2  UNL     1      24.247   1.101  51.894  1.00  0.00    -0.344 N 
HETATM   14  C11 UNL     1      24.720   2.513  51.789  1.00  0.00     0.101 C 
HETATM   15  N4  UNL     1      23.946   3.608  51.791  1.00  0.00    -0.271 NA
HETATM   16  C18 UNL     1      22.687   3.923  52.449  1.00  0.00     0.210 C 
HETATM   17  H9  UNL     1      24.802   0.228  51.958  1.00  0.00     0.167 HD
ENDROOT
BRANCH  14  18
HETATM   18  C12 UNL     1      26.172   2.356  51.698  1.00  0.00     0.108 C 
BRANCH  18  19
HETATM   19  C13 UNL     1      26.642   0.945  51.783  1.00  0.00     0.280 C 
BRANCH  19  20
HETATM   20  N3  UNL     1      27.772   0.860  52.670  1.00  0.00     0.092 N 
HETATM   21  C14 UNL     1      28.070   2.178  53.236  1.00  0.00     0.298 C 
HETATM   22  C15 UNL     1      29.235   2.077  54.162  1.00  0.00     0.198 C 
HETATM   23  O1  UNL     1      28.827   1.309  55.253  1.00  0.00    -0.388 OA
HETATM   24  C16 UNL     1      28.609   0.034  54.802  1.00  0.00     0.198 C 
HETATM   25  C17 UNL     1      27.601  -0.105  53.708  1.00  0.00     0.298 C 
ENDBRANCH  19  20
ENDBRANCH  18  19
ENDBRANCH  14  18
TORSDOF 3
ENDMDL
MODEL 2
REMARK VINA RESULT:      -7.7     10.277     12.462
REMARK  3 active torsions:
REMARK  status: ('A' for Active; 'I' for Inactive)
REMARK    1  A    between atoms: C11_14  and  C12_15 
REMARK    2  A    between atoms: C12_15  and  C13_16 
REMARK    3  A    between atoms: C13_16  and  N3_17 
ROOT
HETATM    1  F1  UNL     1      33.353   1.228  49.195  1.00  0.00    -0.189 F 
HETATM    2  C1  UNL     1      33.548   1.944  48.031  1.00  0.00     0.186 C 
HETATM    3  N1  UNL     1      34.619   2.756  48.039  1.00  0.00    -0.227 NA
HETATM    4  C2  UNL     1      34.606   4.058  47.302  1.00  0.00     0.064 C 
HETATM    5  C3  UNL     1      34.334   4.128  45.990  1.00  0.00    -0.020 C 
HETATM    6  C4  UNL     1      34.844   4.320  44.624  1.00  0.00     0.068 C 
HETATM    7  C5  UNL     1      33.763   5.047  43.794  1.00  0.00    -0.020 C 
HETATM    8  C6  UNL     1      33.240   5.968  44.655  1.00  0.00     0.026 C 
HETATM    9  C7  UNL     1      32.751   5.301  45.941  1.00  0.00     0.040 C 
HETATM   10  C8  UNL     1      32.821   3.953  46.147  1.00  0.00    -0.022 C 
HETATM   11  C9  UNL     1      31.816   2.872  46.419  1.00  0.00     0.050 C 
HETATM   12  C10 UNL     1      32.549   1.692  46.975  1.00  0.00     0.096 C 
HETATM   13  N2  UNL     1      32.442   6.467  46.816  1.00  0.00    -0.344 N 
HETATM   14  C11 UNL     1      32.958   6.677  48.201  1.00  0.00     0.101 C 
HETATM   15  N4  UNL     1      33.811   5.877  48.856  1.00  0.00    -0.271 NA
HETATM   16  C18 UNL     1      34.918   5.042  48.411  1.00  0.00     0.210 C 
HETATM   17  H9  UNL     1      31.834   7.082  46.244  1.00  0.00     0.167 HD
ENDROOT
BRANCH  14  18
HETATM   18  C12 UNL     1      32.308   7.927  48.596  1.00  0.00     0.108 C 
BRANCH  18  19
HETATM   19  C13 UNL     1      30.904   7.766  49.065  1.00  0.00     0.280 C 
BRANCH  19  20
HETATM   20  N3  UNL     1      30.333   9.055  49.353  1.00  0.00     0.092 N 
HETATM   21  C14 UNL     1      31.027  10.096  48.588  1.00  0.00     0.298 C 
HETATM   22  C15 UNL     1      30.421  11.426  48.885  1.00  0.00     0.198 C 
HETATM   23  O1  UNL     1      29.126  11.413  48.367  1.00  0.00    -0.388 OA
HETATM   24  C16 UNL     1      28.398  10.510  49.098  1.00  0.00     0.198 C 
HETATM   25  C17 UNL     1      28.927   9.113  49.118  1.00  0.00     0.298 C 
ENDBRANCH  19  20
ENDBRANCH  18  19
ENDBRANCH  14  18
TORSDOF 3
ENDMDL
MODEL 3
REMARK VINA RESULT:      -7.5      2.866      4.225
REMARK  3 active torsions:
REMARK  status: ('A' for Active; 'I' for Inactive)
REMARK    1  A    between atoms: C11_14  and  C12_15 
REMARK    2  A    between atoms: C12_15  and  C13_16 
REMARK    3  A    between atoms: C13_16  and  N3_17 
ROOT
HETATM    1  F1  UNL     1      26.085   7.718  50.787  1.00  0.00    -0.189 F 
HETATM    2  C1  UNL     1      25.275   6.804  50.142  1.00  0.00     0.186 C 
HETATM    3  N1  UNL     1      24.037   6.686  50.654  1.00  0.00    -0.227 NA
HETATM    4  C2  UNL     1      23.320   5.374  50.641  1.00  0.00     0.064 C 
HETATM    5  C3  UNL     1      23.114   4.687  49.506  1.00  0.00    -0.020 C 
HETATM    6  C4  UNL     1      22.167   4.263  48.465  1.00  0.00     0.068 C 
HETATM    7  C5  UNL     1      22.567   2.850  47.983  1.00  0.00    -0.020 C 
HETATM    8  C6  UNL     1      22.942   2.200  49.123  1.00  0.00     0.026 C 
HETATM    9  C7  UNL     1      24.027   2.978  49.867  1.00  0.00     0.040 C 
HETATM   10  C8  UNL     1      24.546   4.153  49.401  1.00  0.00    -0.022 C 
HETATM   11  C9  UNL     1      25.917   4.621  49.010  1.00  0.00     0.050 C 
HETATM   12  C10 UNL     1      25.906   6.117  48.999  1.00  0.00     0.096 C 
HETATM   13  N2  UNL     1      24.127   2.243  51.159  1.00  0.00    -0.344 N 
HETATM   14  C11 UNL     1      24.037   2.855  52.518  1.00  0.00     0.101 C 
HETATM   15  N4  UNL     1      23.807   4.148  52.789  1.00  0.00    -0.271 NA
HETATM   16  C18 UNL     1      23.024   5.172  52.113  1.00  0.00     0.210 C 
HETATM   17  H9  UNL     1      24.241   1.247  50.897  1.00  0.00     0.167 HD
ENDROOT
BRANCH  14  18
HETATM   18  C12 UNL     1      24.250   1.706  53.399  1.00  0.00     0.108 C 
BRANCH  18  19
HETATM   19  C13 UNL     1      24.618   0.450  52.689  1.00  0.00     0.280 C 
BRANCH  19  20
HETATM   20  N3  UNL     1      25.755  -0.158  53.329  1.00  0.00     0.092 N 
HETATM   21  C14 UNL     1      26.772  -0.502  52.331  1.00  0.00     0.298 C 
HETATM   22  C15 UNL     1      27.950  -1.120  53.006  1.00  0.00     0.198 C 
HETATM   23  O1  UNL     1      28.544  -0.128  53.786  1.00  0.00    -0.388 OA
HETATM   24  C16 UNL     1      27.670   0.184  54.794  1.00  0.00     0.198 C 
HETATM   25  C17 UNL     1      26.318   0.651  54.361  1.00  0.00     0.298 C 
ENDBRANCH  19  20
ENDBRANCH  18  19
ENDBRANCH  14  18
TORSDOF 3
ENDMDL
MODEL 4
REMARK VINA RESULT:      -7.5      1.957      2.465
REMARK  3 active torsions:
REMARK  status: ('A' for Active; 'I' for Inactive)
REMARK    1  A    between atoms: C11_14  and  C12_15 
REMARK    2  A    between atoms: C12_15  and  C13_16 
REMARK    3  A    between atoms: C13_16  and  N3_17 
ROOT
HETATM    1  F1  UNL     1      24.713   4.463  48.753  1.00  0.00    -0.189 F 
HETATM    2  C1  UNL     1      23.580   4.061  49.430  1.00  0.00     0.186 C 
HETATM    3  N1  UNL     1      23.474   4.532  50.685  1.00  0.00    -0.227 NA
HETATM    4  C2  UNL     1      22.829   3.719  51.762  1.00  0.00     0.064 C 
HETATM    5  C3  UNL     1      21.581   3.241  51.642  1.00  0.00    -0.020 C 
HETATM    6  C4  UNL     1      20.168   3.345  52.034  1.00  0.00     0.068 C 
HETATM    7  C5  UNL     1      19.560   1.925  52.058  1.00  0.00    -0.020 C 
HETATM    8  C6  UNL     1      20.545   1.146  52.590  1.00  0.00     0.026 C 
HETATM    9  C7  UNL     1      21.848   1.295  51.803  1.00  0.00     0.040 C 
HETATM   10  C8  UNL     1      21.957   2.094  50.699  1.00  0.00    -0.022 C 
HETATM   11  C9  UNL     1      22.312   1.864  49.260  1.00  0.00     0.050 C 
HETATM   12  C10 UNL     1      22.676   3.185  48.660  1.00  0.00     0.096 C 
HETATM   13  N2  UNL     1      22.830   0.569  52.656  1.00  0.00    -0.344 N 
HETATM   14  C11 UNL     1      24.130   1.116  53.145  1.00  0.00     0.101 C 
HETATM   15  N4  UNL     1      24.596   2.355  52.933  1.00  0.00    -0.271 NA
HETATM   16  C18 UNL     1      23.936   3.645  52.795  1.00  0.00     0.210 C 
HETATM   17  H9  UNL     1      22.398  -0.355  52.841  1.00  0.00     0.167 HD
ENDROOT
BRANCH  14  18
HETATM   18  C12 UNL     1      24.697  -0.018  53.876  1.00  0.00     0.108 C 
BRANCH  18  19
HETATM   19  C13 UNL     1      25.604  -0.878  53.066  1.00  0.00     0.280 C 
BRANCH  19  20
HETATM   20  N3  UNL     1      26.960  -0.412  53.192  1.00  0.00     0.092 N 
HETATM   21  C14 UNL     1      27.180   0.144  54.530  1.00  0.00     0.298 C 
HETATM   22  C15 UNL     1      28.590   0.612  54.655  1.00  0.00     0.198 C 
HETATM   23  O1  UNL     1      29.405  -0.519  54.606  1.00  0.00    -0.388 OA
HETATM   24  C16 UNL     1      29.306  -1.044  53.345  1.00  0.00     0.198 C 
HETATM   25  C17 UNL     1      27.929  -1.418  52.902  1.00  0.00     0.298 C 
ENDBRANCH  19  20
ENDBRANCH  18  19
ENDBRANCH  14  18
TORSDOF 3
ENDMDL
MODEL 5
REMARK VINA RESULT:      -7.3      3.431      5.090
REMARK  3 active torsions:
REMARK  status: ('A' for Active; 'I' for Inactive)
REMARK    1  A    between atoms: C11_14  and  C12_15 
REMARK    2  A    between atoms: C12_15  and  C13_16 
REMARK    3  A    between atoms: C13_16  and  N3_17 
ROOT
HETATM    1  F1  UNL     1      20.461   5.872  50.718  1.00  0.00    -0.189 F 
HETATM    2  C1  UNL     1      21.588   6.293  50.041  1.00  0.00     0.186 C 
HETATM    3  N1  UNL     1      21.924   5.541  48.979  1.00  0.00    -0.227 NA
HETATM    4  C2  UNL     1      23.357   5.342  48.598  1.00  0.00     0.064 C 
HETATM    5  C3  UNL     1      24.179   6.374  48.357  1.00  0.00    -0.020 C 
HETATM    6  C4  UNL     1      24.899   7.182  47.363  1.00  0.00     0.068 C 
HETATM    7  C5  UNL     1      26.230   7.658  47.988  1.00  0.00    -0.020 C 
HETATM    8  C6  UNL     1      26.669   6.583  48.704  1.00  0.00     0.026 C 
HETATM    9  C7  UNL     1      25.603   6.111  49.694  1.00  0.00     0.040 C 
HETATM   10  C8  UNL     1      24.394   6.733  49.831  1.00  0.00    -0.022 C 
HETATM   11  C9  UNL     1      23.677   7.412  50.960  1.00  0.00     0.050 C 
HETATM   12  C10 UNL     1      22.228   7.501  50.597  1.00  0.00     0.096 C 
HETATM   13  N2  UNL     1      26.169   4.828  50.195  1.00  0.00    -0.344 N 
HETATM   14  C11 UNL     1      25.462   3.513  50.212  1.00  0.00     0.101 C 
HETATM   15  N4  UNL     1      24.231   3.271  49.740  1.00  0.00    -0.271 NA
HETATM   16  C18 UNL     1      23.474   3.831  48.629  1.00  0.00     0.210 C 
HETATM   17  H9  UNL     1      27.137   5.054  50.490  1.00  0.00     0.167 HD
ENDROOT
BRANCH  14  18
HETATM   18  C12 UNL     1      26.446   2.631  50.844  1.00  0.00     0.108 C 
BRANCH  18  19
HETATM   19  C13 UNL     1      25.858   1.615  51.760  1.00  0.00     0.280 C 
BRANCH  19  20
HETATM   20  N3  UNL     1      26.888   1.056  52.595  1.00  0.00     0.092 N 
HETATM   21  C14 UNL     1      27.872   2.086  52.940  1.00  0.00     0.298 C 
HETATM   22  C15 UNL     1      28.929   1.501  53.815  1.00  0.00     0.198 C 
HETATM   23  O1  UNL     1      28.323   1.173  55.027  1.00  0.00    -0.388 OA
HETATM   24  C16 UNL     1      27.442   0.152  54.787  1.00  0.00     0.198 C 
HETATM   25  C17 UNL     1      26.380   0.434  53.774  1.00  0.00     0.298 C 
ENDBRANCH  19  20
ENDBRANCH  18  19
ENDBRANCH  14  18
TORSDOF 3
ENDMDL
MODEL 6
REMARK VINA RESULT:      -7.0      3.499      5.272
REMARK  3 active torsions:
REMARK  status: ('A' for Active; 'I' for Inactive)
REMARK    1  A    between atoms: C11_14  and  C12_15 
REMARK    2  A    between atoms: C12_15  and  C13_16 
REMARK    3  A    between atoms: C13_16  and  N3_17 
ROOT
HETATM    1  F1  UNL     1      25.918   7.653  50.838  1.00  0.00    -0.189 F 
HETATM    2  C1  UNL     1      25.174   6.794  50.055  1.00  0.00     0.186 C 
HETATM    3  N1  UNL     1      23.859   6.772  50.333  1.00  0.00    -0.227 NA
HETATM    4  C2  UNL     1      23.062   5.514  50.187  1.00  0.00     0.064 C 
HETATM    5  C3  UNL     1      23.016   4.831  49.033  1.00  0.00    -0.020 C 
HETATM    6  C4  UNL     1      22.244   4.465  47.836  1.00  0.00     0.068 C 
HETATM    7  C5  UNL     1      22.621   3.022  47.432  1.00  0.00    -0.020 C 
HETATM    8  C6  UNL     1      22.734   2.359  48.619  1.00  0.00     0.026 C 
HETATM    9  C7  UNL     1      23.720   3.065  49.550  1.00  0.00     0.040 C 
HETATM   10  C8  UNL     1      24.400   4.194  49.188  1.00  0.00    -0.022 C 
HETATM   11  C9  UNL     1      25.849   4.556  49.054  1.00  0.00     0.050 C 
HETATM   12  C10 UNL     1      25.950   6.050  49.044  1.00  0.00     0.096 C 
HETATM   13  N2  UNL     1      23.530   2.339  50.837  1.00  0.00    -0.344 N 
HETATM   14  C11 UNL     1      23.240   2.972  52.158  1.00  0.00     0.101 C 
HETATM   15  N4  UNL     1      23.060   4.280  52.385  1.00  0.00    -0.271 NA
HETATM   16  C18 UNL     1      22.489   5.351  51.581  1.00  0.00     0.210 C 
HETATM   17  H9  UNL     1      23.616   1.334  50.598  1.00  0.00     0.167 HD
ENDROOT
BRANCH  14  18
HETATM   18  C12 UNL     1      23.204   1.820  53.061  1.00  0.00     0.108 C 
BRANCH  18  19
HETATM   19  C13 UNL     1      23.885   0.606  52.531  1.00  0.00     0.280 C 
BRANCH  19  20
HETATM   20  N3  UNL     1      23.420  -0.561  53.234  1.00  0.00     0.092 N 
HETATM   21  C14 UNL     1      23.861  -0.517  54.631  1.00  0.00     0.298 C 
HETATM   22  C15 UNL     1      23.364  -1.724  55.354  1.00  0.00     0.198 C 
HETATM   23  O1  UNL     1      21.975  -1.620  55.419  1.00  0.00    -0.388 OA
HETATM   24  C16 UNL     1      21.491  -1.736  54.142  1.00  0.00     0.198 C 
HETATM   25  C17 UNL     1      22.006  -0.736  53.159  1.00  0.00     0.298 C 
ENDBRANCH  19  20
ENDBRANCH  18  19
ENDBRANCH  14  18
TORSDOF 3
ENDMDL
MODEL 7
REMARK VINA RESULT:      -7.0      5.088      6.508
REMARK  3 active torsions:
REMARK  status: ('A' for Active; 'I' for Inactive)
REMARK    1  A    between atoms: C11_14  and  C12_15 
REMARK    2  A    between atoms: C12_15  and  C13_16 
REMARK    3  A    between atoms: C13_16  and  N3_17 
ROOT
HETATM    1  F1  UNL     1      25.011   3.045  53.714  1.00  0.00    -0.189 F 
HETATM    2  C1  UNL     1      24.336   3.316  52.540  1.00  0.00     0.186 C 
HETATM    3  N1  UNL     1      24.703   2.562  51.490  1.00  0.00    -0.227 NA
HETATM    4  C2  UNL     1      24.690   3.118  50.101  1.00  0.00     0.064 C 
HETATM    5  C3  UNL     1      23.587   3.658  49.561  1.00  0.00    -0.020 C 
HETATM    6  C4  UNL     1      22.471   3.517  48.614  1.00  0.00     0.068 C 
HETATM    7  C5  UNL     1      22.134   4.913  48.043  1.00  0.00    -0.020 C 
HETATM    8  C6  UNL     1      23.349   5.503  47.857  1.00  0.00     0.026 C 
HETATM    9  C7  UNL     1      24.165   5.497  49.151  1.00  0.00     0.040 C 
HETATM   10  C8  UNL     1      23.688   4.982  50.323  1.00  0.00    -0.022 C 
HETATM   11  C9  UNL     1      23.434   5.537  51.694  1.00  0.00     0.050 C 
HETATM   12  C10 UNL     1      23.323   4.384  52.642  1.00  0.00     0.096 C 
HETATM   13  N2  UNL     1      25.505   5.960  48.693  1.00  0.00    -0.344 N 
HETATM   14  C11 UNL     1      26.801   5.262  48.947  1.00  0.00     0.101 C 
HETATM   15  N4  UNL     1      26.957   4.093  49.584  1.00  0.00    -0.271 NA
HETATM   16  C18 UNL     1      26.128   2.900  49.671  1.00  0.00     0.210 C 
HETATM   17  H9  UNL     1      25.324   6.828  48.157  1.00  0.00     0.167 HD
ENDROOT
BRANCH  14  18
HETATM   18  C12 UNL     1      27.774   6.166  48.332  1.00  0.00     0.108 C 
BRANCH  18  19
HETATM   19  C13 UNL     1      29.157   5.619  48.261  1.00  0.00     0.280 C 
BRANCH  19  20
HETATM   20  N3  UNL     1      30.109   6.698  48.244  1.00  0.00     0.092 N 
HETATM   21  C14 UNL     1      29.452   7.956  48.608  1.00  0.00     0.298 C 
HETATM   22  C15 UNL     1      30.449   9.066  48.599  1.00  0.00     0.198 C 
HETATM   23  O1  UNL     1      31.344   8.822  49.640  1.00  0.00    -0.388 OA
HETATM   24  C16 UNL     1      32.053   7.694  49.320  1.00  0.00     0.198 C 
HETATM   25  C17 UNL     1      31.241   6.463  49.080  1.00  0.00     0.298 C 
ENDBRANCH  19  20
ENDBRANCH  18  19
ENDBRANCH  14  18
TORSDOF 3
ENDMDL
MODEL 8
REMARK VINA RESULT:      -6.8      4.434      5.365
REMARK  3 active torsions:
REMARK  status: ('A' for Active; 'I' for Inactive)
REMARK    1  A    between atoms: C11_14  and  C12_15 
REMARK    2  A    between atoms: C12_15  and  C13_16 
REMARK    3  A    between atoms: C13_16  and  N3_17 
ROOT
HETATM    1  F1  UNL     1      20.551   5.069  49.645  1.00  0.00    -0.189 F 
HETATM    2  C1  UNL     1      21.498   4.382  50.378  1.00  0.00     0.186 C 
HETATM    3  N1  UNL     1      22.221   5.141  51.221  1.00  0.00    -0.227 NA
HETATM    4  C2  UNL     1      23.653   4.821  51.509  1.00  0.00     0.064 C 
HETATM    5  C3  UNL     1      24.035   3.621  51.973  1.00  0.00    -0.020 C 
HETATM    6  C4  UNL     1      24.498   2.821  53.115  1.00  0.00     0.068 C 
HETATM    7  C5  UNL     1      25.458   1.728  52.593  1.00  0.00    -0.020 C 
HETATM    8  C6  UNL     1      26.191   2.358  51.629  1.00  0.00     0.026 C 
HETATM    9  C7  UNL     1      25.282   2.999  50.580  1.00  0.00     0.040 C 
HETATM   10  C8  UNL     1      23.920   2.904  50.624  1.00  0.00    -0.022 C 
HETATM   11  C9  UNL     1      22.869   2.349  49.708  1.00  0.00     0.050 C 
HETATM   12  C10 UNL     1      21.552   2.931  50.114  1.00  0.00     0.096 C 
HETATM   13  N2  UNL     1      26.237   3.808  49.772  1.00  0.00    -0.344 N 
HETATM   14  C11 UNL     1      26.097   5.260  49.456  1.00  0.00     0.101 C 
HETATM   15  N4  UNL     1      25.120   6.071  49.884  1.00  0.00    -0.271 NA
HETATM   16  C18 UNL     1      24.341   6.112  51.113  1.00  0.00     0.210 C 
HETATM   17  H9  UNL     1      27.001   3.154  49.519  1.00  0.00     0.167 HD
ENDROOT
BRANCH  14  18
HETATM   18  C12 UNL     1      27.263   5.515  48.609  1.00  0.00     0.108 C 
BRANCH  18  19
HETATM   19  C13 UNL     1      27.302   6.880  48.016  1.00  0.00     0.280 C 
BRANCH  19  20
HETATM   20  N3  UNL     1      28.657   7.365  47.995  1.00  0.00     0.092 N 
HETATM   21  C14 UNL     1      28.815   8.463  48.952  1.00  0.00     0.298 C 
HETATM   22  C15 UNL     1      30.225   8.950  48.932  1.00  0.00     0.198 C 
HETATM   23  O1  UNL     1      31.022   7.924  49.439  1.00  0.00    -0.388 OA
HETATM   24  C16 UNL     1      30.981   6.889  48.542  1.00  0.00     0.198 C 
HETATM   25  C17 UNL     1      29.623   6.344  48.239  1.00  0.00     0.298 C 
ENDBRANCH  19  20
ENDBRANCH  18  19
ENDBRANCH  14  18
TORSDOF 3
ENDMDL
MODEL 9
REMARK VINA RESULT:      -6.8      9.081     12.155
REMARK  3 active torsions:
REMARK  status: ('A' for Active; 'I' for Inactive)
REMARK    1  A    between atoms: C11_14  and  C12_15 
REMARK    2  A    between atoms: C12_15  and  C13_16 
REMARK    3  A    between atoms: C13_16  and  N3_17 
ROOT
HETATM    1  F1  UNL     1      31.381   2.840  46.349  1.00  0.00    -0.189 F 
HETATM    2  C1  UNL     1      32.341   3.722  46.803  1.00  0.00     0.186 C 
HETATM    3  N1  UNL     1      32.243   4.044  48.105  1.00  0.00    -0.227 NA
HETATM    4  C2  UNL     1      32.623   5.406  48.592  1.00  0.00     0.064 C 
HETATM    5  C3  UNL     1      33.838   5.929  48.366  1.00  0.00    -0.020 C 
HETATM    6  C4  UNL     1      35.158   6.284  48.908  1.00  0.00     0.068 C 
HETATM    7  C5  UNL     1      35.657   7.558  48.189  1.00  0.00    -0.020 C 
HETATM    8  C6  UNL     1      34.541   8.333  48.063  1.00  0.00     0.026 C 
HETATM    9  C7  UNL     1      33.419   7.570  47.358  1.00  0.00     0.040 C 
HETATM   10  C8  UNL     1      33.569   6.290  46.902  1.00  0.00    -0.022 C 
HETATM   11  C9  UNL     1      33.472   5.629  45.559  1.00  0.00     0.050 C 
HETATM   12  C10 UNL     1      33.313   4.158  45.782  1.00  0.00     0.096 C 
HETATM   13  N2  UNL     1      32.251   8.479  47.524  1.00  0.00    -0.344 N 
HETATM   14  C11 UNL     1      30.922   8.095  48.083  1.00  0.00     0.101 C 
HETATM   15  N4  UNL     1      30.585   6.890  48.563  1.00  0.00    -0.271 NA
HETATM   16  C18 UNL     1      31.341   5.861  49.262  1.00  0.00     0.210 C 
HETATM   17  H9  UNL     1      32.581   9.407  47.198  1.00  0.00     0.167 HD
ENDROOT
BRANCH  14  18
HETATM   18  C12 UNL     1      30.157   9.337  47.966  1.00  0.00     0.108 C 
BRANCH  18  19
HETATM   19  C13 UNL     1      29.879  10.010  49.265  1.00  0.00     0.280 C 
BRANCH  19  20
HETATM   20  N3  UNL     1      28.470  10.279  49.385  1.00  0.00     0.092 N 
HETATM   21  C14 UNL     1      27.947  10.801  48.120  1.00  0.00     0.298 C 
HETATM   22  C15 UNL     1      26.485  11.065  48.251  1.00  0.00     0.198 C 
HETATM   23  O1  UNL     1      25.857   9.830  48.409  1.00  0.00    -0.388 OA
HETATM   24  C16 UNL     1      26.245   9.321  49.620  1.00  0.00     0.198 C 
HETATM   25  C17 UNL     1      27.716   9.145  49.810  1.00  0.00     0.298 C 
ENDBRANCH  19  20
ENDBRANCH  18  19
ENDBRANCH  14  18
TORSDOF 3
ENDMDL
