MODEL 1
REMARK VINA RESULT:      -8.5      0.000      0.000
REMARK  5 active torsions:
REMARK  status: ('A' for Active; 'I' for Inactive)
REMARK    1  A    between atoms: O1_2  and  C2_3 
REMARK    2  A    between atoms: N1_6  and  C5_7 
REMARK    3  A    between atoms: C16_20  and  O2_22 
REMARK    4  A    between atoms: O2_22  and  C18_23 
REMARK    5  A    between atoms: C18_23  and  O3_24 
ROOT
HETATM    1  C2  UNL     1      27.183   1.262  52.134  1.00  0.00     0.079 C 
HETATM    2  C3  UNL     1      26.369   0.365  51.605  1.00  0.00     0.028 C 
HETATM    3  C4  UNL     1      26.407  -0.763  52.559  1.00  0.00     0.154 C 
HETATM    4  N1  UNL     1      25.939  -0.226  53.857  1.00  0.00    -0.358 N 
HETATM    5  C15 UNL     1      27.035   0.498  54.468  1.00  0.00     0.169 C 
HETATM    6  C16 UNL     1      27.946   1.133  53.401  1.00  0.00     0.124 C 
HETATM    7  C17 UNL     1      28.354   2.487  53.904  1.00  0.00     0.055 C 
ENDROOT
BRANCH   4   8
HETATM    8  C5  UNL     1      24.582  -0.491  54.179  1.00  0.00     0.140 A 
HETATM    9  N2  UNL     1      24.366  -1.265  55.281  1.00  0.00    -0.224 NA
HETATM   10  C6  UNL     1      23.132  -1.628  55.648  1.00  0.00     0.236 A 
HETATM   11  N3  UNL     1      22.033  -1.264  54.972  1.00  0.00    -0.241 NA
HETATM   12  C7  UNL     1      22.151  -0.502  53.878  1.00  0.00     0.078 A 
HETATM   13  C8  UNL     1      21.085  -0.063  53.122  1.00  0.00    -0.032 A 
HETATM   14  C14 UNL     1      23.429  -0.142  53.521  1.00  0.00     0.040 A 
HETATM   15  C9  UNL     1      19.707  -0.460  53.517  1.00  0.00     0.050 C 
HETATM   16  C10 UNL     1      21.225   0.740  51.996  1.00  0.00     0.015 A 
HETATM   17  C11 UNL     1      22.534   1.095  51.653  1.00  0.00    -0.060 A 
HETATM   18  C12 UNL     1      22.691   1.960  50.442  1.00  0.00     0.048 C 
HETATM   19  C13 UNL     1      23.588   0.653  52.411  1.00  0.00     0.024 A 
ENDBRANCH   4   8
BRANCH   6  20
HETATM   20  O2  UNL     1      29.035   0.309  53.154  1.00  0.00    -0.348 OA
BRANCH  20  21
HETATM   21  C18 UNL     1      29.409  -0.437  54.242  1.00  0.00     0.336 C 
BRANCH  21  22
HETATM   22  O3  UNL     1      29.530  -1.779  53.814  1.00  0.00    -0.377 OA
HETATM   23  H23 UNL     1      29.662  -2.360  54.605  1.00  0.00     0.212 HD
ENDBRANCH  21  22
ENDBRANCH  20  21
ENDBRANCH   6  20
BRANCH   1  24
HETATM   24  O1  UNL     1      27.318   2.425  51.417  1.00  0.00    -0.357 OA
HETATM   25  C1  UNL     1      26.330   3.091  50.690  1.00  0.00     0.209 C 
ENDBRANCH   1  24
TORSDOF 5
ENDMDL
MODEL 2
REMARK VINA RESULT:      -8.5      2.144      3.754
REMARK  5 active torsions:
REMARK  status: ('A' for Active; 'I' for Inactive)
REMARK    1  A    between atoms: O1_2  and  C2_3 
REMARK    2  A    between atoms: N1_6  and  C5_7 
REMARK    3  A    between atoms: C16_20  and  O2_22 
REMARK    4  A    between atoms: O2_22  and  C18_23 
REMARK    5  A    between atoms: C18_23  and  O3_24 
ROOT
HETATM    1  C2  UNL     1      26.394   0.584  54.235  1.00  0.00     0.079 C 
HETATM    2  C3  UNL     1      25.557   1.599  54.368  1.00  0.00     0.028 C 
HETATM    3  C4  UNL     1      25.701   2.352  53.104  1.00  0.00     0.154 C 
HETATM    4  N1  UNL     1      25.335   1.415  52.017  1.00  0.00    -0.358 N 
HETATM    5  C15 UNL     1      26.464   0.540  51.777  1.00  0.00     0.169 C 
HETATM    6  C16 UNL     1      27.265   0.297  53.069  1.00  0.00     0.124 C 
HETATM    7  C17 UNL     1      27.686  -1.144  53.075  1.00  0.00     0.055 C 
ENDROOT
BRANCH   4   8
HETATM    8  C5  UNL     1      24.018   1.549  51.508  1.00  0.00     0.140 A 
HETATM    9  N2  UNL     1      23.857   2.433  50.482  1.00  0.00    -0.224 NA
HETATM   10  C6  UNL     1      22.651   2.686  49.959  1.00  0.00     0.236 A 
HETATM   11  N3  UNL     1      21.529   2.097  50.397  1.00  0.00    -0.241 NA
HETATM   12  C7  UNL     1      21.593   1.214  51.401  1.00  0.00     0.078 A 
HETATM   13  C8  UNL     1      20.502   0.546  51.914  1.00  0.00    -0.032 A 
HETATM   14  C14 UNL     1      22.842   0.972  51.921  1.00  0.00     0.040 A 
HETATM   15  C9  UNL     1      19.155   0.817  51.344  1.00  0.00     0.050 C 
HETATM   16  C10 UNL     1      20.589  -0.380  52.948  1.00  0.00     0.015 A 
HETATM   17  C11 UNL     1      21.870  -0.611  53.460  1.00  0.00    -0.060 A 
HETATM   18  C12 UNL     1      21.970  -1.607  54.572  1.00  0.00     0.048 C 
HETATM   19  C13 UNL     1      22.949   0.059  52.943  1.00  0.00     0.024 A 
ENDBRANCH   4   8
BRANCH   6  20
HETATM   20  O2  UNL     1      28.347   1.165  53.128  1.00  0.00    -0.348 OA
BRANCH  20  21
HETATM   21  C18 UNL     1      29.156   0.951  54.213  1.00  0.00     0.336 C 
BRANCH  21  22
HETATM   22  O3  UNL     1      29.382   2.205  54.826  1.00  0.00    -0.377 OA
HETATM   23  H23 UNL     1      28.537   2.522  55.234  1.00  0.00     0.212 HD
ENDBRANCH  21  22
ENDBRANCH  20  21
ENDBRANCH   6  20
BRANCH   1  24
HETATM   24  O1  UNL     1      26.441  -0.278  55.303  1.00  0.00    -0.357 OA
HETATM   25  C1  UNL     1      25.364  -0.887  55.948  1.00  0.00     0.209 C 
ENDBRANCH   1  24
TORSDOF 5
ENDMDL
MODEL 3
REMARK VINA RESULT:      -8.4      2.541      4.979
REMARK  5 active torsions:
REMARK  status: ('A' for Active; 'I' for Inactive)
REMARK    1  A    between atoms: O1_2  and  C2_3 
REMARK    2  A    between atoms: N1_6  and  C5_7 
REMARK    3  A    between atoms: C16_20  and  O2_22 
REMARK    4  A    between atoms: O2_22  and  C18_23 
REMARK    5  A    between atoms: C18_23  and  O3_24 
ROOT
HETATM    1  C2  UNL     1      26.343  -0.049  54.059  1.00  0.00     0.079 C 
HETATM    2  C3  UNL     1      26.100   1.198  54.423  1.00  0.00     0.028 C 
HETATM    3  C4  UNL     1      26.722   2.012  53.356  1.00  0.00     0.154 C 
HETATM    4  N1  UNL     1      26.058   1.619  52.092  1.00  0.00    -0.358 N 
HETATM    5  C15 UNL     1      26.633   0.364  51.651  1.00  0.00     0.169 C 
HETATM    6  C16 UNL     1      27.077  -0.495  52.848  1.00  0.00     0.124 C 
HETATM    7  C17 UNL     1      26.736  -1.922  52.530  1.00  0.00     0.055 C 
ENDROOT
BRANCH   4   8
HETATM    8  C5  UNL     1      25.034   2.491  51.639  1.00  0.00     0.140 A 
HETATM    9  N2  UNL     1      23.793   2.284  52.166  1.00  0.00    -0.224 NA
HETATM   10  C6  UNL     1      22.737   3.006  51.771  1.00  0.00     0.236 A 
HETATM   11  N3  UNL     1      22.820   3.972  50.844  1.00  0.00    -0.241 NA
HETATM   12  C7  UNL     1      24.000   4.243  50.275  1.00  0.00     0.078 A 
HETATM   13  C8  UNL     1      24.193   5.222  49.324  1.00  0.00    -0.032 A 
HETATM   14  C14 UNL     1      25.069   3.488  50.696  1.00  0.00     0.040 A 
HETATM   15  C9  UNL     1      23.029   6.032  48.874  1.00  0.00     0.050 C 
HETATM   16  C10 UNL     1      25.430   5.502  48.753  1.00  0.00     0.015 A 
HETATM   17  C11 UNL     1      26.502   4.722  49.199  1.00  0.00    -0.060 A 
HETATM   18  C12 UNL     1      27.836   5.018  48.589  1.00  0.00     0.048 C 
HETATM   19  C13 UNL     1      26.300   3.750  50.145  1.00  0.00     0.024 A 
ENDBRANCH   4   8
BRANCH   6  20
HETATM   20  O2  UNL     1      28.432  -0.315  53.087  1.00  0.00    -0.348 OA
BRANCH  20  21
HETATM   21  C18 UNL     1      29.087  -1.478  53.400  1.00  0.00     0.336 C 
BRANCH  21  22
HETATM   22  O3  UNL     1      30.372  -1.124  53.875  1.00  0.00    -0.377 OA
HETATM   23  H23 UNL     1      30.989  -1.042  53.105  1.00  0.00     0.212 HD
ENDBRANCH  21  22
ENDBRANCH  20  21
ENDBRANCH   6  20
BRANCH   1  24
HETATM   24  O1  UNL     1      25.853  -1.011  54.907  1.00  0.00    -0.357 OA
HETATM   25  C1  UNL     1      24.537  -1.165  55.345  1.00  0.00     0.209 C 
ENDBRANCH   1  24
TORSDOF 5
ENDMDL
MODEL 4
REMARK VINA RESULT:      -8.2      2.392      4.625
REMARK  5 active torsions:
REMARK  status: ('A' for Active; 'I' for Inactive)
REMARK    1  A    between atoms: O1_2  and  C2_3 
REMARK    2  A    between atoms: N1_6  and  C5_7 
REMARK    3  A    between atoms: C16_20  and  O2_22 
REMARK    4  A    between atoms: O2_22  and  C18_23 
REMARK    5  A    between atoms: C18_23  and  O3_24 
ROOT
HETATM    1  C2  UNL     1      25.912   0.058  53.973  1.00  0.00     0.079 C 
HETATM    2  C3  UNL     1      25.677   1.352  54.109  1.00  0.00     0.028 C 
HETATM    3  C4  UNL     1      26.798   1.999  53.393  1.00  0.00     0.154 C 
HETATM    4  N1  UNL     1      26.727   1.523  51.993  1.00  0.00    -0.358 N 
HETATM    5  C15 UNL     1      27.290   0.189  51.940  1.00  0.00     0.169 C 
HETATM    6  C16 UNL     1      27.052  -0.568  53.259  1.00  0.00     0.124 C 
HETATM    7  C17 UNL     1      26.728  -1.992  52.909  1.00  0.00     0.055 C 
ENDROOT
BRANCH   4   8
HETATM    8  C5  UNL     1      26.120   2.415  51.071  1.00  0.00     0.140 A 
HETATM    9  N2  UNL     1      26.937   3.355  50.518  1.00  0.00    -0.224 NA
HETATM   10  C6  UNL     1      26.464   4.285  49.679  1.00  0.00     0.236 A 
HETATM   11  N3  UNL     1      25.173   4.360  49.326  1.00  0.00    -0.241 NA
HETATM   12  C7  UNL     1      24.299   3.475  49.821  1.00  0.00     0.078 A 
HETATM   13  C8  UNL     1      22.956   3.458  49.511  1.00  0.00    -0.032 A 
HETATM   14  C14 UNL     1      24.808   2.531  50.679  1.00  0.00     0.040 A 
HETATM   15  C9  UNL     1      22.416   4.486  48.582  1.00  0.00     0.050 C 
HETATM   16  C10 UNL     1      22.065   2.522  50.023  1.00  0.00     0.015 A 
HETATM   17  C11 UNL     1      22.606   1.570  50.893  1.00  0.00    -0.060 A 
HETATM   18  C12 UNL     1      21.652   0.559  51.446  1.00  0.00     0.048 C 
HETATM   19  C13 UNL     1      23.944   1.595  51.195  1.00  0.00     0.024 A 
ENDBRANCH   4   8
BRANCH   6  20
HETATM   20  O2  UNL     1      28.170  -0.464  54.075  1.00  0.00    -0.348 OA
BRANCH  20  21
HETATM   21  C18 UNL     1      29.335  -0.823  53.448  1.00  0.00     0.336 C 
BRANCH  21  22
HETATM   22  O3  UNL     1      30.197   0.297  53.487  1.00  0.00    -0.377 OA
HETATM   23  H23 UNL     1      30.217   0.657  54.410  1.00  0.00     0.212 HD
ENDBRANCH  21  22
ENDBRANCH  20  21
ENDBRANCH   6  20
BRANCH   1  24
HETATM   24  O1  UNL     1      24.989  -0.768  54.565  1.00  0.00    -0.357 OA
HETATM   25  C1  UNL     1      23.610  -0.789  54.350  1.00  0.00     0.209 C 
ENDBRANCH   1  24
TORSDOF 5
ENDMDL
MODEL 5
REMARK VINA RESULT:      -8.0      3.523      5.662
REMARK  5 active torsions:
REMARK  status: ('A' for Active; 'I' for Inactive)
REMARK    1  A    between atoms: O1_2  and  C2_3 
REMARK    2  A    between atoms: N1_6  and  C5_7 
REMARK    3  A    between atoms: C16_20  and  O2_22 
REMARK    4  A    between atoms: O2_22  and  C18_23 
REMARK    5  A    between atoms: C18_23  and  O3_24 
ROOT
HETATM    1  C2  UNL     1      23.089   5.164  49.478  1.00  0.00     0.079 C 
HETATM    2  C3  UNL     1      23.174   3.864  49.253  1.00  0.00     0.028 C 
HETATM    3  C4  UNL     1      23.932   3.347  50.412  1.00  0.00     0.154 C 
HETATM    4  N1  UNL     1      23.141   3.694  51.615  1.00  0.00    -0.358 N 
HETATM    5  C15 UNL     1      23.373   5.091  51.920  1.00  0.00     0.169 C 
HETATM    6  C16 UNL     1      23.642   5.903  50.640  1.00  0.00     0.124 C 
HETATM    7  C17 UNL     1      22.950   7.226  50.792  1.00  0.00     0.055 C 
ENDROOT
BRANCH   4   8
HETATM    8  C5  UNL     1      22.343   2.649  52.149  1.00  0.00     0.140 A 
HETATM    9  N2  UNL     1      20.993   2.821  52.065  1.00  0.00    -0.224 NA
HETATM   10  C6  UNL     1      20.141   1.930  52.585  1.00  0.00     0.236 A 
HETATM   11  N3  UNL     1      20.544   0.819  53.218  1.00  0.00    -0.241 NA
HETATM   12  C7  UNL     1      21.853   0.569  53.346  1.00  0.00     0.078 A 
HETATM   13  C8  UNL     1      22.370  -0.549  53.966  1.00  0.00    -0.032 A 
HETATM   14  C14 UNL     1      22.708   1.498  52.804  1.00  0.00     0.040 A 
HETATM   15  C9  UNL     1      21.435  -1.548  54.551  1.00  0.00     0.050 C 
HETATM   16  C10 UNL     1      23.733  -0.800  54.078  1.00  0.00     0.015 A 
HETATM   17  C11 UNL     1      24.582   0.158  53.517  1.00  0.00    -0.060 A 
HETATM   18  C12 UNL     1      26.050  -0.107  53.633  1.00  0.00     0.048 C 
HETATM   19  C13 UNL     1      24.059   1.267  52.902  1.00  0.00     0.024 A 
ENDBRANCH   4   8
BRANCH   6  20
HETATM   20  O2  UNL     1      25.009   6.039  50.441  1.00  0.00    -0.348 OA
BRANCH  20  21
HETATM   21  C18 UNL     1      25.378   7.301  50.055  1.00  0.00     0.336 C 
BRANCH  21  22
HETATM   22  O3  UNL     1      26.462   7.694  50.874  1.00  0.00    -0.377 OA
HETATM   23  H23 UNL     1      27.141   6.973  50.878  1.00  0.00     0.212 HD
ENDBRANCH  21  22
ENDBRANCH  20  21
ENDBRANCH   6  20
BRANCH   1  24
HETATM   24  O1  UNL     1      22.415   5.880  48.520  1.00  0.00    -0.357 OA
HETATM   25  C1  UNL     1      22.814   6.119  47.204  1.00  0.00     0.209 C 
ENDBRANCH   1  24
TORSDOF 5
ENDMDL
MODEL 6
REMARK VINA RESULT:      -7.9      3.280      6.303
REMARK  5 active torsions:
REMARK  status: ('A' for Active; 'I' for Inactive)
REMARK    1  A    between atoms: O1_2  and  C2_3 
REMARK    2  A    between atoms: N1_6  and  C5_7 
REMARK    3  A    between atoms: C16_20  and  O2_22 
REMARK    4  A    between atoms: O2_22  and  C18_23 
REMARK    5  A    between atoms: C18_23  and  O3_24 
ROOT
HETATM    1  C2  UNL     1      21.224   2.267  51.366  1.00  0.00     0.079 C 
HETATM    2  C3  UNL     1      21.404   2.405  52.668  1.00  0.00     0.028 C 
HETATM    3  C4  UNL     1      21.168   1.049  53.209  1.00  0.00     0.154 C 
HETATM    4  N1  UNL     1      22.161   0.163  52.560  1.00  0.00    -0.358 N 
HETATM    5  C15 UNL     1      21.687  -0.145  51.225  1.00  0.00     0.169 C 
HETATM    6  C16 UNL     1      20.866   1.020  50.645  1.00  0.00     0.124 C 
HETATM    7  C17 UNL     1      21.219   1.140  49.191  1.00  0.00     0.055 C 
ENDROOT
BRANCH   4   8
HETATM    8  C5  UNL     1      23.313  -0.139  53.331  1.00  0.00     0.140 A 
HETATM    9  N2  UNL     1      23.116  -0.940  54.417  1.00  0.00    -0.224 NA
HETATM   10  C6  UNL     1      24.117  -1.245  55.251  1.00  0.00     0.236 A 
HETATM   11  N3  UNL     1      25.369  -0.795  55.084  1.00  0.00    -0.241 NA
HETATM   12  C7  UNL     1      25.653  -0.003  54.042  1.00  0.00     0.078 A 
HETATM   13  C8  UNL     1      26.908   0.500  53.774  1.00  0.00    -0.032 A 
HETATM   14  C14 UNL     1      24.609   0.296  53.201  1.00  0.00     0.040 A 
HETATM   15  C9  UNL     1      28.031   0.170  54.692  1.00  0.00     0.050 C 
HETATM   16  C10 UNL     1      27.189   1.309  52.679  1.00  0.00     0.015 A 
HETATM   17  C11 UNL     1      26.112   1.599  51.835  1.00  0.00    -0.060 A 
HETATM   18  C12 UNL     1      26.408   2.468  50.655  1.00  0.00     0.048 C 
HETATM   19  C13 UNL     1      24.867   1.093  52.111  1.00  0.00     0.024 A 
ENDBRANCH   4   8
BRANCH   6  20
HETATM   20  O2  UNL     1      19.511   0.793  50.843  1.00  0.00    -0.348 OA
BRANCH  20  21
HETATM   21  C18 UNL     1      18.722   1.314  49.850  1.00  0.00     0.336 C 
BRANCH  21  22
HETATM   22  O3  UNL     1      17.752   0.338  49.525  1.00  0.00    -0.377 OA
HETATM   23  H23 UNL     1      17.452  -0.108  50.357  1.00  0.00     0.212 HD
ENDBRANCH  21  22
ENDBRANCH  20  21
ENDBRANCH   6  20
BRANCH   1  24
HETATM   24  O1  UNL     1      21.392   3.413  50.628  1.00  0.00    -0.357 OA
HETATM   25  C1  UNL     1      20.835   4.668  50.876  1.00  0.00     0.209 C 
ENDBRANCH   1  24
TORSDOF 5
ENDMDL
MODEL 7
REMARK VINA RESULT:      -7.8      3.385      5.159
REMARK  5 active torsions:
REMARK  status: ('A' for Active; 'I' for Inactive)
REMARK    1  A    between atoms: O1_2  and  C2_3 
REMARK    2  A    between atoms: N1_6  and  C5_7 
REMARK    3  A    between atoms: C16_20  and  O2_22 
REMARK    4  A    between atoms: O2_22  and  C18_23 
REMARK    5  A    between atoms: C18_23  and  O3_24 
ROOT
HETATM    1  C2  UNL     1      23.275   4.248  49.500  1.00  0.00     0.079 C 
HETATM    2  C3  UNL     1      23.947   3.116  49.383  1.00  0.00     0.028 C 
HETATM    3  C4  UNL     1      24.958   3.185  50.460  1.00  0.00     0.154 C 
HETATM    4  N1  UNL     1      24.206   3.304  51.730  1.00  0.00    -0.358 N 
HETATM    5  C15 UNL     1      23.772   4.680  51.870  1.00  0.00     0.169 C 
HETATM    6  C16 UNL     1      23.509   5.322  50.496  1.00  0.00     0.124 C 
HETATM    7  C17 UNL     1      22.288   6.185  50.628  1.00  0.00     0.055 C 
ENDROOT
BRANCH   4   8
HETATM    8  C5  UNL     1      24.052   2.102  52.468  1.00  0.00     0.140 A 
HETATM    9  N2  UNL     1      25.196   1.550  52.963  1.00  0.00    -0.224 NA
HETATM   10  C6  UNL     1      25.180   0.387  53.625  1.00  0.00     0.236 A 
HETATM   11  N3  UNL     1      24.057  -0.310  53.849  1.00  0.00    -0.241 NA
HETATM   12  C7  UNL     1      22.887   0.159  53.399  1.00  0.00     0.078 A 
HETATM   13  C8  UNL     1      21.676  -0.473  53.588  1.00  0.00    -0.032 A 
HETATM   14  C14 UNL     1      22.928   1.354  52.722  1.00  0.00     0.040 A 
HETATM   15  C9  UNL     1      21.644  -1.767  54.322  1.00  0.00     0.050 C 
HETATM   16  C10 UNL     1      20.468   0.036  53.127  1.00  0.00     0.015 A 
HETATM   17  C11 UNL     1      20.535   1.253  52.442  1.00  0.00    -0.060 A 
HETATM   18  C12 UNL     1      19.237   1.806  51.944  1.00  0.00     0.048 C 
HETATM   19  C13 UNL     1      21.744   1.875  52.259  1.00  0.00     0.024 A 
ENDBRANCH   4   8
BRANCH   6  20
HETATM   20  O2  UNL     1      24.624   6.042  50.086  1.00  0.00    -0.348 OA
BRANCH  20  21
HETATM   21  C18 UNL     1      24.808   7.204  50.789  1.00  0.00     0.336 C 
BRANCH  21  22
HETATM   22  O3  UNL     1      26.198   7.460  50.826  1.00  0.00    -0.377 OA
HETATM   23  H23 UNL     1      26.619   6.855  51.489  1.00  0.00     0.212 HD
ENDBRANCH  21  22
ENDBRANCH  20  21
ENDBRANCH   6  20
BRANCH   1  24
HETATM   24  O1  UNL     1      22.260   4.421  48.591  1.00  0.00    -0.357 OA
HETATM   25  C1  UNL     1      22.013   3.666  47.444  1.00  0.00     0.209 C 
ENDBRANCH   1  24
TORSDOF 5
ENDMDL
MODEL 8
REMARK VINA RESULT:      -7.8      2.393      4.260
REMARK  5 active torsions:
REMARK  status: ('A' for Active; 'I' for Inactive)
REMARK    1  A    between atoms: O1_2  and  C2_3 
REMARK    2  A    between atoms: N1_6  and  C5_7 
REMARK    3  A    between atoms: C16_20  and  O2_22 
REMARK    4  A    between atoms: O2_22  and  C18_23 
REMARK    5  A    between atoms: C18_23  and  O3_24 
ROOT
HETATM    1  C2  UNL     1      25.611   2.234  53.175  1.00  0.00     0.079 C 
HETATM    2  C3  UNL     1      24.503   2.860  53.533  1.00  0.00     0.028 C 
HETATM    3  C4  UNL     1      23.877   3.247  52.250  1.00  0.00     0.154 C 
HETATM    4  N1  UNL     1      23.638   1.988  51.509  1.00  0.00    -0.358 N 
HETATM    5  C15 UNL     1      24.892   1.564  50.920  1.00  0.00     0.169 C 
HETATM    6  C16 UNL     1      26.087   1.991  51.791  1.00  0.00     0.124 C 
HETATM    7  C17 UNL     1      27.083   0.868  51.773  1.00  0.00     0.055 C 
ENDROOT
BRANCH   4   8
HETATM    8  C5  UNL     1      22.313   1.481  51.570  1.00  0.00     0.140 A 
HETATM    9  N2  UNL     1      21.435   1.985  50.657  1.00  0.00    -0.224 NA
HETATM   10  C6  UNL     1      20.146   1.625  50.655  1.00  0.00     0.236 A 
HETATM   11  N3  UNL     1      19.630   0.756  51.536  1.00  0.00    -0.241 NA
HETATM   12  C7  UNL     1      20.421   0.210  52.468  1.00  0.00     0.078 A 
HETATM   13  C8  UNL     1      19.993  -0.702  53.409  1.00  0.00    -0.032 A 
HETATM   14  C14 UNL     1      21.740   0.595  52.449  1.00  0.00     0.040 A 
HETATM   15  C9  UNL     1      18.563  -1.111  53.420  1.00  0.00     0.050 C 
HETATM   16  C10 UNL     1      20.832  -1.271  54.360  1.00  0.00     0.015 A 
HETATM   17  C11 UNL     1      22.170  -0.865  54.321  1.00  0.00    -0.060 A 
HETATM   18  C12 UNL     1      23.078  -1.474  55.342  1.00  0.00     0.048 C 
HETATM   19  C13 UNL     1      22.587   0.043  53.381  1.00  0.00     0.024 A 
ENDBRANCH   4   8
BRANCH   6  20
HETATM   20  O2  UNL     1      26.622   3.181  51.315  1.00  0.00    -0.348 OA
BRANCH  20  21
HETATM   21  C18 UNL     1      26.609   3.272  49.947  1.00  0.00     0.336 C 
BRANCH  21  22
HETATM   22  O3  UNL     1      27.461   4.342  49.587  1.00  0.00    -0.377 OA
HETATM   23  H23 UNL     1      28.379   4.144  49.903  1.00  0.00     0.212 HD
ENDBRANCH  21  22
ENDBRANCH  20  21
ENDBRANCH   6  20
BRANCH   1  24
HETATM   24  O1  UNL     1      26.381   1.770  54.213  1.00  0.00    -0.357 OA
HETATM   25  C1  UNL     1      26.241   0.562  54.898  1.00  0.00     0.209 C 
ENDBRANCH   1  24
TORSDOF 5
ENDMDL
MODEL 9
REMARK VINA RESULT:      -7.7      3.638      5.984
REMARK  5 active torsions:
REMARK  status: ('A' for Active; 'I' for Inactive)
REMARK    1  A    between atoms: O1_2  and  C2_3 
REMARK    2  A    between atoms: N1_6  and  C5_7 
REMARK    3  A    between atoms: C16_20  and  O2_22 
REMARK    4  A    between atoms: O2_22  and  C18_23 
REMARK    5  A    between atoms: C18_23  and  O3_24 
ROOT
HETATM    1  C2  UNL     1      24.864   1.018  52.965  1.00  0.00     0.079 C 
HETATM    2  C3  UNL     1      23.914   1.934  53.042  1.00  0.00     0.028 C 
HETATM    3  C4  UNL     1      24.563   3.168  52.548  1.00  0.00     0.154 C 
HETATM    4  N1  UNL     1      25.002   2.880  51.163  1.00  0.00    -0.358 N 
HETATM    5  C15 UNL     1      26.226   2.107  51.230  1.00  0.00     0.169 C 
HETATM    6  C16 UNL     1      26.254   1.217  52.485  1.00  0.00     0.124 C 
HETATM    7  C17 UNL     1      26.863  -0.097  52.093  1.00  0.00     0.055 C 
ENDROOT
BRANCH   4   8
HETATM    8  C5  UNL     1      24.153   3.365  50.135  1.00  0.00     0.140 A 
HETATM    9  N2  UNL     1      23.149   2.530  49.742  1.00  0.00    -0.224 NA
HETATM   10  C6  UNL     1      22.321   2.855  48.742  1.00  0.00     0.236 A 
HETATM   11  N3  UNL     1      22.415   4.007  48.063  1.00  0.00    -0.241 NA
HETATM   12  C7  UNL     1      23.370   4.888  48.383  1.00  0.00     0.078 A 
HETATM   13  C8  UNL     1      23.543   6.104  47.757  1.00  0.00    -0.032 A 
HETATM   14  C14 UNL     1      24.208   4.532  49.413  1.00  0.00     0.040 A 
HETATM   15  C9  UNL     1      22.631   6.479  46.643  1.00  0.00     0.050 C 
HETATM   16  C10 UNL     1      24.532   7.014  48.112  1.00  0.00     0.015 A 
HETATM   17  C11 UNL     1      25.371   6.630  49.164  1.00  0.00    -0.060 A 
HETATM   18  C12 UNL     1      26.438   7.606  49.551  1.00  0.00     0.048 C 
HETATM   19  C13 UNL     1      25.192   5.418  49.780  1.00  0.00     0.024 A 
ENDBRANCH   4   8
BRANCH   6  20
HETATM   20  O2  UNL     1      26.963   1.848  53.499  1.00  0.00    -0.348 OA
BRANCH  20  21
HETATM   21  C18 UNL     1      28.320   1.685  53.394  1.00  0.00     0.336 C 
BRANCH  21  22
HETATM   22  O3  UNL     1      28.878   2.956  53.124  1.00  0.00    -0.377 OA
HETATM   23  H23 UNL     1      29.083   3.019  52.157  1.00  0.00     0.212 HD
ENDBRANCH  21  22
ENDBRANCH  20  21
ENDBRANCH   6  20
BRANCH   1  24
HETATM   24  O1  UNL     1      24.498  -0.239  53.376  1.00  0.00    -0.357 OA
HETATM   25  C1  UNL     1      23.216  -0.683  53.706  1.00  0.00     0.209 C 
ENDBRANCH   1  24
TORSDOF 5
ENDMDL
