MODEL 1
REMARK VINA RESULT:      -8.8      0.000      0.000
REMARK  7 active torsions:
REMARK  status: ('A' for Active; 'I' for Inactive)
REMARK    1  A    between atoms: C2_2  and  N1_3 
REMARK    2  A    between atoms: C2_2  and  N3_12 
REMARK    3  A    between atoms: N1_3  and  C3_4 
REMARK    4  A    between atoms: C3_4  and  C4_5 
REMARK    5  A    between atoms: C4_5  and  N2_6 
REMARK    6  A    between atoms: N3_12  and  C10_13 
REMARK    7  A    between atoms: N6_22  and  C17_23 
ROOT
HETATM    1  C10 UNL     1      23.197   3.551  52.127  1.00  0.00     0.131 C 
HETATM    2  C11 UNL     1      24.201   2.949  51.200  1.00  0.00     0.000 C 
HETATM    3  C12 UNL     1      24.665   1.783  51.661  1.00  0.00     0.005 C 
HETATM    4  C13 UNL     1      24.104   1.341  52.956  1.00  0.00     0.182 A 
HETATM    5  C14 UNL     1      22.636   1.400  52.867  1.00  0.00     0.062 A 
HETATM    6  C15 UNL     1      22.120   2.555  52.432  1.00  0.00     0.032 C 
HETATM    7  N4  UNL     1      21.769   0.324  53.201  1.00  0.00    -0.245 NA
HETATM    8  C16 UNL     1      22.264  -0.795  53.623  1.00  0.00     0.223 A 
HETATM    9  N5  UNL     1      23.677  -0.913  53.742  1.00  0.00    -0.291 N 
HETATM   10  N6  UNL     1      24.600   0.092  53.437  1.00  0.00    -0.277 N 
HETATM   11  H25 UNL     1      23.946  -1.857  54.090  1.00  0.00     0.188 HD
ENDROOT
BRANCH   1  12
HETATM   12  N3  UNL     1      22.515   4.678  51.516  1.00  0.00    -0.369 N 
HETATM   13  H18 UNL     1      21.562   4.505  51.087  1.00  0.00     0.161 HD
BRANCH  12  14
HETATM   14  C2  UNL     1      22.919   6.035  51.389  1.00  0.00     0.073 C 
HETATM   15  C1  UNL     1      21.870   6.715  50.903  1.00  0.00     0.083 C 
BRANCH  14  16
HETATM   16  N1  UNL     1      24.207   6.532  51.727  1.00  0.00    -0.378 N 
HETATM   17  H3  UNL     1      24.453   6.426  52.723  1.00  0.00     0.160 HD
BRANCH  16  18
HETATM   18  C3  UNL     1      25.037   7.122  50.694  1.00  0.00     0.151 C 
BRANCH  18  19
HETATM   19  C4  UNL     1      25.574   5.999  49.841  1.00  0.00     0.292 C 
BRANCH  19  20
HETATM   20  N2  UNL     1      26.783   6.340  49.157  1.00  0.00     0.090 N 
HETATM   21  C5  UNL     1      27.379   5.140  48.625  1.00  0.00     0.272 C 
HETATM   22  C6  UNL     1      28.803   5.441  48.287  1.00  0.00     0.030 C 
HETATM   23  C7  UNL     1      29.034   6.893  47.924  1.00  0.00     0.003 C 
HETATM   24  C8  UNL     1      27.813   7.509  47.278  1.00  0.00     0.030 C 
HETATM   25  C9  UNL     1      26.569   7.289  48.104  1.00  0.00     0.272 C 
ENDBRANCH  19  20
ENDBRANCH  18  19
ENDBRANCH  16  18
ENDBRANCH  14  16
ENDBRANCH  12  14
ENDBRANCH   1  12
BRANCH  10  26
HETATM   26  C17 UNL     1      25.996  -0.119  53.601  1.00  0.00     0.052 A 
HETATM   27  C18 UNL     1      26.684  -1.014  52.811  1.00  0.00     0.034 A 
HETATM   28  C19 UNL     1      28.026  -1.264  52.922  1.00  0.00     0.044 A 
HETATM   29  C20 UNL     1      28.776  -0.602  53.869  1.00  0.00     0.116 A 
HETATM   30  F1  UNL     1      30.103  -0.775  54.061  1.00  0.00    -0.206 F 
HETATM   31  C21 UNL     1      28.104   0.295  54.667  1.00  0.00     0.044 A 
HETATM   32  C22 UNL     1      26.747   0.544  54.549  1.00  0.00     0.034 A 
ENDBRANCH  10  26
TORSDOF 7
ENDMDL
MODEL 2
REMARK VINA RESULT:      -8.5      2.320      3.859
REMARK  7 active torsions:
REMARK  status: ('A' for Active; 'I' for Inactive)
REMARK    1  A    between atoms: C2_2  and  N1_3 
REMARK    2  A    between atoms: C2_2  and  N3_12 
REMARK    3  A    between atoms: N1_3  and  C3_4 
REMARK    4  A    between atoms: C3_4  and  C4_5 
REMARK    5  A    between atoms: C4_5  and  N2_6 
REMARK    6  A    between atoms: N3_12  and  C10_13 
REMARK    7  A    between atoms: N6_22  and  C17_23 
ROOT
HETATM    1  C10 UNL     1      25.989   4.698  49.995  1.00  0.00     0.131 C 
HETATM    2  C11 UNL     1      26.583   3.451  49.427  1.00  0.00     0.000 C 
HETATM    3  C12 UNL     1      26.505   2.428  50.285  1.00  0.00     0.005 C 
HETATM    4  C13 UNL     1      25.863   2.733  51.582  1.00  0.00     0.182 A 
HETATM    5  C14 UNL     1      24.570   3.382  51.316  1.00  0.00     0.062 A 
HETATM    6  C15 UNL     1      24.598   4.427  50.481  1.00  0.00     0.032 C 
HETATM    7  N4  UNL     1      23.332   2.963  51.877  1.00  0.00    -0.245 NA
HETATM    8  C16 UNL     1      23.301   1.954  52.687  1.00  0.00     0.223 A 
HETATM    9  N5  UNL     1      24.520   1.289  52.994  1.00  0.00    -0.291 N 
HETATM   10  N6  UNL     1      25.778   1.634  52.489  1.00  0.00    -0.277 N 
HETATM   11  H25 UNL     1      24.360   0.498  53.652  1.00  0.00     0.188 HD
ENDROOT
BRANCH   1  12
HETATM   12  N3  UNL     1      25.849   5.731  48.985  1.00  0.00    -0.369 N 
HETATM   13  H18 UNL     1      24.917   5.810  48.487  1.00  0.00     0.161 HD
BRANCH  12  14
HETATM   14  C2  UNL     1      26.784   6.699  48.527  1.00  0.00     0.073 C 
HETATM   15  C1  UNL     1      26.135   7.497  47.666  1.00  0.00     0.083 C 
BRANCH  14  16
HETATM   16  N1  UNL     1      28.144   6.768  48.934  1.00  0.00    -0.378 N 
HETATM   17  H3  UNL     1      28.313   7.389  49.741  1.00  0.00     0.160 HD
BRANCH  16  18
HETATM   18  C3  UNL     1      29.142   5.997  48.219  1.00  0.00     0.151 C 
BRANCH  18  19
HETATM   19  C4  UNL     1      30.370   6.861  48.072  1.00  0.00     0.292 C 
BRANCH  19  20
HETATM   20  N2  UNL     1      31.571   6.107  47.885  1.00  0.00     0.090 N 
HETATM   21  C5  UNL     1      32.362   6.174  49.089  1.00  0.00     0.272 C 
HETATM   22  C6  UNL     1      33.754   5.750  48.752  1.00  0.00     0.030 C 
HETATM   23  C7  UNL     1      33.815   4.777  47.592  1.00  0.00     0.003 C 
HETATM   24  C8  UNL     1      32.576   3.913  47.522  1.00  0.00     0.030 C 
HETATM   25  C9  UNL     1      31.313   4.739  47.544  1.00  0.00     0.272 C 
ENDBRANCH  19  20
ENDBRANCH  18  19
ENDBRANCH  16  18
ENDBRANCH  14  16
ENDBRANCH  12  14
ENDBRANCH   1  12
BRANCH  10  26
HETATM   26  C17 UNL     1      26.943   0.913  52.866  1.00  0.00     0.052 A 
HETATM   27  C18 UNL     1      28.032   1.550  53.422  1.00  0.00     0.034 A 
HETATM   28  C19 UNL     1      29.183   0.912  53.803  1.00  0.00     0.044 A 
HETATM   29  C20 UNL     1      29.304  -0.450  53.640  1.00  0.00     0.116 A 
HETATM   30  F1  UNL     1      30.394  -1.174  53.982  1.00  0.00    -0.206 F 
HETATM   31  C21 UNL     1      28.226  -1.102  53.087  1.00  0.00     0.044 A 
HETATM   32  C22 UNL     1      27.065  -0.451  52.704  1.00  0.00     0.034 A 
ENDBRANCH  10  26
TORSDOF 7
ENDMDL
MODEL 3
REMARK VINA RESULT:      -8.4      2.962      5.583
REMARK  7 active torsions:
REMARK  status: ('A' for Active; 'I' for Inactive)
REMARK    1  A    between atoms: C2_2  and  N1_3 
REMARK    2  A    between atoms: C2_2  and  N3_12 
REMARK    3  A    between atoms: N1_3  and  C3_4 
REMARK    4  A    between atoms: C3_4  and  C4_5 
REMARK    5  A    between atoms: C4_5  and  N2_6 
REMARK    6  A    between atoms: N3_12  and  C10_13 
REMARK    7  A    between atoms: N6_22  and  C17_23 
ROOT
HETATM    1  C10 UNL     1      25.204   3.350  51.144  1.00  0.00     0.131 C 
HETATM    2  C11 UNL     1      24.336   3.566  52.339  1.00  0.00     0.000 C 
HETATM    3  C12 UNL     1      23.983   2.410  52.912  1.00  0.00     0.005 C 
HETATM    4  C13 UNL     1      24.510   1.191  52.262  1.00  0.00     0.182 A 
HETATM    5  C14 UNL     1      25.964   1.348  52.095  1.00  0.00     0.062 A 
HETATM    6  C15 UNL     1      26.368   2.480  51.507  1.00  0.00     0.032 C 
HETATM    7  N4  UNL     1      26.927   0.394  52.522  1.00  0.00    -0.245 NA
HETATM    8  C16 UNL     1      26.540  -0.702  53.091  1.00  0.00     0.223 A 
HETATM    9  N5  UNL     1      25.146  -0.920  53.272  1.00  0.00    -0.291 N 
HETATM   10  N6  UNL     1      24.133  -0.038  52.883  1.00  0.00    -0.277 N 
HETATM   11  H25 UNL     1      24.967  -1.834  53.739  1.00  0.00     0.188 HD
ENDROOT
BRANCH   1  12
HETATM   12  N3  UNL     1      25.787   4.595  50.676  1.00  0.00    -0.369 N 
HETATM   13  H18 UNL     1      26.250   5.223  51.392  1.00  0.00     0.161 HD
BRANCH  12  14
HETATM   14  C2  UNL     1      25.848   5.143  49.365  1.00  0.00     0.073 C 
HETATM   15  C1  UNL     1      26.984   4.700  48.806  1.00  0.00     0.083 C 
BRANCH  14  16
HETATM   16  N1  UNL     1      24.864   5.996  48.797  1.00  0.00    -0.378 N 
HETATM   17  H3  UNL     1      25.249   6.776  48.243  1.00  0.00     0.160 HD
BRANCH  16  18
HETATM   18  C3  UNL     1      23.460   5.717  49.027  1.00  0.00     0.151 C 
BRANCH  18  19
HETATM   19  C4  UNL     1      23.016   4.712  47.993  1.00  0.00     0.292 C 
BRANCH  19  20
HETATM   20  N2  UNL     1      22.076   3.760  48.499  1.00  0.00     0.090 N 
HETATM   21  C5  UNL     1      22.701   2.461  48.551  1.00  0.00     0.272 C 
HETATM   22  C6  UNL     1      21.624   1.435  48.678  1.00  0.00     0.030 C 
HETATM   23  C7  UNL     1      20.386   1.955  49.378  1.00  0.00     0.003 C 
HETATM   24  C8  UNL     1      20.725   3.024  50.393  1.00  0.00     0.030 C 
HETATM   25  C9  UNL     1      21.577   4.116  49.794  1.00  0.00     0.272 C 
ENDBRANCH  19  20
ENDBRANCH  18  19
ENDBRANCH  16  18
ENDBRANCH  14  16
ENDBRANCH  12  14
ENDBRANCH   1  12
BRANCH  10  26
HETATM   26  C17 UNL     1      22.764  -0.353  53.097  1.00  0.00     0.052 A 
HETATM   27  C18 UNL     1      22.361  -1.103  54.181  1.00  0.00     0.034 A 
HETATM   28  C19 UNL     1      21.060  -1.442  54.440  1.00  0.00     0.044 A 
HETATM   29  C20 UNL     1      20.056  -1.029  53.591  1.00  0.00     0.116 A 
HETATM   30  F1  UNL     1      18.743  -1.308  53.755  1.00  0.00    -0.206 F 
HETATM   31  C21 UNL     1      20.441  -0.279  52.504  1.00  0.00     0.044 A 
HETATM   32  C22 UNL     1      21.759   0.060  52.248  1.00  0.00     0.034 A 
ENDBRANCH  10  26
TORSDOF 7
ENDMDL
MODEL 4
REMARK VINA RESULT:      -8.4      2.323      3.988
REMARK  7 active torsions:
REMARK  status: ('A' for Active; 'I' for Inactive)
REMARK    1  A    between atoms: C2_2  and  N1_3 
REMARK    2  A    between atoms: C2_2  and  N3_12 
REMARK    3  A    between atoms: N1_3  and  C3_4 
REMARK    4  A    between atoms: C3_4  and  C4_5 
REMARK    5  A    between atoms: C4_5  and  N2_6 
REMARK    6  A    between atoms: N3_12  and  C10_13 
REMARK    7  A    between atoms: N6_22  and  C17_23 
ROOT
HETATM    1  C10 UNL     1      24.555   3.699  51.535  1.00  0.00     0.131 C 
HETATM    2  C11 UNL     1      25.448   2.838  50.705  1.00  0.00     0.000 C 
HETATM    3  C12 UNL     1      25.736   1.684  51.317  1.00  0.00     0.005 C 
HETATM    4  C13 UNL     1      25.127   1.504  52.653  1.00  0.00     0.182 A 
HETATM    5  C14 UNL     1      23.684   1.771  52.543  1.00  0.00     0.062 A 
HETATM    6  C15 UNL     1      23.344   2.925  51.957  1.00  0.00     0.032 C 
HETATM    7  N4  UNL     1      22.669   0.890  53.006  1.00  0.00    -0.245 NA
HETATM    8  C16 UNL     1      22.994  -0.226  53.574  1.00  0.00     0.223 A 
HETATM    9  N5  UNL     1      24.374  -0.539  53.721  1.00  0.00    -0.291 N 
HETATM   10  N6  UNL     1      25.435   0.268  53.297  1.00  0.00    -0.277 N 
HETATM   11  H25 UNL     1      24.502  -1.459  54.191  1.00  0.00     0.188 HD
ENDROOT
BRANCH   1  12
HETATM   12  N3  UNL     1      24.044   4.827  50.776  1.00  0.00    -0.369 N 
HETATM   13  H18 UNL     1      24.206   4.831  49.730  1.00  0.00     0.161 HD
BRANCH  12  14
HETATM   14  C2  UNL     1      23.332   5.978  51.212  1.00  0.00     0.073 C 
HETATM   15  C1  UNL     1      24.219   6.981  51.295  1.00  0.00     0.083 C 
BRANCH  14  16
HETATM   16  N1  UNL     1      21.940   6.011  51.494  1.00  0.00    -0.378 N 
HETATM   17  H3  UNL     1      21.711   6.021  52.500  1.00  0.00     0.160 HD
BRANCH  16  18
HETATM   18  C3  UNL     1      20.991   6.028  50.397  1.00  0.00     0.151 C 
BRANCH  18  19
HETATM   19  C4  UNL     1      20.219   4.733  50.439  1.00  0.00     0.292 C 
BRANCH  19  20
HETATM   20  N2  UNL     1      20.866   3.667  49.737  1.00  0.00     0.090 N 
HETATM   21  C5  UNL     1      19.950   2.561  49.608  1.00  0.00     0.272 C 
HETATM   22  C6  UNL     1      20.741   1.344  49.259  1.00  0.00     0.030 C 
HETATM   23  C7  UNL     1      22.011   1.658  48.495  1.00  0.00     0.003 C 
HETATM   24  C8  UNL     1      21.859   2.899  47.644  1.00  0.00     0.030 C 
HETATM   25  C9  UNL     1      21.337   4.067  48.444  1.00  0.00     0.272 C 
ENDBRANCH  19  20
ENDBRANCH  18  19
ENDBRANCH  16  18
ENDBRANCH  14  16
ENDBRANCH  12  14
ENDBRANCH   1  12
BRANCH  10  26
HETATM   26  C17 UNL     1      26.785  -0.128  53.501  1.00  0.00     0.052 A 
HETATM   27  C18 UNL     1      27.630   0.598  54.313  1.00  0.00     0.034 A 
HETATM   28  C19 UNL     1      28.939   0.271  54.547  1.00  0.00     0.044 A 
HETATM   29  C20 UNL     1      29.489  -0.845  53.955  1.00  0.00     0.116 A 
HETATM   30  F1  UNL     1      30.767  -1.255  54.119  1.00  0.00    -0.206 F 
HETATM   31  C21 UNL     1      28.659  -1.581  53.140  1.00  0.00     0.044 A 
HETATM   32  C22 UNL     1      27.335  -1.245  52.909  1.00  0.00     0.034 A 
ENDBRANCH  10  26
TORSDOF 7
ENDMDL
MODEL 5
REMARK VINA RESULT:      -8.3      1.867      2.536
REMARK  7 active torsions:
REMARK  status: ('A' for Active; 'I' for Inactive)
REMARK    1  A    between atoms: C2_2  and  N1_3 
REMARK    2  A    between atoms: C2_2  and  N3_12 
REMARK    3  A    between atoms: N1_3  and  C3_4 
REMARK    4  A    between atoms: C3_4  and  C4_5 
REMARK    5  A    between atoms: C4_5  and  N2_6 
REMARK    6  A    between atoms: N3_12  and  C10_13 
REMARK    7  A    between atoms: N6_22  and  C17_23 
ROOT
HETATM    1  C10 UNL     1      25.617   4.276  50.611  1.00  0.00     0.131 C 
HETATM    2  C11 UNL     1      26.391   3.196  49.931  1.00  0.00     0.000 C 
HETATM    3  C12 UNL     1      26.455   2.087  50.676  1.00  0.00     0.005 C 
HETATM    4  C13 UNL     1      25.766   2.157  51.982  1.00  0.00     0.182 A 
HETATM    5  C14 UNL     1      24.394   2.638  51.755  1.00  0.00     0.062 A 
HETATM    6  C15 UNL     1      24.276   3.759  51.034  1.00  0.00     0.032 C 
HETATM    7  N4  UNL     1      23.226   1.989  52.241  1.00  0.00    -0.245 NA
HETATM    8  C16 UNL     1      23.335   0.906  52.940  1.00  0.00     0.223 A 
HETATM    9  N5  UNL     1      24.635   0.393  53.205  1.00  0.00    -0.291 N 
HETATM   10  N6  UNL     1      25.833   0.967  52.768  1.00  0.00    -0.277 N 
HETATM   11  H25 UNL     1      24.587  -0.477  53.774  1.00  0.00     0.188 HD
ENDROOT
BRANCH   1  12
HETATM   12  N3  UNL     1      25.336   5.380  49.710  1.00  0.00    -0.369 N 
HETATM   13  H18 UNL     1      25.198   5.156  48.684  1.00  0.00     0.161 HD
BRANCH  12  14
HETATM   14  C2  UNL     1      25.207   6.771  49.976  1.00  0.00     0.073 C 
HETATM   15  C1  UNL     1      24.050   7.171  49.428  1.00  0.00     0.083 C 
BRANCH  14  16
HETATM   16  N1  UNL     1      26.154   7.550  50.694  1.00  0.00    -0.378 N 
HETATM   17  H3  UNL     1      26.326   7.224  51.658  1.00  0.00     0.160 HD
BRANCH  16  18
HETATM   18  C3  UNL     1      26.777   8.688  50.048  1.00  0.00     0.151 C 
BRANCH  18  19
HETATM   19  C4  UNL     1      27.561   8.172  48.866  1.00  0.00     0.292 C 
BRANCH  19  20
HETATM   20  N2  UNL     1      28.977   8.289  49.035  1.00  0.00     0.090 N 
HETATM   21  C5  UNL     1      29.634   7.838  47.833  1.00  0.00     0.272 C 
HETATM   22  C6  UNL     1      31.068   7.576  48.160  1.00  0.00     0.030 C 
HETATM   23  C7  UNL     1      31.584   8.435  49.296  1.00  0.00     0.003 C 
HETATM   24  C8  UNL     1      30.887   9.776  49.346  1.00  0.00     0.030 C 
HETATM   25  C9  UNL     1      29.385   9.627  49.343  1.00  0.00     0.272 C 
ENDBRANCH  19  20
ENDBRANCH  18  19
ENDBRANCH  16  18
ENDBRANCH  14  16
ENDBRANCH  12  14
ENDBRANCH   1  12
BRANCH  10  26
HETATM   26  C17 UNL     1      27.088   0.385  53.095  1.00  0.00     0.052 A 
HETATM   27  C18 UNL     1      27.349  -0.945  52.844  1.00  0.00     0.034 A 
HETATM   28  C19 UNL     1      28.535  -1.564  53.139  1.00  0.00     0.044 A 
HETATM   29  C20 UNL     1      29.559  -0.853  53.724  1.00  0.00     0.116 A 
HETATM   30  F1  UNL     1      30.765  -1.367  54.054  1.00  0.00    -0.206 F 
HETATM   31  C21 UNL     1      29.315   0.476  53.982  1.00  0.00     0.044 A 
HETATM   32  C22 UNL     1      28.114   1.097  53.681  1.00  0.00     0.034 A 
ENDBRANCH  10  26
TORSDOF 7
ENDMDL
MODEL 6
REMARK VINA RESULT:      -8.3      2.226      6.312
REMARK  7 active torsions:
REMARK  status: ('A' for Active; 'I' for Inactive)
REMARK    1  A    between atoms: C2_2  and  N1_3 
REMARK    2  A    between atoms: C2_2  and  N3_12 
REMARK    3  A    between atoms: N1_3  and  C3_4 
REMARK    4  A    between atoms: C3_4  and  C4_5 
REMARK    5  A    between atoms: C4_5  and  N2_6 
REMARK    6  A    between atoms: N3_12  and  C10_13 
REMARK    7  A    between atoms: N6_22  and  C17_23 
ROOT
HETATM    1  C10 UNL     1      22.189   3.619  51.421  1.00  0.00     0.131 C 
HETATM    2  C11 UNL     1      22.913   3.707  52.723  1.00  0.00     0.000 C 
HETATM    3  C12 UNL     1      24.223   3.475  52.580  1.00  0.00     0.005 C 
HETATM    4  C13 UNL     1      24.671   3.188  51.201  1.00  0.00     0.182 A 
HETATM    5  C14 UNL     1      24.159   4.248  50.318  1.00  0.00     0.062 A 
HETATM    6  C15 UNL     1      22.848   4.504  50.407  1.00  0.00     0.032 C 
HETATM    7  N4  UNL     1      24.961   4.995  49.413  1.00  0.00    -0.245 NA
HETATM    8  C16 UNL     1      26.229   4.750  49.323  1.00  0.00     0.223 A 
HETATM    9  N5  UNL     1      26.785   3.729  50.142  1.00  0.00    -0.291 N 
HETATM   10  N6  UNL     1      26.071   2.947  51.056  1.00  0.00    -0.277 N 
HETATM   11  H25 UNL     1      27.808   3.631  49.976  1.00  0.00     0.188 HD
ENDROOT
BRANCH   1  12
HETATM   12  N3  UNL     1      20.828   4.111  51.533  1.00  0.00    -0.369 N 
HETATM   13  H18 UNL     1      20.684   5.073  51.953  1.00  0.00     0.161 HD
BRANCH  12  14
HETATM   14  C2  UNL     1      19.599   3.502  51.159  1.00  0.00     0.073 C 
HETATM   15  C1  UNL     1      19.145   4.160  50.082  1.00  0.00     0.083 C 
BRANCH  14  16
HETATM   16  N1  UNL     1      19.002   2.402  51.831  1.00  0.00    -0.378 N 
HETATM   17  H3  UNL     1      18.680   2.614  52.788  1.00  0.00     0.160 HD
BRANCH  16  18
HETATM   18  C3  UNL     1      18.897   1.124  51.153  1.00  0.00     0.151 C 
BRANCH  18  19
HETATM   19  C4  UNL     1      19.108   0.040  52.181  1.00  0.00     0.292 C 
BRANCH  19  20
HETATM   20  N2  UNL     1      20.390   0.105  52.814  1.00  0.00     0.090 N 
HETATM   21  C5  UNL     1      20.478  -0.934  53.809  1.00  0.00     0.272 C 
HETATM   22  C6  UNL     1      21.615  -0.606  54.721  1.00  0.00     0.030 C 
HETATM   23  C7  UNL     1      22.706   0.198  54.045  1.00  0.00     0.003 C 
HETATM   24  C8  UNL     1      22.807  -0.124  52.571  1.00  0.00     0.030 C 
HETATM   25  C9  UNL     1      21.470  -0.018  51.880  1.00  0.00     0.272 C 
ENDBRANCH  19  20
ENDBRANCH  18  19
ENDBRANCH  16  18
ENDBRANCH  14  16
ENDBRANCH  12  14
ENDBRANCH   1  12
BRANCH  10  26
HETATM   26  C17 UNL     1      26.717   1.939  51.822  1.00  0.00     0.052 A 
HETATM   27  C18 UNL     1      27.744   2.244  52.688  1.00  0.00     0.034 A 
HETATM   28  C19 UNL     1      28.407   1.319  53.449  1.00  0.00     0.044 A 
HETATM   29  C20 UNL     1      28.059  -0.012  53.378  1.00  0.00     0.116 A 
HETATM   30  F1  UNL     1      28.648  -1.003  54.085  1.00  0.00    -0.206 F 
HETATM   31  C21 UNL     1      27.035  -0.334  52.517  1.00  0.00     0.044 A 
HETATM   32  C22 UNL     1      26.368   0.607  51.750  1.00  0.00     0.034 A 
ENDBRANCH  10  26
TORSDOF 7
ENDMDL
MODEL 7
REMARK VINA RESULT:      -8.3      2.257      7.061
REMARK  7 active torsions:
REMARK  status: ('A' for Active; 'I' for Inactive)
REMARK    1  A    between atoms: C2_2  and  N1_3 
REMARK    2  A    between atoms: C2_2  and  N3_12 
REMARK    3  A    between atoms: N1_3  and  C3_4 
REMARK    4  A    between atoms: C3_4  and  C4_5 
REMARK    5  A    between atoms: C4_5  and  N2_6 
REMARK    6  A    between atoms: N3_12  and  C10_13 
REMARK    7  A    between atoms: N6_22  and  C17_23 
ROOT
HETATM    1  C10 UNL     1      22.506   2.134  52.211  1.00  0.00     0.131 C 
HETATM    2  C11 UNL     1      23.517   3.089  52.752  1.00  0.00     0.000 C 
HETATM    3  C12 UNL     1      23.852   4.020  51.853  1.00  0.00     0.005 C 
HETATM    4  C13 UNL     1      23.171   3.915  50.545  1.00  0.00     0.182 A 
HETATM    5  C14 UNL     1      21.722   3.819  50.785  1.00  0.00     0.062 A 
HETATM    6  C15 UNL     1      21.333   2.886  51.661  1.00  0.00     0.032 C 
HETATM    7  N4  UNL     1      20.749   4.647  50.159  1.00  0.00    -0.245 NA
HETATM    8  C16 UNL     1      21.121   5.549  49.310  1.00  0.00     0.223 A 
HETATM    9  N5  UNL     1      22.508   5.686  49.026  1.00  0.00    -0.291 N 
HETATM   10  N6  UNL     1      23.529   4.917  49.593  1.00  0.00    -0.277 N 
HETATM   11  H25 UNL     1      22.675   6.444  48.330  1.00  0.00     0.188 HD
ENDROOT
BRANCH   1  12
HETATM   12  N3  UNL     1      21.961   1.284  53.255  1.00  0.00    -0.369 N 
HETATM   13  H18 UNL     1      21.102   1.627  53.772  1.00  0.00     0.161 HD
BRANCH  12  14
HETATM   14  C2  UNL     1      22.398   0.016  53.726  1.00  0.00     0.073 C 
HETATM   15  C1  UNL     1      21.560  -0.349  54.708  1.00  0.00     0.083 C 
BRANCH  14  16
HETATM   16  N1  UNL     1      23.518  -0.695  53.218  1.00  0.00    -0.378 N 
HETATM   17  H3  UNL     1      23.318  -1.256  52.376  1.00  0.00     0.160 HD
BRANCH  16  18
HETATM   18  C3  UNL     1      24.798  -0.583  53.891  1.00  0.00     0.151 C 
BRANCH  18  19
HETATM   19  C4  UNL     1      25.719   0.209  52.997  1.00  0.00     0.292 C 
BRANCH  19  20
HETATM   20  N2  UNL     1      27.097  -0.137  53.159  1.00  0.00     0.090 N 
HETATM   21  C5  UNL     1      27.500   0.150  54.513  1.00  0.00     0.272 C 
HETATM   22  C6  UNL     1      28.993   0.179  54.555  1.00  0.00     0.030 C 
HETATM   23  C7  UNL     1      29.635  -0.709  53.509  1.00  0.00     0.003 C 
HETATM   24  C8  UNL     1      28.774  -1.910  53.190  1.00  0.00     0.030 C 
HETATM   25  C9  UNL     1      27.359  -1.512  52.850  1.00  0.00     0.272 C 
ENDBRANCH  19  20
ENDBRANCH  18  19
ENDBRANCH  16  18
ENDBRANCH  14  16
ENDBRANCH  12  14
ENDBRANCH   1  12
BRANCH  10  26
HETATM   26  C17 UNL     1      24.889   5.122  49.233  1.00  0.00     0.052 A 
HETATM   27  C18 UNL     1      25.816   4.106  49.324  1.00  0.00     0.034 A 
HETATM   28  C19 UNL     1      27.138   4.241  48.996  1.00  0.00     0.044 A 
HETATM   29  C20 UNL     1      27.618   5.451  48.541  1.00  0.00     0.116 A 
HETATM   30  F1  UNL     1      28.902   5.690  48.192  1.00  0.00    -0.206 F 
HETATM   31  C21 UNL     1      26.705   6.476  48.445  1.00  0.00     0.044 A 
HETATM   32  C22 UNL     1      25.369   6.332  48.778  1.00  0.00     0.034 A 
ENDBRANCH  10  26
TORSDOF 7
ENDMDL
MODEL 8
REMARK VINA RESULT:      -8.1      1.368      2.096
REMARK  7 active torsions:
REMARK  status: ('A' for Active; 'I' for Inactive)
REMARK    1  A    between atoms: C2_2  and  N1_3 
REMARK    2  A    between atoms: C2_2  and  N3_12 
REMARK    3  A    between atoms: N1_3  and  C3_4 
REMARK    4  A    between atoms: C3_4  and  C4_5 
REMARK    5  A    between atoms: C4_5  and  N2_6 
REMARK    6  A    between atoms: N3_12  and  C10_13 
REMARK    7  A    between atoms: N6_22  and  C17_23 
ROOT
HETATM    1  C10 UNL     1      22.072   3.056  51.954  1.00  0.00     0.131 C 
HETATM    2  C11 UNL     1      22.961   2.353  50.982  1.00  0.00     0.000 C 
HETATM    3  C12 UNL     1      23.614   1.335  51.552  1.00  0.00     0.005 C 
HETATM    4  C13 UNL     1      23.330   1.121  52.987  1.00  0.00     0.182 A 
HETATM    5  C14 UNL     1      21.870   1.060  53.165  1.00  0.00     0.062 A 
HETATM    6  C15 UNL     1      21.171   2.068  52.631  1.00  0.00     0.032 C 
HETATM    7  N4  UNL     1      21.189   0.014  53.844  1.00  0.00    -0.245 NA
HETATM    8  C16 UNL     1      21.861  -0.963  54.363  1.00  0.00     0.223 A 
HETATM    9  N5  UNL     1      23.278  -0.958  54.235  1.00  0.00    -0.291 N 
HETATM   10  N6  UNL     1      24.027   0.028  53.586  1.00  0.00    -0.277 N 
HETATM   11  H25 UNL     1      23.698  -1.794  54.692  1.00  0.00     0.188 HD
ENDROOT
BRANCH   1  12
HETATM   12  N3  UNL     1      21.183   3.991  51.287  1.00  0.00    -0.369 N 
HETATM   13  H18 UNL     1      20.140   3.845  51.399  1.00  0.00     0.161 HD
BRANCH  12  14
HETATM   14  C2  UNL     1      21.482   5.118  50.474  1.00  0.00     0.073 C 
HETATM   15  C1  UNL     1      21.700   6.152  51.299  1.00  0.00     0.083 C 
BRANCH  14  16
HETATM   16  N1  UNL     1      21.530   5.103  49.053  1.00  0.00    -0.378 N 
HETATM   17  H3  UNL     1      20.647   5.378  48.597  1.00  0.00     0.160 HD
BRANCH  16  18
HETATM   18  C3  UNL     1      22.759   4.719  48.386  1.00  0.00     0.151 C 
BRANCH  18  19
HETATM   19  C4  UNL     1      23.690   5.906  48.422  1.00  0.00     0.292 C 
BRANCH  19  20
HETATM   20  N2  UNL     1      25.070   5.539  48.497  1.00  0.00     0.090 N 
HETATM   21  C5  UNL     1      25.833   6.664  48.977  1.00  0.00     0.272 C 
HETATM   22  C6  UNL     1      27.272   6.414  48.664  1.00  0.00     0.030 C 
HETATM   23  C7  UNL     1      27.623   4.941  48.617  1.00  0.00     0.003 C 
HETATM   24  C8  UNL     1      26.759   4.130  49.556  1.00  0.00     0.030 C 
HETATM   25  C9  UNL     1      25.290   4.402  49.343  1.00  0.00     0.272 C 
ENDBRANCH  19  20
ENDBRANCH  18  19
ENDBRANCH  16  18
ENDBRANCH  14  16
ENDBRANCH  12  14
ENDBRANCH   1  12
BRANCH  10  26
HETATM   26  C17 UNL     1      25.444  -0.050  53.522  1.00  0.00     0.052 A 
HETATM   27  C18 UNL     1      26.242   0.928  54.077  1.00  0.00     0.034 A 
HETATM   28  C19 UNL     1      27.611   0.911  54.047  1.00  0.00     0.044 A 
HETATM   29  C20 UNL     1      28.276  -0.128  53.434  1.00  0.00     0.116 A 
HETATM   30  F1  UNL     1      29.621  -0.240  53.348  1.00  0.00    -0.206 F 
HETATM   31  C21 UNL     1      27.495  -1.113  52.874  1.00  0.00     0.044 A 
HETATM   32  C22 UNL     1      26.110  -1.090  52.909  1.00  0.00     0.034 A 
ENDBRANCH  10  26
TORSDOF 7
ENDMDL
MODEL 9
REMARK VINA RESULT:      -7.9      2.848      4.667
REMARK  7 active torsions:
REMARK  status: ('A' for Active; 'I' for Inactive)
REMARK    1  A    between atoms: C2_2  and  N1_3 
REMARK    2  A    between atoms: C2_2  and  N3_12 
REMARK    3  A    between atoms: N1_3  and  C3_4 
REMARK    4  A    between atoms: C3_4  and  C4_5 
REMARK    5  A    between atoms: C4_5  and  N2_6 
REMARK    6  A    between atoms: N3_12  and  C10_13 
REMARK    7  A    between atoms: N6_22  and  C17_23 
ROOT
HETATM    1  C10 UNL     1      25.394   3.341  51.032  1.00  0.00     0.131 C 
HETATM    2  C11 UNL     1      24.548   3.604  52.234  1.00  0.00     0.000 C 
HETATM    3  C12 UNL     1      24.148   2.469  52.817  1.00  0.00     0.005 C 
HETATM    4  C13 UNL     1      24.613   1.223  52.171  1.00  0.00     0.182 A 
HETATM    5  C14 UNL     1      26.071   1.313  51.990  1.00  0.00     0.062 A 
HETATM    6  C15 UNL     1      26.521   2.421  51.390  1.00  0.00     0.032 C 
HETATM    7  N4  UNL     1      26.994   0.319  52.414  1.00  0.00    -0.245 NA
HETATM    8  C16 UNL     1      26.563  -0.755  52.994  1.00  0.00     0.223 A 
HETATM    9  N5  UNL     1      25.163  -0.908  53.189  1.00  0.00    -0.291 N 
HETATM   10  N6  UNL     1      24.187   0.016  52.803  1.00  0.00    -0.277 N 
HETATM   11  H25 UNL     1      24.947  -1.810  53.664  1.00  0.00     0.188 HD
ENDROOT
BRANCH   1  12
HETATM   12  N3  UNL     1      26.028   4.555  50.550  1.00  0.00    -0.369 N 
HETATM   13  H18 UNL     1      26.619   5.108  51.234  1.00  0.00     0.161 HD
BRANCH  12  14
HETATM   14  C2  UNL     1      25.995   5.159  49.264  1.00  0.00     0.073 C 
HETATM   15  C1  UNL     1      24.707   5.226  48.894  1.00  0.00     0.083 C 
BRANCH  14  16
HETATM   16  N1  UNL     1      27.139   5.595  48.543  1.00  0.00    -0.378 N 
HETATM   17  H3  UNL     1      27.922   4.924  48.546  1.00  0.00     0.160 HD
BRANCH  16  18
HETATM   18  C3  UNL     1      27.119   6.890  47.890  1.00  0.00     0.151 C 
BRANCH  18  19
HETATM   19  C4  UNL     1      27.441   7.934  48.930  1.00  0.00     0.292 C 
BRANCH  19  20
HETATM   20  N2  UNL     1      28.828   8.283  48.968  1.00  0.00     0.090 N 
HETATM   21  C5  UNL     1      29.374   8.194  47.637  1.00  0.00     0.272 C 
HETATM   22  C6  UNL     1      30.863   8.153  47.750  1.00  0.00     0.030 C 
HETATM   23  C7  UNL     1      31.386   8.870  48.978  1.00  0.00     0.003 C 
HETATM   24  C8  UNL     1      30.491  10.021  49.377  1.00  0.00     0.030 C 
HETATM   25  C9  UNL     1      29.049   9.594  49.503  1.00  0.00     0.272 C 
ENDBRANCH  19  20
ENDBRANCH  18  19
ENDBRANCH  16  18
ENDBRANCH  14  16
ENDBRANCH  12  14
ENDBRANCH   1  12
BRANCH  10  26
HETATM   26  C17 UNL     1      22.807  -0.235  53.032  1.00  0.00     0.052 A 
HETATM   27  C18 UNL     1      22.375  -0.892  54.164  1.00  0.00     0.034 A 
HETATM   28  C19 UNL     1      21.062  -1.166  54.439  1.00  0.00     0.044 A 
HETATM   29  C20 UNL     1      20.076  -0.779  53.559  1.00  0.00     0.116 A 
HETATM   30  F1  UNL     1      18.754  -1.000  53.735  1.00  0.00    -0.206 F 
HETATM   31  C21 UNL     1      20.490  -0.122  52.423  1.00  0.00     0.044 A 
HETATM   32  C22 UNL     1      21.820   0.153  52.151  1.00  0.00     0.034 A 
ENDBRANCH  10  26
TORSDOF 7
ENDMDL
