MODEL 1
REMARK VINA RESULT:      -8.1      0.000      0.000
REMARK  5 active torsions:
REMARK  status: ('A' for Active; 'I' for Inactive)
REMARK    1  A    between atoms: O1_2  and  C2_3 
REMARK    2  A    between atoms: C6_8  and  N1_9 
REMARK    3  A    between atoms: N1_9  and  C7_10 
REMARK    4  A    between atoms: C12_16  and  N3_17 
REMARK       I    between atoms: N3_17  and  C13_18 
REMARK    5  A    between atoms: C13_18  and  C14_20 
ROOT
HETATM    1  C2  UNL     1      24.028   4.404  50.231  1.00  0.00     0.119 A 
HETATM    2  C3  UNL     1      24.724   5.370  49.526  1.00  0.00     0.069 A 
HETATM    3 CL1  UNL     1      23.978   6.855  48.971  1.00  0.00    -0.081 Cl
HETATM    4  C4  UNL     1      26.057   5.060  49.298  1.00  0.00     0.029 A 
HETATM    5  C5  UNL     1      26.694   3.909  49.711  1.00  0.00     0.034 A 
HETATM    6  C6  UNL     1      25.937   2.990  50.409  1.00  0.00     0.062 A 
HETATM    7  C12 UNL     1      24.606   3.239  50.667  1.00  0.00     0.097 A 
ENDROOT
BRANCH   7   8
HETATM    8  N3  UNL     1      23.758   2.347  51.371  1.00  0.00    -0.319 N 
HETATM    9  C13 UNL     1      22.737   1.400  51.267  1.00  0.00     0.258 C 
HETATM   10  O2  UNL     1      22.200   1.043  50.196  1.00  0.00    -0.267 OA
HETATM   11  H11 UNL     1      24.149   2.592  52.334  1.00  0.00     0.169 HD
BRANCH   9  12
HETATM   12  C14 UNL     1      22.259   0.778  52.498  1.00  0.00     0.056 A 
HETATM   13  C15 UNL     1      23.003  -0.280  53.020  1.00  0.00     0.020 A 
HETATM   14  C16 UNL     1      22.672  -0.949  54.166  1.00  0.00     0.020 A 
HETATM   15  C17 UNL     1      21.508  -0.499  54.805  1.00  0.00     0.117 A 
HETATM   16  N4  UNL     1      20.772   0.524  54.320  1.00  0.00    -0.265 NA
HETATM   17  C18 UNL     1      21.127   1.169  53.178  1.00  0.00     0.046 A 
HETATM   18  C19 UNL     1      20.316   2.293  52.630  1.00  0.00     0.071 C 
ENDBRANCH   9  12
ENDBRANCH   7   8
BRANCH   1  19
HETATM   19  O1  UNL     1      22.693   4.679  50.478  1.00  0.00    -0.352 OA
HETATM   20  C1  UNL     1      22.381   5.420  51.664  1.00  0.00     0.210 C 
ENDBRANCH   1  19
BRANCH   6  21
HETATM   21  N1  UNL     1      26.580   1.813  50.849  1.00  0.00    -0.353 N 
HETATM   22  H6  UNL     1      26.873   1.259  49.992  1.00  0.00     0.166 HD
BRANCH  21  23
HETATM   23  C7  UNL     1      26.862   1.324  52.146  1.00  0.00     0.050 A 
HETATM   24  C8  UNL     1      26.555   0.006  52.399  1.00  0.00     0.032 A 
HETATM   25  C9  UNL     1      26.804  -0.530  53.643  1.00  0.00     0.021 A 
HETATM   26  C10 UNL     1      27.356   0.340  54.542  1.00  0.00     0.116 A 
HETATM   27  N2  UNL     1      27.657   1.645  54.281  1.00  0.00    -0.271 NA
HETATM   28  C11 UNL     1      27.418   2.176  53.073  1.00  0.00     0.145 A 
ENDBRANCH  21  23
ENDBRANCH   6  21
TORSDOF 5
ENDMDL
MODEL 2
REMARK VINA RESULT:      -8.0      2.429      5.256
REMARK  5 active torsions:
REMARK  status: ('A' for Active; 'I' for Inactive)
REMARK    1  A    between atoms: O1_2  and  C2_3 
REMARK    2  A    between atoms: C6_8  and  N1_9 
REMARK    3  A    between atoms: N1_9  and  C7_10 
REMARK    4  A    between atoms: C12_16  and  N3_17 
REMARK       I    between atoms: N3_17  and  C13_18 
REMARK    5  A    between atoms: C13_18  and  C14_20 
ROOT
HETATM    1  C2  UNL     1      22.548   1.463  52.699  1.00  0.00     0.119 A 
HETATM    2  C3  UNL     1      22.033   0.474  53.516  1.00  0.00     0.069 A 
HETATM    3 CL1  UNL     1      20.351   0.435  54.006  1.00  0.00    -0.081 Cl
HETATM    4  C4  UNL     1      22.959  -0.481  53.910  1.00  0.00     0.029 A 
HETATM    5  C5  UNL     1      24.292  -0.498  53.555  1.00  0.00     0.034 A 
HETATM    6  C6  UNL     1      24.736   0.521  52.737  1.00  0.00     0.062 A 
HETATM    7  C12 UNL     1      23.863   1.500  52.311  1.00  0.00     0.097 A 
ENDROOT
BRANCH   7   8
HETATM    8  N3  UNL     1      24.239   2.583  51.476  1.00  0.00    -0.319 N 
HETATM    9  C13 UNL     1      24.125   3.158  50.209  1.00  0.00     0.258 C 
HETATM   10  O2  UNL     1      23.463   2.677  49.263  1.00  0.00    -0.267 OA
HETATM   11  H11 UNL     1      24.834   3.066  52.219  1.00  0.00     0.169 HD
BRANCH   9  12
HETATM   12  C14 UNL     1      24.828   4.413  49.966  1.00  0.00     0.056 A 
HETATM   13  C15 UNL     1      26.015   4.360  49.235  1.00  0.00     0.020 A 
HETATM   14  C16 UNL     1      26.771   5.458  48.933  1.00  0.00     0.020 A 
HETATM   15  C17 UNL     1      26.273   6.677  49.414  1.00  0.00     0.117 A 
HETATM   16  N4  UNL     1      25.127   6.754  50.124  1.00  0.00    -0.265 NA
HETATM   17  C18 UNL     1      24.397   5.644  50.408  1.00  0.00     0.046 A 
HETATM   18  C19 UNL     1      23.135   5.719  51.198  1.00  0.00     0.071 C 
ENDBRANCH   9  12
ENDBRANCH   7   8
BRANCH   1  19
HETATM   19  O1  UNL     1      21.651   2.434  52.284  1.00  0.00    -0.352 OA
HETATM   20  C1  UNL     1      20.736   2.083  51.239  1.00  0.00     0.210 C 
ENDBRANCH   1  19
BRANCH   6  21
HETATM   21  N1  UNL     1      26.094   0.508  52.355  1.00  0.00    -0.353 N 
HETATM   22  H6  UNL     1      26.152   0.140  51.360  1.00  0.00     0.166 HD
BRANCH  21  23
HETATM   23  C7  UNL     1      27.269   0.885  53.045  1.00  0.00     0.050 A 
HETATM   24  C8  UNL     1      28.186  -0.108  53.311  1.00  0.00     0.032 A 
HETATM   25  C9  UNL     1      29.349   0.195  53.983  1.00  0.00     0.021 A 
HETATM   26  C10 UNL     1      29.484   1.510  54.333  1.00  0.00     0.116 A 
HETATM   27  N2  UNL     1      28.569   2.487  54.065  1.00  0.00    -0.271 NA
HETATM   28  C11 UNL     1      27.434   2.201  53.412  1.00  0.00     0.145 A 
ENDBRANCH  21  23
ENDBRANCH   6  21
TORSDOF 5
ENDMDL
MODEL 3
REMARK VINA RESULT:      -7.9      1.653      4.943
REMARK  5 active torsions:
REMARK  status: ('A' for Active; 'I' for Inactive)
REMARK    1  A    between atoms: O1_2  and  C2_3 
REMARK    2  A    between atoms: C6_8  and  N1_9 
REMARK    3  A    between atoms: N1_9  and  C7_10 
REMARK    4  A    between atoms: C12_16  and  N3_17 
REMARK       I    between atoms: N3_17  and  C13_18 
REMARK    5  A    between atoms: C13_18  and  C14_20 
ROOT
HETATM    1  C2  UNL     1      24.593   3.699  50.169  1.00  0.00     0.119 A 
HETATM    2  C3  UNL     1      23.750   4.459  49.379  1.00  0.00     0.069 A 
HETATM    3 CL1  UNL     1      24.245   5.978  48.660  1.00  0.00    -0.081 Cl
HETATM    4  C4  UNL     1      22.485   3.916  49.206  1.00  0.00     0.029 A 
HETATM    5  C5  UNL     1      22.043   2.727  49.748  1.00  0.00     0.034 A 
HETATM    6  C6  UNL     1      22.939   2.022  50.526  1.00  0.00     0.062 A 
HETATM    7  C12 UNL     1      24.211   2.509  50.735  1.00  0.00     0.097 A 
ENDROOT
BRANCH   7   8
HETATM    8  N3  UNL     1      25.189   1.851  51.524  1.00  0.00    -0.319 N 
HETATM    9  C13 UNL     1      25.782   1.756  52.785  1.00  0.00     0.258 C 
HETATM   10  O2  UNL     1      25.472   2.453  53.775  1.00  0.00    -0.267 OA
HETATM   11  H11 UNL     1      25.528   1.216  50.737  1.00  0.00     0.169 HD
BRANCH   9  12
HETATM   12  C14 UNL     1      26.843   0.770  52.963  1.00  0.00     0.056 A 
HETATM   13  C15 UNL     1      26.521  -0.572  52.759  1.00  0.00     0.020 A 
HETATM   14  C16 UNL     1      27.417  -1.597  52.888  1.00  0.00     0.020 A 
HETATM   15  C17 UNL     1      28.716  -1.212  53.249  1.00  0.00     0.117 A 
HETATM   16  N4  UNL     1      29.053   0.080  53.451  1.00  0.00    -0.265 NA
HETATM   17  C18 UNL     1      28.139   1.076  53.315  1.00  0.00     0.046 A 
HETATM   18  C19 UNL     1      28.499   2.504  53.545  1.00  0.00     0.071 C 
ENDBRANCH   9  12
ENDBRANCH   7   8
BRANCH   1  19
HETATM   19  O1  UNL     1      25.866   4.210  50.363  1.00  0.00    -0.352 OA
HETATM   20  C1  UNL     1      26.844   3.943  49.351  1.00  0.00     0.210 C 
ENDBRANCH   1  19
BRANCH   6  21
HETATM   21  N1  UNL     1      22.504   0.797  51.076  1.00  0.00    -0.353 N 
HETATM   22  H6  UNL     1      22.547   0.061  50.311  1.00  0.00     0.166 HD
BRANCH  21  23
HETATM   23  C7  UNL     1      22.070   0.451  52.376  1.00  0.00     0.050 A 
HETATM   24  C8  UNL     1      22.836  -0.458  53.072  1.00  0.00     0.032 A 
HETATM   25  C9  UNL     1      22.466  -0.838  54.342  1.00  0.00     0.021 A 
HETATM   26  C10 UNL     1      21.323  -0.247  54.807  1.00  0.00     0.116 A 
HETATM   27  N2  UNL     1      20.570   0.652  54.110  1.00  0.00    -0.271 NA
HETATM   28  C11 UNL     1      20.923   1.028  52.872  1.00  0.00     0.145 A 
ENDBRANCH  21  23
ENDBRANCH   6  21
TORSDOF 5
ENDMDL
MODEL 4
REMARK VINA RESULT:      -7.7      2.835      5.992
REMARK  5 active torsions:
REMARK  status: ('A' for Active; 'I' for Inactive)
REMARK    1  A    between atoms: O1_2  and  C2_3 
REMARK    2  A    between atoms: C6_8  and  N1_9 
REMARK    3  A    between atoms: N1_9  and  C7_10 
REMARK    4  A    between atoms: C12_16  and  N3_17 
REMARK       I    between atoms: N3_17  and  C13_18 
REMARK    5  A    between atoms: C13_18  and  C14_20 
ROOT
HETATM    1  C2  UNL     1      22.620   0.431  53.019  1.00  0.00     0.119 A 
HETATM    2  C3  UNL     1      21.298   0.802  52.853  1.00  0.00     0.069 A 
HETATM    3 CL1  UNL     1      19.968  -0.315  53.083  1.00  0.00    -0.081 Cl
HETATM    4  C4  UNL     1      21.119   2.129  52.490  1.00  0.00     0.029 A 
HETATM    5  C5  UNL     1      22.128   3.049  52.295  1.00  0.00     0.034 A 
HETATM    6  C6  UNL     1      23.422   2.608  52.479  1.00  0.00     0.062 A 
HETATM    7  C12 UNL     1      23.666   1.300  52.840  1.00  0.00     0.097 A 
ENDROOT
BRANCH   7   8
HETATM    8  N3  UNL     1      24.964   0.765  53.042  1.00  0.00    -0.319 N 
HETATM    9  C13 UNL     1      26.225   0.975  53.604  1.00  0.00     0.258 C 
HETATM   10  O2  UNL     1      26.564   1.999  54.236  1.00  0.00    -0.267 OA
HETATM   11  H11 UNL     1      24.771  -0.142  52.513  1.00  0.00     0.169 HD
BRANCH   9  12
HETATM   12  C14 UNL     1      27.223  -0.078  53.445  1.00  0.00     0.056 A 
HETATM   13  C15 UNL     1      26.790  -1.314  52.967  1.00  0.00     0.020 A 
HETATM   14  C16 UNL     1      27.617  -2.385  52.768  1.00  0.00     0.020 A 
HETATM   15  C17 UNL     1      28.966  -2.163  53.080  1.00  0.00     0.117 A 
HETATM   16  N4  UNL     1      29.410  -0.974  53.543  1.00  0.00    -0.265 NA
HETATM   17  C18 UNL     1      28.562   0.071  53.731  1.00  0.00     0.046 A 
HETATM   18  C19 UNL     1      29.041   1.383  54.250  1.00  0.00     0.071 C 
ENDBRANCH   9  12
ENDBRANCH   7   8
BRANCH   1  19
HETATM   19  O1  UNL     1      22.838  -0.888  53.382  1.00  0.00    -0.352 OA
HETATM   20  C1  UNL     1      22.770  -1.207  54.777  1.00  0.00     0.210 C 
ENDBRANCH   1  19
BRANCH   6  21
HETATM   21  N1  UNL     1      24.464   3.543  52.296  1.00  0.00    -0.353 N 
HETATM   22  H6  UNL     1      24.763   3.893  53.253  1.00  0.00     0.166 HD
BRANCH  21  23
HETATM   23  C7  UNL     1      25.103   4.022  51.129  1.00  0.00     0.050 A 
HETATM   24  C8  UNL     1      26.089   3.229  50.584  1.00  0.00     0.032 A 
HETATM   25  C9  UNL     1      26.751   3.641  49.449  1.00  0.00     0.021 A 
HETATM   26  C10 UNL     1      26.345   4.850  48.955  1.00  0.00     0.116 A 
HETATM   27  N2  UNL     1      25.368   5.628  49.503  1.00  0.00    -0.271 NA
HETATM   28  C11 UNL     1      24.718   5.236  50.608  1.00  0.00     0.145 A 
ENDBRANCH  21  23
ENDBRANCH   6  21
TORSDOF 5
ENDMDL
MODEL 5
REMARK VINA RESULT:      -7.7      2.541      5.647
REMARK  5 active torsions:
REMARK  status: ('A' for Active; 'I' for Inactive)
REMARK    1  A    between atoms: O1_2  and  C2_3 
REMARK    2  A    between atoms: C6_8  and  N1_9 
REMARK    3  A    between atoms: N1_9  and  C7_10 
REMARK    4  A    between atoms: C12_16  and  N3_17 
REMARK       I    between atoms: N3_17  and  C13_18 
REMARK    5  A    between atoms: C13_18  and  C14_20 
ROOT
HETATM    1  C2  UNL     1      21.362   0.428  52.700  1.00  0.00     0.119 A 
HETATM    2  C3  UNL     1      20.492  -0.508  53.228  1.00  0.00     0.069 A 
HETATM    3 CL1  UNL     1      18.852  -0.707  52.643  1.00  0.00    -0.081 Cl
HETATM    4  C4  UNL     1      21.028  -1.271  54.254  1.00  0.00     0.029 A 
HETATM    5  C5  UNL     1      22.309  -1.157  54.752  1.00  0.00     0.034 A 
HETATM    6  C6  UNL     1      23.122  -0.202  54.177  1.00  0.00     0.062 A 
HETATM    7  C12 UNL     1      22.647   0.589  53.152  1.00  0.00     0.097 A 
ENDROOT
BRANCH   7   8
HETATM    8  N3  UNL     1      23.414   1.596  52.512  1.00  0.00    -0.319 N 
HETATM    9  C13 UNL     1      24.290   2.668  52.690  1.00  0.00     0.258 C 
HETATM   10  O2  UNL     1      24.696   3.083  53.797  1.00  0.00    -0.267 OA
HETATM   11  H11 UNL     1      23.118   1.319  51.525  1.00  0.00     0.169 HD
BRANCH   9  12
HETATM   12  C14 UNL     1      24.770   3.358  51.497  1.00  0.00     0.056 A 
HETATM   13  C15 UNL     1      24.002   4.414  51.006  1.00  0.00     0.020 A 
HETATM   14  C16 UNL     1      24.335   5.147  49.901  1.00  0.00     0.020 A 
HETATM   15  C17 UNL     1      25.527   4.767  49.269  1.00  0.00     0.117 A 
HETATM   16  N4  UNL     1      26.288   3.749  49.725  1.00  0.00    -0.265 NA
HETATM   17  C18 UNL     1      25.930   3.039  50.827  1.00  0.00     0.046 A 
HETATM   18  C19 UNL     1      26.759   1.908  51.333  1.00  0.00     0.071 C 
ENDBRANCH   9  12
ENDBRANCH   7   8
BRANCH   1  19
HETATM   19  O1  UNL     1      20.862   1.209  51.671  1.00  0.00    -0.352 OA
HETATM   20  C1  UNL     1      20.176   2.414  52.032  1.00  0.00     0.210 C 
ENDBRANCH   1  19
BRANCH   6  21
HETATM   21  N1  UNL     1      24.440  -0.083  54.668  1.00  0.00    -0.353 N 
HETATM   22  H6  UNL     1      24.394   0.379  55.623  1.00  0.00     0.166 HD
BRANCH  21  23
HETATM   23  C7  UNL     1      25.686  -0.464  54.119  1.00  0.00     0.050 A 
HETATM   24  C8  UNL     1      25.658  -1.285  53.013  1.00  0.00     0.032 A 
HETATM   25  C9  UNL     1      26.838  -1.693  52.432  1.00  0.00     0.021 A 
HETATM   26  C10 UNL     1      27.970  -1.220  53.039  1.00  0.00     0.116 A 
HETATM   27  N2  UNL     1      27.986  -0.407  54.134  1.00  0.00    -0.271 NA
HETATM   28  C11 UNL     1      26.843  -0.005  54.707  1.00  0.00     0.145 A 
ENDBRANCH  21  23
ENDBRANCH   6  21
TORSDOF 5
ENDMDL
MODEL 6
REMARK VINA RESULT:      -7.6      2.957      6.738
REMARK  5 active torsions:
REMARK  status: ('A' for Active; 'I' for Inactive)
REMARK    1  A    between atoms: O1_2  and  C2_3 
REMARK    2  A    between atoms: C6_8  and  N1_9 
REMARK    3  A    between atoms: N1_9  and  C7_10 
REMARK    4  A    between atoms: C12_16  and  N3_17 
REMARK       I    between atoms: N3_17  and  C13_18 
REMARK    5  A    between atoms: C13_18  and  C14_20 
ROOT
HETATM    1  C2  UNL     1      26.965   1.185  52.680  1.00  0.00     0.119 A 
HETATM    2  C3  UNL     1      27.012   0.114  53.554  1.00  0.00     0.069 A 
HETATM    3 CL1  UNL     1      28.492  -0.402  54.336  1.00  0.00    -0.081 Cl
HETATM    4  C4  UNL     1      25.791  -0.513  53.754  1.00  0.00     0.029 A 
HETATM    5  C5  UNL     1      24.598  -0.149  53.166  1.00  0.00     0.034 A 
HETATM    6  C6  UNL     1      24.627   0.929  52.305  1.00  0.00     0.062 A 
HETATM    7  C12 UNL     1      25.810   1.594  52.064  1.00  0.00     0.097 A 
ENDROOT
BRANCH   7   8
HETATM    8  N3  UNL     1      25.928   2.705  51.191  1.00  0.00    -0.319 N 
HETATM    9  C13 UNL     1      25.403   3.355  50.071  1.00  0.00     0.258 C 
HETATM   10  O2  UNL     1      24.420   2.957  49.409  1.00  0.00    -0.267 OA
HETATM   11  H11 UNL     1      26.777   3.120  51.687  1.00  0.00     0.169 HD
BRANCH   9  12
HETATM   12  C14 UNL     1      26.049   4.590  49.639  1.00  0.00     0.056 A 
HETATM   13  C15 UNL     1      27.218   4.481  48.885  1.00  0.00     0.020 A 
HETATM   14  C16 UNL     1      27.921   5.555  48.414  1.00  0.00     0.020 A 
HETATM   15  C17 UNL     1      27.386   6.809  48.740  1.00  0.00     0.117 A 
HETATM   16  N4  UNL     1      26.255   6.941  49.467  1.00  0.00    -0.265 NA
HETATM   17  C18 UNL     1      25.579   5.853  49.922  1.00  0.00     0.046 A 
HETATM   18  C19 UNL     1      24.335   5.989  50.732  1.00  0.00     0.071 C 
ENDBRANCH   9  12
ENDBRANCH   7   8
BRANCH   1  19
HETATM   19  O1  UNL     1      28.167   1.836  52.455  1.00  0.00    -0.352 OA
HETATM   20  C1  UNL     1      28.707   2.612  53.532  1.00  0.00     0.210 C 
ENDBRANCH   1  19
BRANCH   6  21
HETATM   21  N1  UNL     1      23.410   1.320  51.705  1.00  0.00    -0.353 N 
HETATM   22  H6  UNL     1      23.631   2.035  50.952  1.00  0.00     0.166 HD
BRANCH  21  23
HETATM   23  C7  UNL     1      22.074   0.924  51.944  1.00  0.00     0.050 A 
HETATM   24  C8  UNL     1      21.636   0.950  53.250  1.00  0.00     0.032 A 
HETATM   25  C9  UNL     1      20.346   0.574  53.549  1.00  0.00     0.021 A 
HETATM   26  C10 UNL     1      19.595   0.194  52.470  1.00  0.00     0.116 A 
HETATM   27  N2  UNL     1      20.038   0.171  51.180  1.00  0.00    -0.271 NA
HETATM   28  C11 UNL     1      21.293   0.536  50.879  1.00  0.00     0.145 A 
ENDBRANCH  21  23
ENDBRANCH   6  21
TORSDOF 5
ENDMDL
MODEL 7
REMARK VINA RESULT:      -7.3      1.582      2.301
REMARK  5 active torsions:
REMARK  status: ('A' for Active; 'I' for Inactive)
REMARK    1  A    between atoms: O1_2  and  C2_3 
REMARK    2  A    between atoms: C6_8  and  N1_9 
REMARK    3  A    between atoms: N1_9  and  C7_10 
REMARK    4  A    between atoms: C12_16  and  N3_17 
REMARK       I    between atoms: N3_17  and  C13_18 
REMARK    5  A    between atoms: C13_18  and  C14_20 
ROOT
HETATM    1  C2  UNL     1      25.016   5.418  49.662  1.00  0.00     0.119 A 
HETATM    2  C3  UNL     1      26.011   6.032  48.924  1.00  0.00     0.069 A 
HETATM    3 CL1  UNL     1      25.856   7.664  48.304  1.00  0.00    -0.081 Cl
HETATM    4  C4  UNL     1      27.137   5.248  48.719  1.00  0.00     0.029 A 
HETATM    5  C5  UNL     1      27.311   3.961  49.183  1.00  0.00     0.034 A 
HETATM    6  C6  UNL     1      26.276   3.412  49.912  1.00  0.00     0.062 A 
HETATM    7  C12 UNL     1      25.130   4.142  50.150  1.00  0.00     0.097 A 
ENDROOT
BRANCH   7   8
HETATM    8  N3  UNL     1      24.020   3.651  50.883  1.00  0.00    -0.319 N 
HETATM    9  C13 UNL     1      23.444   3.504  52.147  1.00  0.00     0.258 C 
HETATM   10  O2  UNL     1      23.959   3.897  53.217  1.00  0.00    -0.267 OA
HETATM   11  H11 UNL     1      23.506   3.276  50.027  1.00  0.00     0.169 HD
BRANCH   9  12
HETATM   12  C14 UNL     1      22.146   2.843  52.229  1.00  0.00     0.056 A 
HETATM   13  C15 UNL     1      21.010   3.613  51.977  1.00  0.00     0.020 A 
HETATM   14  C16 UNL     1      19.734   3.122  52.016  1.00  0.00     0.020 A 
HETATM   15  C17 UNL     1      19.628   1.761  52.334  1.00  0.00     0.117 A 
HETATM   16  N4  UNL     1      20.713   0.994  52.581  1.00  0.00    -0.265 NA
HETATM   17  C18 UNL     1      21.968   1.513  52.534  1.00  0.00     0.046 A 
HETATM   18  C19 UNL     1      23.170   0.676  52.814  1.00  0.00     0.071 C 
ENDBRANCH   9  12
ENDBRANCH   7   8
BRANCH   1  19
HETATM   19  O1  UNL     1      23.876   6.173  49.888  1.00  0.00    -0.352 OA
HETATM   20  C1  UNL     1      23.891   7.072  51.002  1.00  0.00     0.210 C 
ENDBRANCH   1  19
BRANCH   6  21
HETATM   21  N1  UNL     1      26.446   2.100  50.404  1.00  0.00    -0.353 N 
HETATM   22  H6  UNL     1      26.288   1.425  49.600  1.00  0.00     0.166 HD
BRANCH  21  23
HETATM   23  C7  UNL     1      26.771   1.613  51.691  1.00  0.00     0.050 A 
HETATM   24  C8  UNL     1      26.656   0.256  51.895  1.00  0.00     0.032 A 
HETATM   25  C9  UNL     1      26.955  -0.281  53.127  1.00  0.00     0.021 A 
HETATM   26  C10 UNL     1      27.356   0.630  54.067  1.00  0.00     0.116 A 
HETATM   27  N2  UNL     1      27.467   1.973  53.855  1.00  0.00    -0.271 NA
HETATM   28  C11 UNL     1      27.177   2.504  52.659  1.00  0.00     0.145 A 
ENDBRANCH  21  23
ENDBRANCH   6  21
TORSDOF 5
ENDMDL
MODEL 8
REMARK VINA RESULT:      -7.1      2.960      6.772
REMARK  5 active torsions:
REMARK  status: ('A' for Active; 'I' for Inactive)
REMARK    1  A    between atoms: O1_2  and  C2_3 
REMARK    2  A    between atoms: C6_8  and  N1_9 
REMARK    3  A    between atoms: N1_9  and  C7_10 
REMARK    4  A    between atoms: C12_16  and  N3_17 
REMARK       I    between atoms: N3_17  and  C13_18 
REMARK    5  A    between atoms: C13_18  and  C14_20 
ROOT
HETATM    1  C2  UNL     1      25.717   0.855  52.317  1.00  0.00     0.119 A 
HETATM    2  C3  UNL     1      25.836  -0.378  52.932  1.00  0.00     0.069 A 
HETATM    3 CL1  UNL     1      27.372  -1.207  53.094  1.00  0.00    -0.081 Cl
HETATM    4  C4  UNL     1      24.641  -0.898  53.405  1.00  0.00     0.029 A 
HETATM    5  C5  UNL     1      23.407  -0.290  53.304  1.00  0.00     0.034 A 
HETATM    6  C6  UNL     1      23.364   0.939  52.678  1.00  0.00     0.062 A 
HETATM    7  C12 UNL     1      24.519   1.509  52.186  1.00  0.00     0.097 A 
ENDROOT
BRANCH   7   8
HETATM    8  N3  UNL     1      24.561   2.763  51.526  1.00  0.00    -0.319 N 
HETATM    9  C13 UNL     1      24.245   3.467  50.361  1.00  0.00     0.258 C 
HETATM   10  O2  UNL     1      23.693   2.972  49.355  1.00  0.00    -0.267 OA
HETATM   11  H11 UNL     1      25.040   3.273  52.331  1.00  0.00     0.169 HD
BRANCH   9  12
HETATM   12  C14 UNL     1      24.584   4.885  50.312  1.00  0.00     0.056 A 
HETATM   13  C15 UNL     1      23.674   5.788  50.862  1.00  0.00     0.020 A 
HETATM   14  C16 UNL     1      23.866   7.142  50.886  1.00  0.00     0.020 A 
HETATM   15  C17 UNL     1      25.065   7.585  50.309  1.00  0.00     0.117 A 
HETATM   16  N4  UNL     1      25.962   6.730  49.772  1.00  0.00    -0.265 NA
HETATM   17  C18 UNL     1      25.742   5.390  49.763  1.00  0.00     0.046 A 
HETATM   18  C19 UNL     1      26.722   4.440  49.164  1.00  0.00     0.071 C 
ENDBRANCH   9  12
ENDBRANCH   7   8
BRANCH   1  19
HETATM   19  O1  UNL     1      26.892   1.406  51.832  1.00  0.00    -0.352 OA
HETATM   20  C1  UNL     1      27.689   2.167  52.747  1.00  0.00     0.210 C 
ENDBRANCH   1  19
BRANCH   6  21
HETATM   21  N1  UNL     1      22.110   1.579  52.579  1.00  0.00    -0.353 N 
HETATM   22  H6  UNL     1      22.156   2.479  53.140  1.00  0.00     0.166 HD
BRANCH  21  23
HETATM   23  C7  UNL     1      20.923   1.222  51.897  1.00  0.00     0.050 A 
HETATM   24  C8  UNL     1      20.031   0.419  52.573  1.00  0.00     0.032 A 
HETATM   25  C9  UNL     1      18.857   0.034  51.963  1.00  0.00     0.021 A 
HETATM   26  C10 UNL     1      18.689   0.510  50.691  1.00  0.00     0.116 A 
HETATM   27  N2  UNL     1      19.580   1.304  50.031  1.00  0.00    -0.271 NA
HETATM   28  C11 UNL     1      20.725   1.684  50.617  1.00  0.00     0.145 A 
ENDBRANCH  21  23
ENDBRANCH   6  21
TORSDOF 5
ENDMDL
MODEL 9
REMARK VINA RESULT:      -7.1      2.433      5.403
REMARK  5 active torsions:
REMARK  status: ('A' for Active; 'I' for Inactive)
REMARK    1  A    between atoms: O1_2  and  C2_3 
REMARK    2  A    between atoms: C6_8  and  N1_9 
REMARK    3  A    between atoms: N1_9  and  C7_10 
REMARK    4  A    between atoms: C12_16  and  N3_17 
REMARK       I    between atoms: N3_17  and  C13_18 
REMARK    5  A    between atoms: C13_18  and  C14_20 
ROOT
HETATM    1  C2  UNL     1      21.672   1.988  51.400  1.00  0.00     0.119 A 
HETATM    2  C3  UNL     1      21.096   0.829  51.888  1.00  0.00     0.069 A 
HETATM    3 CL1  UNL     1      19.370   0.535  51.829  1.00  0.00    -0.081 Cl
HETATM    4  C4  UNL     1      22.001  -0.076  52.425  1.00  0.00     0.029 A 
HETATM    5  C5  UNL     1      23.367   0.104  52.496  1.00  0.00     0.034 A 
HETATM    6  C6  UNL     1      23.870   1.285  51.989  1.00  0.00     0.062 A 
HETATM    7  C12 UNL     1      23.022   2.224  51.443  1.00  0.00     0.097 A 
ENDROOT
BRANCH   7   8
HETATM    8  N3  UNL     1      23.457   3.463  50.907  1.00  0.00    -0.319 N 
HETATM    9  C13 UNL     1      23.564   4.251  49.758  1.00  0.00     0.258 C 
HETATM   10  O2  UNL     1      23.179   3.910  48.619  1.00  0.00    -0.267 OA
HETATM   11  H11 UNL     1      23.821   3.840  51.836  1.00  0.00     0.169 HD
BRANCH   9  12
HETATM   12  C14 UNL     1      24.168   5.572  49.895  1.00  0.00     0.056 A 
HETATM   13  C15 UNL     1      23.342   6.625  50.290  1.00  0.00     0.020 A 
HETATM   14  C16 UNL     1      23.778   7.910  50.460  1.00  0.00     0.020 A 
HETATM   15  C17 UNL     1      25.142   8.117  50.207  1.00  0.00     0.117 A 
HETATM   16  N4  UNL     1      25.961   7.114  49.825  1.00  0.00    -0.265 NA
HETATM   17  C18 UNL     1      25.498   5.846  49.665  1.00  0.00     0.046 A 
HETATM   18  C19 UNL     1      26.393   4.735  49.235  1.00  0.00     0.071 C 
ENDBRANCH   9  12
ENDBRANCH   7   8
BRANCH   1  19
HETATM   19  O1  UNL     1      20.798   2.915  50.855  1.00  0.00    -0.352 OA
HETATM   20  C1  UNL     1      20.220   3.877  51.745  1.00  0.00     0.210 C 
ENDBRANCH   1  19
BRANCH   6  21
HETATM   21  N1  UNL     1      25.268   1.476  52.044  1.00  0.00    -0.353 N 
HETATM   22  H6  UNL     1      25.533   2.174  51.288  1.00  0.00     0.166 HD
BRANCH  21  23
HETATM   23  C7  UNL     1      26.260   0.926  52.888  1.00  0.00     0.050 A 
HETATM   24  C8  UNL     1      26.988  -0.133  52.392  1.00  0.00     0.032 A 
HETATM   25  C9  UNL     1      27.967  -0.714  53.165  1.00  0.00     0.021 A 
HETATM   26  C10 UNL     1      28.126  -0.157  54.404  1.00  0.00     0.116 A 
HETATM   27  N2  UNL     1      27.400   0.892  54.887  1.00  0.00    -0.271 NA
HETATM   28  C11 UNL     1      26.444   1.465  54.141  1.00  0.00     0.145 A 
ENDBRANCH  21  23
ENDBRANCH   6  21
TORSDOF 5
ENDMDL
