MODEL 1
REMARK VINA RESULT:      -7.3      0.000      0.000
REMARK  8 active torsions:
REMARK  status: ('A' for Active; 'I' for Inactive)
REMARK    1  A    between atoms: C2_2  and  C3_3 
REMARK    2  A    between atoms: N1_4  and  C4_5 
REMARK    3  A    between atoms: N1_4  and  C10_13 
REMARK    4  A    between atoms: C4_5  and  C5_6 
REMARK    5  A    between atoms: C8_9  and  O1_10 
REMARK    6  A    between atoms: C10_13  and  C11_14 
REMARK    7  A    between atoms: C16_19  and  S1_20 
REMARK    8  A    between atoms: S1_20  and  C17_21 
ROOT
HETATM    1  C3  UNL     1      23.454  -0.897  54.133  1.00  0.00     0.117 C 
HETATM    2  N1  UNL     1      23.998   0.129  53.416  1.00  0.00    -0.405 N 
ENDROOT
BRANCH   2   3
HETATM    3  C4  UNL     1      25.149  -0.120  52.616  1.00  0.00     0.153 C 
BRANCH   3   4
HETATM    4  C5  UNL     1      26.362  -0.029  53.459  1.00  0.00    -0.038 A 
HETATM    5  C6  UNL     1      26.777   0.454  54.602  1.00  0.00     0.009 A 
HETATM    6  C7  UNL     1      28.171   0.216  54.920  1.00  0.00     0.034 A 
HETATM    7  C8  UNL     1      28.600  -0.473  53.852  1.00  0.00     0.066 A 
HETATM    8  C9  UNL     1      27.554  -0.699  52.849  1.00  0.00     0.169 A 
HETATM    9 CL1  UNL     1      27.221  -2.419  52.553  1.00  0.00    -0.113 Cl
BRANCH   7  10
HETATM   10  O1  UNL     1      29.927  -0.889  53.795  1.00  0.00    -0.363 OA
HETATM   11  H12 UNL     1      30.227  -1.738  54.259  1.00  0.00     0.217 HD
ENDBRANCH   7  10
ENDBRANCH   3   4
ENDBRANCH   2   3
BRANCH   2  12
HETATM   12  C10 UNL     1      23.349   1.284  53.017  1.00  0.00     0.157 C 
BRANCH  12  13
HETATM   13  C11 UNL     1      22.834   1.413  51.661  1.00  0.00    -0.024 A 
HETATM   14  C12 UNL     1      21.829   0.631  51.095  1.00  0.00     0.010 A 
HETATM   15  C13 UNL     1      21.359   0.763  49.805  1.00  0.00     0.001 A 
HETATM   16  C14 UNL     1      21.919   1.741  49.006  1.00  0.00     0.001 A 
HETATM   17  C15 UNL     1      22.929   2.558  49.513  1.00  0.00     0.019 A 
HETATM   18  C16 UNL     1      23.360   2.377  50.816  1.00  0.00     0.008 A 
BRANCH  18  19
HETATM   19  S1  UNL     1      24.640   3.479  51.324  1.00  0.00    -0.130 SA
BRANCH  19  20
HETATM   20  C17 UNL     1      26.297   2.941  50.875  1.00  0.00     0.075 C 
HETATM   21  C18 UNL     1      26.594   3.444  49.460  1.00  0.00     0.016 C 
ENDBRANCH  19  20
ENDBRANCH  18  19
ENDBRANCH  12  13
ENDBRANCH   2  12
BRANCH   1  22
HETATM   22  C2  UNL     1      22.209  -0.704  54.941  1.00  0.00     0.015 C 
HETATM   23  C1  UNL     1      21.143  -1.570  54.246  1.00  0.00     0.006 C 
ENDBRANCH   1  22
TORSDOF 8
ENDMDL
MODEL 2
REMARK VINA RESULT:      -7.2      2.128      3.791
REMARK  8 active torsions:
REMARK  status: ('A' for Active; 'I' for Inactive)
REMARK    1  A    between atoms: C2_2  and  C3_3 
REMARK    2  A    between atoms: N1_4  and  C4_5 
REMARK    3  A    between atoms: N1_4  and  C10_13 
REMARK    4  A    between atoms: C4_5  and  C5_6 
REMARK    5  A    between atoms: C8_9  and  O1_10 
REMARK    6  A    between atoms: C10_13  and  C11_14 
REMARK    7  A    between atoms: C16_19  and  S1_20 
REMARK    8  A    between atoms: S1_20  and  C17_21 
ROOT
HETATM    1  C3  UNL     1      26.759   2.449  51.151  1.00  0.00     0.117 C 
HETATM    2  N1  UNL     1      26.292   2.021  52.359  1.00  0.00    -0.405 N 
ENDROOT
BRANCH   2   3
HETATM    3  C4  UNL     1      27.175   1.332  53.238  1.00  0.00     0.153 C 
BRANCH   3   4
HETATM    4  C5  UNL     1      27.180  -0.108  52.900  1.00  0.00    -0.038 A 
HETATM    5  C6  UNL     1      26.553  -0.986  52.158  1.00  0.00     0.009 A 
HETATM    6  C7  UNL     1      27.035  -2.350  52.247  1.00  0.00     0.034 A 
HETATM    7  C8  UNL     1      28.042  -2.246  53.128  1.00  0.00     0.066 A 
HETATM    8  C9  UNL     1      28.243  -0.878  53.621  1.00  0.00     0.169 A 
HETATM    9 CL1  UNL     1      29.851  -0.223  53.248  1.00  0.00    -0.113 Cl
BRANCH   7  10
HETATM   10  O1  UNL     1      28.766  -3.382  53.475  1.00  0.00    -0.363 OA
HETATM   11  H12 UNL     1      29.571  -3.321  54.087  1.00  0.00     0.217 HD
ENDBRANCH   7  10
ENDBRANCH   3   4
ENDBRANCH   2   3
BRANCH   2  12
HETATM   12  C10 UNL     1      25.197   2.525  53.040  1.00  0.00     0.157 C 
BRANCH  12  13
HETATM   13  C11 UNL     1      23.849   2.098  52.691  1.00  0.00    -0.024 A 
HETATM   14  C12 UNL     1      23.422   0.778  52.561  1.00  0.00     0.010 A 
HETATM   15  C13 UNL     1      22.142   0.393  52.222  1.00  0.00     0.001 A 
HETATM   16  C14 UNL     1      21.204   1.381  51.994  1.00  0.00     0.001 A 
HETATM   17  C15 UNL     1      21.567   2.722  52.109  1.00  0.00     0.019 A 
HETATM   18  C16 UNL     1      22.869   3.047  52.452  1.00  0.00     0.008 A 
BRANCH  18  19
HETATM   19  S1  UNL     1      23.187   4.779  52.562  1.00  0.00    -0.130 SA
BRANCH  19  20
HETATM   20  C17 UNL     1      23.131   5.641  50.984  1.00  0.00     0.075 C 
HETATM   21  C18 UNL     1      24.343   6.572  50.906  1.00  0.00     0.016 C 
ENDBRANCH  19  20
ENDBRANCH  18  19
ENDBRANCH  12  13
ENDBRANCH   2  12
BRANCH   1  22
HETATM   22  C2  UNL     1      25.890   3.231  50.215  1.00  0.00     0.015 C 
HETATM   23  C1  UNL     1      26.869   4.018  49.325  1.00  0.00     0.006 C 
ENDBRANCH   1  22
TORSDOF 8
ENDMDL
MODEL 3
REMARK VINA RESULT:      -7.0      1.790      4.332
REMARK  8 active torsions:
REMARK  status: ('A' for Active; 'I' for Inactive)
REMARK    1  A    between atoms: C2_2  and  C3_3 
REMARK    2  A    between atoms: N1_4  and  C4_5 
REMARK    3  A    between atoms: N1_4  and  C10_13 
REMARK    4  A    between atoms: C4_5  and  C5_6 
REMARK    5  A    between atoms: C8_9  and  O1_10 
REMARK    6  A    between atoms: C10_13  and  C11_14 
REMARK    7  A    between atoms: C16_19  and  S1_20 
REMARK    8  A    between atoms: S1_20  and  C17_21 
ROOT
HETATM    1  C3  UNL     1      26.183   3.277  50.833  1.00  0.00     0.117 C 
HETATM    2  N1  UNL     1      25.161   2.853  51.630  1.00  0.00    -0.405 N 
ENDROOT
BRANCH   2   3
HETATM    3  C4  UNL     1      25.449   2.423  52.957  1.00  0.00     0.153 C 
BRANCH   3   4
HETATM    4  C5  UNL     1      26.156   1.124  52.910  1.00  0.00    -0.038 A 
HETATM    5  C6  UNL     1      26.127  -0.033  52.297  1.00  0.00     0.009 A 
HETATM    6  C7  UNL     1      27.143  -0.986  52.698  1.00  0.00     0.034 A 
HETATM    7  C8  UNL     1      27.824  -0.309  53.636  1.00  0.00     0.066 A 
HETATM    8  C9  UNL     1      27.303   1.043  53.868  1.00  0.00     0.169 A 
HETATM    9 CL1  UNL     1      28.489   2.322  53.532  1.00  0.00    -0.113 Cl
BRANCH   7  10
HETATM   10  O1  UNL     1      28.905  -0.917  54.267  1.00  0.00    -0.363 OA
HETATM   11  H12 UNL     1      29.809  -0.971  53.815  1.00  0.00     0.217 HD
ENDBRANCH   7  10
ENDBRANCH   3   4
ENDBRANCH   2   3
BRANCH   2  12
HETATM   12  C10 UNL     1      23.822   3.172  51.486  1.00  0.00     0.157 C 
BRANCH  12  13
HETATM   13  C11 UNL     1      22.954   2.359  50.645  1.00  0.00    -0.024 A 
HETATM   14  C12 UNL     1      22.812   2.482  49.264  1.00  0.00     0.010 A 
HETATM   15  C13 UNL     1      21.978   1.707  48.485  1.00  0.00     0.001 A 
HETATM   16  C14 UNL     1      21.224   0.733  49.110  1.00  0.00     0.001 A 
HETATM   17  C15 UNL     1      21.320   0.559  50.489  1.00  0.00     0.019 A 
HETATM   18  C16 UNL     1      22.175   1.369  51.219  1.00  0.00     0.008 A 
BRANCH  18  19
HETATM   19  S1  UNL     1      22.197   1.037  52.951  1.00  0.00    -0.130 SA
BRANCH  19  20
HETATM   20  C17 UNL     1      22.500  -0.687  53.369  1.00  0.00     0.075 C 
HETATM   21  C18 UNL     1      22.040  -0.917  54.810  1.00  0.00     0.016 C 
ENDBRANCH  19  20
ENDBRANCH  18  19
ENDBRANCH  12  13
ENDBRANCH   2  12
BRANCH   1  22
HETATM   22  C2  UNL     1      25.928   3.796  49.453  1.00  0.00     0.015 C 
HETATM   23  C1  UNL     1      27.261   4.428  49.011  1.00  0.00     0.006 C 
ENDBRANCH   1  22
TORSDOF 8
ENDMDL
MODEL 4
REMARK VINA RESULT:      -6.6      2.080      4.543
REMARK  8 active torsions:
REMARK  status: ('A' for Active; 'I' for Inactive)
REMARK    1  A    between atoms: C2_2  and  C3_3 
REMARK    2  A    between atoms: N1_4  and  C4_5 
REMARK    3  A    between atoms: N1_4  and  C10_13 
REMARK    4  A    between atoms: C4_5  and  C5_6 
REMARK    5  A    between atoms: C8_9  and  O1_10 
REMARK    6  A    between atoms: C10_13  and  C11_14 
REMARK    7  A    between atoms: C16_19  and  S1_20 
REMARK    8  A    between atoms: S1_20  and  C17_21 
ROOT
HETATM    1  C3  UNL     1      24.130   2.205  50.842  1.00  0.00     0.117 C 
HETATM    2  N1  UNL     1      24.004   1.994  52.184  1.00  0.00    -0.405 N 
ENDROOT
BRANCH   2   3
HETATM    3  C4  UNL     1      25.139   2.181  53.024  1.00  0.00     0.153 C 
BRANCH   3   4
HETATM    4  C5  UNL     1      25.982   0.966  52.988  1.00  0.00    -0.038 A 
HETATM    5  C6  UNL     1      26.082  -0.191  52.382  1.00  0.00     0.009 A 
HETATM    6  C7  UNL     1      27.193  -1.026  52.792  1.00  0.00     0.034 A 
HETATM    7  C8  UNL     1      27.792  -0.274  53.728  1.00  0.00     0.066 A 
HETATM    8  C9  UNL     1      27.127   1.015  53.951  1.00  0.00     0.169 A 
HETATM    9 CL1  UNL     1      28.168   2.413  53.612  1.00  0.00    -0.113 Cl
BRANCH   7  10
HETATM   10  O1  UNL     1      28.929  -0.758  54.368  1.00  0.00    -0.363 OA
HETATM   11  H12 UNL     1      29.516  -0.145  54.921  1.00  0.00     0.217 HD
ENDBRANCH   7  10
ENDBRANCH   3   4
ENDBRANCH   2   3
BRANCH   2  12
HETATM   12  C10 UNL     1      22.828   2.033  52.913  1.00  0.00     0.157 C 
BRANCH  12  13
HETATM   13  C11 UNL     1      22.197   0.801  53.366  1.00  0.00    -0.024 A 
HETATM   14  C12 UNL     1      22.819  -0.209  54.098  1.00  0.00     0.010 A 
HETATM   15  C13 UNL     1      22.207  -1.373  54.513  1.00  0.00     0.001 A 
HETATM   16  C14 UNL     1      20.879  -1.563  54.183  1.00  0.00     0.001 A 
HETATM   17  C15 UNL     1      20.199  -0.590  53.452  1.00  0.00     0.019 A 
HETATM   18  C16 UNL     1      20.868   0.559  53.063  1.00  0.00     0.008 A 
BRANCH  18  19
HETATM   19  S1  UNL     1      19.886   1.702  52.146  1.00  0.00    -0.130 SA
BRANCH  19  20
HETATM   20  C17 UNL     1      19.443   1.136  50.496  1.00  0.00     0.075 C 
HETATM   21  C18 UNL     1      18.086   0.434  50.582  1.00  0.00     0.016 C 
ENDBRANCH  19  20
ENDBRANCH  18  19
ENDBRANCH  12  13
ENDBRANCH   2  12
BRANCH   1  22
HETATM   22  C2  UNL     1      22.955   2.082  49.923  1.00  0.00     0.015 C 
HETATM   23  C1  UNL     1      23.024   3.326  49.018  1.00  0.00     0.006 C 
ENDBRANCH   1  22
TORSDOF 8
ENDMDL
MODEL 5
REMARK VINA RESULT:      -6.6      1.660      3.836
REMARK  8 active torsions:
REMARK  status: ('A' for Active; 'I' for Inactive)
REMARK    1  A    between atoms: C2_2  and  C3_3 
REMARK    2  A    between atoms: N1_4  and  C4_5 
REMARK    3  A    between atoms: N1_4  and  C10_13 
REMARK    4  A    between atoms: C4_5  and  C5_6 
REMARK    5  A    between atoms: C8_9  and  O1_10 
REMARK    6  A    between atoms: C10_13  and  C11_14 
REMARK    7  A    between atoms: C16_19  and  S1_20 
REMARK    8  A    between atoms: S1_20  and  C17_21 
ROOT
HETATM    1  C3  UNL     1      26.761   2.611  51.235  1.00  0.00     0.117 C 
HETATM    2  N1  UNL     1      25.926   2.425  52.299  1.00  0.00    -0.405 N 
ENDROOT
BRANCH   2   3
HETATM    3  C4  UNL     1      26.483   2.308  53.604  1.00  0.00     0.153 C 
BRANCH   3   4
HETATM    4  C5  UNL     1      27.595   1.332  53.578  1.00  0.00    -0.038 A 
HETATM    5  C6  UNL     1      28.903   1.273  53.570  1.00  0.00     0.009 A 
HETATM    6  C7  UNL     1      29.476  -0.057  53.538  1.00  0.00     0.034 A 
HETATM    7  C8  UNL     1      28.388  -0.843  53.528  1.00  0.00     0.066 A 
HETATM    8  C9  UNL     1      27.129  -0.090  53.551  1.00  0.00     0.169 A 
HETATM    9 CL1  UNL     1      26.123  -0.445  54.971  1.00  0.00    -0.113 Cl
BRANCH   7  10
HETATM   10  O1  UNL     1      28.545  -2.225  53.498  1.00  0.00    -0.363 OA
HETATM   11  H12 UNL     1      28.760  -2.707  52.633  1.00  0.00     0.217 HD
ENDBRANCH   7  10
ENDBRANCH   3   4
ENDBRANCH   2   3
BRANCH   2  12
HETATM   12  C10 UNL     1      24.583   2.754  52.353  1.00  0.00     0.157 C 
BRANCH  12  13
HETATM   13  C11 UNL     1      23.564   1.720  52.244  1.00  0.00    -0.024 A 
HETATM   14  C12 UNL     1      23.442   0.607  53.075  1.00  0.00     0.010 A 
HETATM   15  C13 UNL     1      22.473  -0.367  52.951  1.00  0.00     0.001 A 
HETATM   16  C14 UNL     1      21.549  -0.239  51.932  1.00  0.00     0.001 A 
HETATM   17  C15 UNL     1      21.616   0.851  51.067  1.00  0.00     0.019 A 
HETATM   18  C16 UNL     1      22.613   1.797  51.240  1.00  0.00     0.008 A 
BRANCH  18  19
HETATM   19  S1  UNL     1      22.576   3.121  50.076  1.00  0.00    -0.130 SA
BRANCH  19  20
HETATM   20  C17 UNL     1      22.763   2.602  48.363  1.00  0.00     0.075 C 
HETATM   21  C18 UNL     1      21.372   2.548  47.727  1.00  0.00     0.016 C 
ENDBRANCH  19  20
ENDBRANCH  18  19
ENDBRANCH  12  13
ENDBRANCH   2  12
BRANCH   1  22
HETATM   22  C2  UNL     1      26.225   2.801  49.851  1.00  0.00     0.015 C 
HETATM   23  C1  UNL     1      26.847   4.121  49.359  1.00  0.00     0.006 C 
ENDBRANCH   1  22
TORSDOF 8
ENDMDL
MODEL 6
REMARK VINA RESULT:      -6.3      3.428      5.816
REMARK  8 active torsions:
REMARK  status: ('A' for Active; 'I' for Inactive)
REMARK    1  A    between atoms: C2_2  and  C3_3 
REMARK    2  A    between atoms: N1_4  and  C4_5 
REMARK    3  A    between atoms: N1_4  and  C10_13 
REMARK    4  A    between atoms: C4_5  and  C5_6 
REMARK    5  A    between atoms: C8_9  and  O1_10 
REMARK    6  A    between atoms: C10_13  and  C11_14 
REMARK    7  A    between atoms: C16_19  and  S1_20 
REMARK    8  A    between atoms: S1_20  and  C17_21 
ROOT
HETATM    1  C3  UNL     1      27.088   2.282  51.972  1.00  0.00     0.117 C 
HETATM    2  N1  UNL     1      25.851   2.762  51.657  1.00  0.00    -0.405 N 
ENDROOT
BRANCH   2   3
HETATM    3  C4  UNL     1      25.464   2.835  50.289  1.00  0.00     0.153 C 
BRANCH   3   4
HETATM    4  C5  UNL     1      26.155   3.972  49.642  1.00  0.00    -0.038 A 
HETATM    5  C6  UNL     1      27.244   4.260  48.976  1.00  0.00     0.009 A 
HETATM    6  C7  UNL     1      27.392   5.645  48.573  1.00  0.00     0.034 A 
HETATM    7  C8  UNL     1      26.274   6.209  49.056  1.00  0.00     0.066 A 
HETATM    8  C9  UNL     1      25.401   5.261  49.756  1.00  0.00     0.169 A 
HETATM    9 CL1  UNL     1      23.791   5.110  49.021  1.00  0.00    -0.113 Cl
BRANCH   7  10
HETATM   10  O1  UNL     1      26.056   7.569  48.859  1.00  0.00    -0.363 OA
HETATM   11  H12 UNL     1      25.322   7.895  48.243  1.00  0.00     0.217 HD
ENDBRANCH   7  10
ENDBRANCH   3   4
ENDBRANCH   2   3
BRANCH   2  12
HETATM   12  C10 UNL     1      24.749   2.798  52.493  1.00  0.00     0.157 C 
BRANCH  12  13
HETATM   13  C11 UNL     1      23.917   1.616  52.673  1.00  0.00    -0.024 A 
HETATM   14  C12 UNL     1      24.327   0.412  53.242  1.00  0.00     0.010 A 
HETATM   15  C13 UNL     1      23.527  -0.700  53.397  1.00  0.00     0.001 A 
HETATM   16  C14 UNL     1      22.218  -0.625  52.960  1.00  0.00     0.001 A 
HETATM   17  C15 UNL     1      21.745   0.552  52.383  1.00  0.00     0.019 A 
HETATM   18  C16 UNL     1      22.597   1.636  52.253  1.00  0.00     0.008 A 
BRANCH  18  19
HETATM   19  S1  UNL     1      21.866   3.057  51.507  1.00  0.00    -0.130 SA
BRANCH  19  20
HETATM   20  C17 UNL     1      21.129   2.747  49.895  1.00  0.00     0.075 C 
HETATM   21  C18 UNL     1      22.088   1.863  49.094  1.00  0.00     0.016 C 
ENDBRANCH  19  20
ENDBRANCH  18  19
ENDBRANCH  12  13
ENDBRANCH   2  12
BRANCH   1  22
HETATM   22  C2  UNL     1      27.522   2.127  53.397  1.00  0.00     0.015 C 
HETATM   23  C1  UNL     1      28.076   0.694  53.492  1.00  0.00     0.006 C 
ENDBRANCH   1  22
TORSDOF 8
ENDMDL
MODEL 7
REMARK VINA RESULT:      -6.3      2.544      4.685
REMARK  8 active torsions:
REMARK  status: ('A' for Active; 'I' for Inactive)
REMARK    1  A    between atoms: C2_2  and  C3_3 
REMARK    2  A    between atoms: N1_4  and  C4_5 
REMARK    3  A    between atoms: N1_4  and  C10_13 
REMARK    4  A    between atoms: C4_5  and  C5_6 
REMARK    5  A    between atoms: C8_9  and  O1_10 
REMARK    6  A    between atoms: C10_13  and  C11_14 
REMARK    7  A    between atoms: C16_19  and  S1_20 
REMARK    8  A    between atoms: S1_20  and  C17_21 
ROOT
HETATM    1  C3  UNL     1      23.198   1.733  50.497  1.00  0.00     0.117 C 
HETATM    2  N1  UNL     1      24.118   2.113  51.431  1.00  0.00    -0.405 N 
ENDROOT
BRANCH   2   3
HETATM    3  C4  UNL     1      25.043   1.149  51.924  1.00  0.00     0.153 C 
BRANCH   3   4
HETATM    4  C5  UNL     1      24.399   0.351  52.990  1.00  0.00    -0.038 A 
HETATM    5  C6  UNL     1      23.219  -0.034  53.407  1.00  0.00     0.009 A 
HETATM    6  C7  UNL     1      23.208  -0.865  54.594  1.00  0.00     0.034 A 
HETATM    7  C8  UNL     1      24.513  -0.969  54.890  1.00  0.00     0.066 A 
HETATM    8  C9  UNL     1      25.379  -0.246  53.952  1.00  0.00     0.169 A 
HETATM    9 CL1  UNL     1      26.529  -1.298  53.100  1.00  0.00    -0.113 Cl
BRANCH   7  10
HETATM   10  O1  UNL     1      24.905  -1.714  55.997  1.00  0.00    -0.363 OA
HETATM   11  H12 UNL     1      25.885  -1.841  56.219  1.00  0.00     0.217 HD
ENDBRANCH   7  10
ENDBRANCH   3   4
ENDBRANCH   2   3
BRANCH   2  12
HETATM   12  C10 UNL     1      24.562   3.402  51.665  1.00  0.00     0.157 C 
BRANCH  12  13
HETATM   13  C11 UNL     1      25.334   4.114  50.655  1.00  0.00    -0.024 A 
HETATM   14  C12 UNL     1      26.409   3.594  49.936  1.00  0.00     0.010 A 
HETATM   15  C13 UNL     1      27.132   4.287  48.988  1.00  0.00     0.001 A 
HETATM   16  C14 UNL     1      26.773   5.594  48.723  1.00  0.00     0.001 A 
HETATM   17  C15 UNL     1      25.706   6.173  49.408  1.00  0.00     0.019 A 
HETATM   18  C16 UNL     1      25.017   5.428  50.350  1.00  0.00     0.008 A 
BRANCH  18  19
HETATM   19  S1  UNL     1      23.692   6.286  51.137  1.00  0.00    -0.130 SA
BRANCH  19  20
HETATM   20  C17 UNL     1      23.039   7.666  50.185  1.00  0.00     0.075 C 
HETATM   21  C18 UNL     1      21.514   7.653  50.311  1.00  0.00     0.016 C 
ENDBRANCH  19  20
ENDBRANCH  18  19
ENDBRANCH  12  13
ENDBRANCH   2  12
BRANCH   1  22
HETATM   22  C2  UNL     1      22.243   2.720  49.901  1.00  0.00     0.015 C 
HETATM   23  C1  UNL     1      22.728   2.920  48.454  1.00  0.00     0.006 C 
ENDBRANCH   1  22
TORSDOF 8
ENDMDL
MODEL 8
REMARK VINA RESULT:      -6.3      3.328      5.070
REMARK  8 active torsions:
REMARK  status: ('A' for Active; 'I' for Inactive)
REMARK    1  A    between atoms: C2_2  and  C3_3 
REMARK    2  A    between atoms: N1_4  and  C4_5 
REMARK    3  A    between atoms: N1_4  and  C10_13 
REMARK    4  A    between atoms: C4_5  and  C5_6 
REMARK    5  A    between atoms: C8_9  and  O1_10 
REMARK    6  A    between atoms: C10_13  and  C11_14 
REMARK    7  A    between atoms: C16_19  and  S1_20 
REMARK    8  A    between atoms: S1_20  and  C17_21 
ROOT
HETATM    1  C3  UNL     1      21.987   3.308  52.310  1.00  0.00     0.117 C 
HETATM    2  N1  UNL     1      22.428   2.529  51.280  1.00  0.00    -0.405 N 
ENDROOT
BRANCH   2   3
HETATM    3  C4  UNL     1      22.106   1.142  51.274  1.00  0.00     0.153 C 
BRANCH   3   4
HETATM    4  C5  UNL     1      22.799   0.471  52.396  1.00  0.00    -0.038 A 
HETATM    5  C6  UNL     1      23.983   0.355  52.941  1.00  0.00     0.009 A 
HETATM    6  C7  UNL     1      24.061  -0.503  54.107  1.00  0.00     0.034 A 
HETATM    7  C8  UNL     1      22.794  -0.923  54.245  1.00  0.00     0.066 A 
HETATM    8  C9  UNL     1      21.889  -0.380  53.226  1.00  0.00     0.169 A 
HETATM    9 CL1  UNL     1      20.568   0.595  53.904  1.00  0.00    -0.113 Cl
BRANCH   7  10
HETATM   10  O1  UNL     1      22.471  -1.787  55.286  1.00  0.00    -0.363 OA
HETATM   11  H12 UNL     1      21.772  -2.510  55.165  1.00  0.00     0.217 HD
ENDBRANCH   7  10
ENDBRANCH   3   4
ENDBRANCH   2   3
BRANCH   2  12
HETATM   12  C10 UNL     1      22.788   2.967  50.018  1.00  0.00     0.157 C 
BRANCH  12  13
HETATM   13  C11 UNL     1      24.127   3.483  49.767  1.00  0.00    -0.024 A 
HETATM   14  C12 UNL     1      25.320   2.841  50.093  1.00  0.00     0.010 A 
HETATM   15  C13 UNL     1      26.580   3.349  49.855  1.00  0.00     0.001 A 
HETATM   16  C14 UNL     1      26.677   4.586  49.249  1.00  0.00     0.001 A 
HETATM   17  C15 UNL     1      25.521   5.281  48.897  1.00  0.00     0.019 A 
HETATM   18  C16 UNL     1      24.283   4.719  49.162  1.00  0.00     0.008 A 
BRANCH  18  19
HETATM   19  S1  UNL     1      22.909   5.706  48.664  1.00  0.00    -0.130 SA
BRANCH  19  20
HETATM   20  C17 UNL     1      23.135   7.472  48.927  1.00  0.00     0.075 C 
HETATM   21  C18 UNL     1      23.319   7.710  50.427  1.00  0.00     0.016 C 
ENDBRANCH  19  20
ENDBRANCH  18  19
ENDBRANCH  12  13
ENDBRANCH   2  12
BRANCH   1  22
HETATM   22  C2  UNL     1      22.245   4.782  52.335  1.00  0.00     0.015 C 
HETATM   23  C1  UNL     1      23.604   4.937  53.042  1.00  0.00     0.006 C 
ENDBRANCH   1  22
TORSDOF 8
ENDMDL
MODEL 9
REMARK VINA RESULT:      -6.2      3.393      5.946
REMARK  8 active torsions:
REMARK  status: ('A' for Active; 'I' for Inactive)
REMARK    1  A    between atoms: C2_2  and  C3_3 
REMARK    2  A    between atoms: N1_4  and  C4_5 
REMARK    3  A    between atoms: N1_4  and  C10_13 
REMARK    4  A    between atoms: C4_5  and  C5_6 
REMARK    5  A    between atoms: C8_9  and  O1_10 
REMARK    6  A    between atoms: C10_13  and  C11_14 
REMARK    7  A    between atoms: C16_19  and  S1_20 
REMARK    8  A    between atoms: S1_20  and  C17_21 
ROOT
HETATM    1  C3  UNL     1      21.842   3.285  51.628  1.00  0.00     0.117 C 
HETATM    2  N1  UNL     1      22.454   2.190  52.164  1.00  0.00    -0.405 N 
ENDROOT
BRANCH   2   3
HETATM    3  C4  UNL     1      22.280   0.923  51.538  1.00  0.00     0.153 C 
BRANCH   3   4
HETATM    4  C5  UNL     1      20.879   0.478  51.711  1.00  0.00    -0.038 A 
HETATM    5  C6  UNL     1      19.754   0.368  51.051  1.00  0.00     0.009 A 
HETATM    6  C7  UNL     1      18.635  -0.174  51.797  1.00  0.00     0.034 A 
HETATM    7  C8  UNL     1      19.171  -0.397  53.006  1.00  0.00     0.066 A 
HETATM    8  C9  UNL     1      20.589  -0.029  53.089  1.00  0.00     0.169 A 
HETATM    9 CL1  UNL     1      21.650  -1.396  53.489  1.00  0.00    -0.113 Cl
BRANCH   7  10
HETATM   10  O1  UNL     1      18.378  -0.931  54.017  1.00  0.00    -0.363 OA
HETATM   11  H12 UNL     1      17.817  -0.331  54.611  1.00  0.00     0.217 HD
ENDBRANCH   7  10
ENDBRANCH   3   4
ENDBRANCH   2   3
BRANCH   2  12
HETATM   12  C10 UNL     1      23.566   2.194  52.988  1.00  0.00     0.157 C 
BRANCH  12  13
HETATM   13  C11 UNL     1      24.660   1.259  52.760  1.00  0.00    -0.024 A 
HETATM   14  C12 UNL     1      24.787  -0.001  53.342  1.00  0.00     0.010 A 
HETATM   15  C13 UNL     1      25.834  -0.870  53.119  1.00  0.00     0.001 A 
HETATM   16  C14 UNL     1      26.838  -0.471  52.258  1.00  0.00     0.001 A 
HETATM   17  C15 UNL     1      26.770   0.778  51.643  1.00  0.00     0.019 A 
HETATM   18  C16 UNL     1      25.693   1.608  51.906  1.00  0.00     0.008 A 
BRANCH  18  19
HETATM   19  S1  UNL     1      25.737   3.155  51.061  1.00  0.00    -0.130 SA
BRANCH  19  20
HETATM   20  C17 UNL     1      24.783   3.189  49.535  1.00  0.00     0.075 C 
HETATM   21  C18 UNL     1      24.443   4.647  49.218  1.00  0.00     0.016 C 
ENDBRANCH  19  20
ENDBRANCH  18  19
ENDBRANCH  12  13
ENDBRANCH   2  12
BRANCH   1  22
HETATM   22  C2  UNL     1      22.042   4.650  52.211  1.00  0.00     0.015 C 
HETATM   23  C1  UNL     1      21.431   5.617  51.180  1.00  0.00     0.006 C 
ENDBRANCH   1  22
TORSDOF 8
ENDMDL
