MODEL 1
REMARK VINA RESULT:     -10.1      0.000      0.000
REMARK  0 active torsions:
REMARK  status: ('A' for Active; 'I' for Inactive)
ROOT
HETATM    1  O1  UNL     1      22.767  -1.267  53.536  1.00  0.00    -0.284 OA
HETATM    2  C1  UNL     1      23.341  -0.219  53.203  1.00  0.00     0.217 C 
HETATM    3  C2  UNL     1      22.359   0.597  52.604  1.00  0.00     0.060 A 
HETATM    4  C3  UNL     1      23.020   1.221  51.337  1.00  0.00     0.038 A 
HETATM    5  C4  UNL     1      22.144   2.037  50.792  1.00  0.00     0.008 A 
HETATM    6  C5  UNL     1      20.840   2.337  51.208  1.00  0.00     0.103 A 
HETATM    7  S1  UNL     1      20.754   1.303  52.654  1.00  0.00    -0.066 SA
HETATM    8  N1  UNL     1      20.266   3.183  50.485  1.00  0.00    -0.277 NA
HETATM    9  C6  UNL     1      21.177   3.578  49.436  1.00  0.00     0.189 A 
HETATM   10  C7  UNL     1      22.409   2.805  49.774  1.00  0.00    -0.028 A 
HETATM   11  C8  UNL     1      23.711   2.858  49.103  1.00  0.00     0.003 C 
HETATM   12  C9  UNL     1      24.441   3.584  49.894  1.00  0.00     0.079 A 
HETATM   13  C10 UNL     1      24.044   4.821  50.008  1.00  0.00     0.115 A 
HETATM   14  F1  UNL     1      23.645   6.115  49.972  1.00  0.00    -0.212 F 
HETATM   15  C11 UNL     1      24.044   4.337  51.412  1.00  0.00     0.128 A 
HETATM   16 CL1  UNL     1      23.019   5.119  52.646  1.00  0.00    -0.172 Cl
HETATM   17  C12 UNL     1      24.168   3.764  52.644  1.00  0.00     0.211 A 
HETATM   18  N2  UNL     1      24.765   2.765  53.458  1.00  0.00    -0.309 N 
HETATM   19  N3  UNL     1      25.237   1.426  53.440  1.00  0.00    -0.255 N 
HETATM   20  C13 UNL     1      24.720   0.218  53.336  1.00  0.00     0.108 A 
HETATM   21  C14 UNL     1      25.726  -0.710  53.370  1.00  0.00     0.049 A 
HETATM   22  C15 UNL     1      26.914  -0.025  53.502  1.00  0.00    -0.005 A 
HETATM   23  C16 UNL     1      28.222  -0.519  53.585  1.00  0.00     0.014 A 
HETATM   24  C17 UNL     1      29.275   0.346  53.719  1.00  0.00     0.001 A 
HETATM   25  C18 UNL     1      29.026   1.691  53.770  1.00  0.00     0.002 A 
HETATM   26  C19 UNL     1      27.720   2.108  53.682  1.00  0.00     0.032 A 
HETATM   27  C20 UNL     1      26.577   1.310  53.544  1.00  0.00     0.067 A 
HETATM   28  H6  UNL     1      24.848   3.310  54.341  1.00  0.00     0.182 HD
ENDROOT
TORSDOF 0
ENDMDL
MODEL 2
REMARK VINA RESULT:      -9.6      1.677      2.016
REMARK  0 active torsions:
REMARK  status: ('A' for Active; 'I' for Inactive)
ROOT
HETATM    1  O1  UNL     1      22.287  -1.728  54.590  1.00  0.00    -0.284 OA
HETATM    2  C1  UNL     1      22.579  -0.755  53.878  1.00  0.00     0.217 C 
HETATM    3  C2  UNL     1      21.374  -0.318  53.290  1.00  0.00     0.060 A 
HETATM    4  C3  UNL     1      21.700  -0.013  51.796  1.00  0.00     0.038 A 
HETATM    5  C4  UNL     1      20.605   0.456  51.237  1.00  0.00     0.008 A 
HETATM    6  C5  UNL     1      19.343   0.665  51.807  1.00  0.00     0.103 A 
HETATM    7  S1  UNL     1      19.683   0.115  53.467  1.00  0.00    -0.066 SA
HETATM    8  N1  UNL     1      18.508   1.154  51.013  1.00  0.00    -0.277 NA
HETATM    9  C6  UNL     1      19.155   1.348  49.737  1.00  0.00     0.189 A 
HETATM   10  C7  UNL     1      20.555   0.911  50.018  1.00  0.00    -0.028 A 
HETATM   11  C8  UNL     1      21.707   0.958  49.111  1.00  0.00     0.003 C 
HETATM   12  C9  UNL     1      22.380   1.992  49.515  1.00  0.00     0.079 A 
HETATM   13  C10 UNL     1      21.759   3.129  49.367  1.00  0.00     0.115 A 
HETATM   14  F1  UNL     1      21.104   4.275  49.063  1.00  0.00    -0.212 F 
HETATM   15  C11 UNL     1      22.065   3.099  50.820  1.00  0.00     0.128 A 
HETATM   16 CL1  UNL     1      21.093   4.050  51.976  1.00  0.00    -0.172 Cl
HETATM   17  C12 UNL     1      22.482   2.951  52.110  1.00  0.00     0.211 A 
HETATM   18  N2  UNL     1      23.384   2.348  53.027  1.00  0.00    -0.309 N 
HETATM   19  N3  UNL     1      24.113   1.156  53.278  1.00  0.00    -0.255 N 
HETATM   20  C13 UNL     1      23.844  -0.091  53.609  1.00  0.00     0.108 A 
HETATM   21  C14 UNL     1      25.013  -0.801  53.691  1.00  0.00     0.049 A 
HETATM   22  C15 UNL     1      26.041   0.066  53.393  1.00  0.00    -0.005 A 
HETATM   23  C16 UNL     1      27.421  -0.173  53.344  1.00  0.00     0.014 A 
HETATM   24  C17 UNL     1      28.283   0.842  53.026  1.00  0.00     0.001 A 
HETATM   25  C18 UNL     1      27.774   2.085  52.760  1.00  0.00     0.002 A 
HETATM   26  C19 UNL     1      26.412   2.250  52.826  1.00  0.00     0.032 A 
HETATM   27  C20 UNL     1      25.448   1.283  53.140  1.00  0.00     0.067 A 
HETATM   28  H6  UNL     1      23.482   3.141  53.695  1.00  0.00     0.182 HD
ENDROOT
TORSDOF 0
ENDMDL
MODEL 3
REMARK VINA RESULT:      -9.3      2.772      4.162
REMARK  0 active torsions:
REMARK  status: ('A' for Active; 'I' for Inactive)
ROOT
HETATM    1  O1  UNL     1      25.747   0.621  52.536  1.00  0.00    -0.284 OA
HETATM    2  C1  UNL     1      25.016   1.440  51.960  1.00  0.00     0.217 C 
HETATM    3  C2  UNL     1      23.689   1.034  52.212  1.00  0.00     0.060 A 
HETATM    4  C3  UNL     1      22.922   1.176  50.862  1.00  0.00     0.038 A 
HETATM    5  C4  UNL     1      21.664   0.861  51.084  1.00  0.00     0.008 A 
HETATM    6  C5  UNL     1      21.053   0.457  52.278  1.00  0.00     0.103 A 
HETATM    7  S1  UNL     1      22.468   0.507  53.357  1.00  0.00    -0.066 SA
HETATM    8  N1  UNL     1      19.822   0.254  52.168  1.00  0.00    -0.277 NA
HETATM    9  C6  UNL     1      19.438   0.521  50.802  1.00  0.00     0.189 A 
HETATM   10  C7  UNL     1      20.723   0.975  50.190  1.00  0.00    -0.028 A 
HETATM   11  C8  UNL     1      20.942   1.464  48.826  1.00  0.00     0.003 C 
HETATM   12  C9  UNL     1      21.024   2.752  48.965  1.00  0.00     0.079 A 
HETATM   13  C10 UNL     1      19.925   3.319  49.379  1.00  0.00     0.115 A 
HETATM   14  F1  UNL     1      18.715   3.845  49.685  1.00  0.00    -0.212 F 
HETATM   15  C11 UNL     1      20.923   3.736  50.397  1.00  0.00     0.128 A 
HETATM   16 CL1  UNL     1      20.407   4.209  52.038  1.00  0.00    -0.172 Cl
HETATM   17  C12 UNL     1      21.968   4.086  51.200  1.00  0.00     0.211 A 
HETATM   18  N2  UNL     1      23.370   4.256  51.354  1.00  0.00    -0.309 N 
HETATM   19  N3  UNL     1      24.624   3.721  50.957  1.00  0.00    -0.255 N 
HETATM   20  C13 UNL     1      25.314   2.617  51.161  1.00  0.00     0.108 A 
HETATM   21  C14 UNL     1      26.493   2.684  50.467  1.00  0.00     0.049 A 
HETATM   22  C15 UNL     1      26.514   3.894  49.809  1.00  0.00    -0.005 A 
HETATM   23  C16 UNL     1      27.499   4.436  48.972  1.00  0.00     0.014 A 
HETATM   24  C17 UNL     1      27.321   5.674  48.414  1.00  0.00     0.001 A 
HETATM   25  C18 UNL     1      26.172   6.365  48.688  1.00  0.00     0.002 A 
HETATM   26  C19 UNL     1      25.247   5.776  49.516  1.00  0.00     0.032 A 
HETATM   27  C20 UNL     1      25.332   4.522  50.134  1.00  0.00     0.067 A 
HETATM   28  H6  UNL     1      23.360   5.085  51.984  1.00  0.00     0.182 HD
ENDROOT
TORSDOF 0
ENDMDL
MODEL 4
REMARK VINA RESULT:      -9.3      2.826      4.737
REMARK  0 active torsions:
REMARK  status: ('A' for Active; 'I' for Inactive)
ROOT
HETATM    1  O1  UNL     1      26.880   1.286  52.140  1.00  0.00    -0.284 OA
HETATM    2  C1  UNL     1      25.709   1.584  51.859  1.00  0.00     0.217 C 
HETATM    3  C2  UNL     1      25.781   2.690  50.986  1.00  0.00     0.060 A 
HETATM    4  C3  UNL     1      24.680   3.690  51.454  1.00  0.00     0.038 A 
HETATM    5  C4  UNL     1      24.684   4.707  50.618  1.00  0.00     0.008 A 
HETATM    6  C5  UNL     1      25.498   4.925  49.499  1.00  0.00     0.103 A 
HETATM    7  S1  UNL     1      26.484   3.445  49.567  1.00  0.00    -0.066 SA
HETATM    8  N1  UNL     1      25.234   5.985  48.887  1.00  0.00    -0.277 NA
HETATM    9  C6  UNL     1      24.139   6.640  49.564  1.00  0.00     0.189 A 
HETATM   10  C7  UNL     1      23.815   5.676  50.657  1.00  0.00    -0.028 A 
HETATM   11  C8  UNL     1      22.725   5.763  51.634  1.00  0.00     0.003 C 
HETATM   12  C9  UNL     1      21.838   4.928  51.186  1.00  0.00     0.079 A 
HETATM   13  C10 UNL     1      21.318   5.259  50.036  1.00  0.00     0.115 A 
HETATM   14  F1  UNL     1      20.738   5.736  48.910  1.00  0.00    -0.212 F 
HETATM   15  C11 UNL     1      21.867   3.903  49.779  1.00  0.00     0.128 A 
HETATM   16 CL1  UNL     1      22.288   3.389  48.123  1.00  0.00    -0.172 Cl
HETATM   17  C12 UNL     1      22.358   2.631  49.729  1.00  0.00     0.211 A 
HETATM   18  N2  UNL     1      22.722   1.448  50.424  1.00  0.00    -0.309 N 
HETATM   19  N3  UNL     1      23.270   0.978  51.647  1.00  0.00    -0.255 N 
HETATM   20  C13 UNL     1      24.436   1.011  52.261  1.00  0.00     0.108 A 
HETATM   21  C14 UNL     1      24.331   0.373  53.468  1.00  0.00     0.049 A 
HETATM   22  C15 UNL     1      23.031  -0.069  53.587  1.00  0.00    -0.005 A 
HETATM   23  C16 UNL     1      22.424  -0.776  54.634  1.00  0.00     0.014 A 
HETATM   24  C17 UNL     1      21.102  -1.125  54.550  1.00  0.00     0.001 A 
HETATM   25  C18 UNL     1      20.393  -0.773  53.433  1.00  0.00     0.002 A 
HETATM   26  C19 UNL     1      21.050  -0.080  52.445  1.00  0.00     0.032 A 
HETATM   27  C20 UNL     1      22.391   0.324  52.433  1.00  0.00     0.067 A 
HETATM   28  H6  UNL     1      22.440   0.750  49.704  1.00  0.00     0.182 HD
ENDROOT
TORSDOF 0
ENDMDL
MODEL 5
REMARK VINA RESULT:      -8.7      2.998      4.843
REMARK  0 active torsions:
REMARK  status: ('A' for Active; 'I' for Inactive)
ROOT
HETATM    1  O1  UNL     1      26.753   1.676  51.604  1.00  0.00    -0.284 OA
HETATM    2  C1  UNL     1      25.824   2.397  51.208  1.00  0.00     0.217 C 
HETATM    3  C2  UNL     1      24.631   1.751  51.590  1.00  0.00     0.060 A 
HETATM    4  C3  UNL     1      23.665   1.856  50.371  1.00  0.00     0.038 A 
HETATM    5  C4  UNL     1      22.519   1.314  50.722  1.00  0.00     0.008 A 
HETATM    6  C5  UNL     1      22.158   0.725  51.941  1.00  0.00     0.103 A 
HETATM    7  S1  UNL     1      23.688   0.939  52.827  1.00  0.00    -0.066 SA
HETATM    8  N1  UNL     1      20.973   0.322  51.972  1.00  0.00    -0.277 NA
HETATM    9  C6  UNL     1      20.359   0.617  50.698  1.00  0.00     0.189 A 
HETATM   10  C7  UNL     1      21.454   1.328  49.973  1.00  0.00    -0.028 A 
HETATM   11  C8  UNL     1      21.394   1.945  48.644  1.00  0.00     0.003 C 
HETATM   12  C9  UNL     1      21.286   3.215  48.894  1.00  0.00     0.079 A 
HETATM   13  C10 UNL     1      20.181   3.553  49.499  1.00  0.00     0.115 A 
HETATM   14  F1  UNL     1      18.959   3.838  50.008  1.00  0.00    -0.212 F 
HETATM   15  C11 UNL     1      21.235   4.060  50.414  1.00  0.00     0.128 A 
HETATM   16 CL1  UNL     1      20.890   4.317  52.147  1.00  0.00    -0.172 Cl
HETATM   17  C12 UNL     1      22.315   4.526  51.105  1.00  0.00     0.211 A 
HETATM   18  N2  UNL     1      23.678   4.923  51.092  1.00  0.00    -0.309 N 
HETATM   19  N3  UNL     1      24.932   4.642  50.487  1.00  0.00    -0.255 N 
HETATM   20  C13 UNL     1      25.813   3.662  50.494  1.00  0.00     0.108 A 
HETATM   21  C14 UNL     1      26.853   3.982  49.663  1.00  0.00     0.049 A 
HETATM   22  C15 UNL     1      26.585   5.222  49.126  1.00  0.00    -0.005 A 
HETATM   23  C16 UNL     1      27.340   5.984  48.225  1.00  0.00     0.014 A 
HETATM   24  C17 UNL     1      26.887   7.210  47.816  1.00  0.00     0.001 A 
HETATM   25  C18 UNL     1      25.693   7.671  48.300  1.00  0.00     0.002 A 
HETATM   26  C19 UNL     1      25.004   6.873  49.181  1.00  0.00     0.032 A 
HETATM   27  C20 UNL     1      25.376   5.611  49.660  1.00  0.00     0.067 A 
HETATM   28  H6  UNL     1      23.626   5.690  51.795  1.00  0.00     0.182 HD
ENDROOT
TORSDOF 0
ENDMDL
MODEL 6
REMARK VINA RESULT:      -8.5      3.477      5.489
REMARK  0 active torsions:
REMARK  status: ('A' for Active; 'I' for Inactive)
ROOT
HETATM    1  O1  UNL     1      27.167   2.911  50.986  1.00  0.00    -0.284 OA
HETATM    2  C1  UNL     1      25.996   3.177  50.675  1.00  0.00     0.217 C 
HETATM    3  C2  UNL     1      26.041   4.396  49.966  1.00  0.00     0.060 A 
HETATM    4  C3  UNL     1      24.853   5.256  50.496  1.00  0.00     0.038 A 
HETATM    5  C4  UNL     1      24.834   6.377  49.808  1.00  0.00     0.008 A 
HETATM    6  C5  UNL     1      25.690   6.796  48.781  1.00  0.00     0.103 A 
HETATM    7  S1  UNL     1      26.768   5.380  48.709  1.00  0.00    -0.066 SA
HETATM    8  N1  UNL     1      25.390   7.913  48.303  1.00  0.00    -0.277 NA
HETATM    9  C6  UNL     1      24.220   8.403  48.993  1.00  0.00     0.189 A 
HETATM   10  C7  UNL     1      23.902   7.279  49.923  1.00  0.00    -0.028 A 
HETATM   11  C8  UNL     1      22.758   7.165  50.833  1.00  0.00     0.003 C 
HETATM   12  C9  UNL     1      21.953   6.350  50.222  1.00  0.00     0.079 A 
HETATM   13  C10 UNL     1      21.475   6.808  49.098  1.00  0.00     0.115 A 
HETATM   14  F1  UNL     1      20.926   7.402  48.012  1.00  0.00    -0.212 F 
HETATM   15  C11 UNL     1      22.126   5.535  48.694  1.00  0.00     0.128 A 
HETATM   16 CL1  UNL     1      22.668   5.282  47.013  1.00  0.00    -0.172 Cl
HETATM   17  C12 UNL     1      22.702   4.313  48.502  1.00  0.00     0.211 A 
HETATM   18  N2  UNL     1      23.106   3.068  49.052  1.00  0.00    -0.309 N 
HETATM   19  N3  UNL     1      23.618   2.465  50.231  1.00  0.00    -0.255 N 
HETATM   20  C13 UNL     1      24.744   2.480  50.916  1.00  0.00     0.108 A 
HETATM   21  C14 UNL     1      24.617   1.675  52.016  1.00  0.00     0.049 A 
HETATM   22  C15 UNL     1      23.345   1.147  51.994  1.00  0.00    -0.005 A 
HETATM   23  C16 UNL     1      22.730   0.267  52.895  1.00  0.00     0.014 A 
HETATM   24  C17 UNL     1      21.442  -0.144  52.682  1.00  0.00     0.001 A 
HETATM   25  C18 UNL     1      20.771   0.318  51.582  1.00  0.00     0.002 A 
HETATM   26  C19 UNL     1      21.433   1.179  50.739  1.00  0.00     0.032 A 
HETATM   27  C20 UNL     1      22.743   1.658  50.865  1.00  0.00     0.067 A 
HETATM   28  H6  UNL     1      22.910   2.461  48.228  1.00  0.00     0.182 HD
ENDROOT
TORSDOF 0
ENDMDL
MODEL 7
REMARK VINA RESULT:      -8.5      3.603      5.614
REMARK  0 active torsions:
REMARK  status: ('A' for Active; 'I' for Inactive)
ROOT
HETATM    1  O1  UNL     1      26.972   2.787  50.962  1.00  0.00    -0.284 OA
HETATM    2  C1  UNL     1      26.173   3.512  50.350  1.00  0.00     0.217 C 
HETATM    3  C2  UNL     1      24.895   2.949  50.544  1.00  0.00     0.060 A 
HETATM    4  C3  UNL     1      24.179   2.998  49.160  1.00  0.00     0.038 A 
HETATM    5  C4  UNL     1      22.959   2.533  49.326  1.00  0.00     0.008 A 
HETATM    6  C5  UNL     1      22.348   2.057  50.493  1.00  0.00     0.103 A 
HETATM    7  S1  UNL     1      23.697   2.277  51.635  1.00  0.00    -0.066 SA
HETATM    8  N1  UNL     1      21.157   1.707  50.329  1.00  0.00    -0.277 NA
HETATM    9  C6  UNL     1      20.806   1.927  48.945  1.00  0.00     0.189 A 
HETATM   10  C7  UNL     1      22.053   2.533  48.391  1.00  0.00    -0.028 A 
HETATM   11  C8  UNL     1      22.274   3.046  47.035  1.00  0.00     0.003 C 
HETATM   12  C9  UNL     1      22.193   4.334  47.172  1.00  0.00     0.079 A 
HETATM   13  C10 UNL     1      21.015   4.764  47.533  1.00  0.00     0.115 A 
HETATM   14  F1  UNL     1      19.738   5.139  47.782  1.00  0.00    -0.212 F 
HETATM   15  C11 UNL     1      21.908   5.298  48.593  1.00  0.00     0.128 A 
HETATM   16 CL1  UNL     1      21.265   5.704  50.207  1.00  0.00    -0.172 Cl
HETATM   17  C12 UNL     1      22.866   5.771  49.441  1.00  0.00     0.211 A 
HETATM   18  N2  UNL     1      24.229   6.109  49.657  1.00  0.00    -0.309 N 
HETATM   19  N3  UNL     1      25.555   5.730  49.320  1.00  0.00    -0.255 N 
HETATM   20  C13 UNL     1      26.364   4.718  49.560  1.00  0.00     0.108 A 
HETATM   21  C14 UNL     1      27.556   4.927  48.920  1.00  0.00     0.049 A 
HETATM   22  C15 UNL     1      27.460   6.131  48.257  1.00  0.00    -0.005 A 
HETATM   23  C16 UNL     1      28.410   6.789  47.464  1.00  0.00     0.014 A 
HETATM   24  C17 UNL     1      28.109   7.996  46.893  1.00  0.00     0.001 A 
HETATM   25  C18 UNL     1      26.873   8.544  47.111  1.00  0.00     0.002 A 
HETATM   26  C19 UNL     1      25.990   7.846  47.899  1.00  0.00     0.032 A 
HETATM   27  C20 UNL     1      26.197   6.611  48.526  1.00  0.00     0.067 A 
HETATM   28  H6  UNL     1      24.090   6.930  50.282  1.00  0.00     0.182 HD
ENDROOT
TORSDOF 0
ENDMDL
MODEL 8
REMARK VINA RESULT:      -8.2      8.284      9.610
REMARK  0 active torsions:
REMARK  status: ('A' for Active; 'I' for Inactive)
ROOT
HETATM    1  O1  UNL     1      28.148   4.684  48.293  1.00  0.00    -0.284 OA
HETATM    2  C1  UNL     1      29.031   5.555  48.286  1.00  0.00     0.217 C 
HETATM    3  C2  UNL     1      28.364   6.797  48.277  1.00  0.00     0.060 A 
HETATM    4  C3  UNL     1      29.119   7.694  47.250  1.00  0.00     0.038 A 
HETATM    5  C4  UNL     1      28.554   8.882  47.266  1.00  0.00     0.008 A 
HETATM    6  C5  UNL     1      27.469   9.332  48.029  1.00  0.00     0.103 A 
HETATM    7  S1  UNL     1      27.116   7.840  48.935  1.00  0.00    -0.066 SA
HETATM    8  N1  UNL     1      27.184  10.536  47.835  1.00  0.00    -0.277 NA
HETATM    9  C6  UNL     1      28.106  11.069  46.860  1.00  0.00     0.189 A 
HETATM   10  C7  UNL     1      29.006   9.906  46.601  1.00  0.00    -0.028 A 
HETATM   11  C8  UNL     1      30.198   9.869  45.748  1.00  0.00     0.003 C 
HETATM   12  C9  UNL     1      31.186   9.925  46.589  1.00  0.00     0.079 A 
HETATM   13  C10 UNL     1      31.258  11.041  47.260  1.00  0.00     0.115 A 
HETATM   14  F1  UNL     1      31.339  12.271  47.820  1.00  0.00    -0.212 F 
HETATM   15  C11 UNL     1      31.178  10.011  48.327  1.00  0.00     0.128 A 
HETATM   16 CL1  UNL     1      30.575  10.429  49.954  1.00  0.00    -0.172 Cl
HETATM   17  C12 UNL     1      31.170   8.945  49.179  1.00  0.00     0.211 A 
HETATM   18  N2  UNL     1      31.429   7.565  49.389  1.00  0.00    -0.309 N 
HETATM   19  N3  UNL     1      31.397   6.298  48.748  1.00  0.00    -0.255 N 
HETATM   20  C13 UNL     1      30.482   5.468  48.288  1.00  0.00     0.108 A 
HETATM   21  C14 UNL     1      31.096   4.373  47.743  1.00  0.00     0.049 A 
HETATM   22  C15 UNL     1      32.455   4.552  47.881  1.00  0.00    -0.005 A 
HETATM   23  C16 UNL     1      33.509   3.716  47.487  1.00  0.00     0.014 A 
HETATM   24  C17 UNL     1      34.805   4.086  47.727  1.00  0.00     0.001 A 
HETATM   25  C18 UNL     1      35.049   5.279  48.353  1.00  0.00     0.002 A 
HETATM   26  C19 UNL     1      33.971   6.050  48.712  1.00  0.00     0.032 A 
HETATM   27  C20 UNL     1      32.613   5.765  48.515  1.00  0.00     0.067 A 
HETATM   28  H6  UNL     1      31.754   7.614  50.377  1.00  0.00     0.182 HD
ENDROOT
TORSDOF 0
ENDMDL
MODEL 9
REMARK VINA RESULT:      -8.2      4.138      6.311
REMARK  0 active torsions:
REMARK  status: ('A' for Active; 'I' for Inactive)
ROOT
HETATM    1  O1  UNL     1      22.293   8.913  49.631  1.00  0.00    -0.284 OA
HETATM    2  C1  UNL     1      22.918   7.842  49.654  1.00  0.00     0.217 C 
HETATM    3  C2  UNL     1      22.003   6.858  50.082  1.00  0.00     0.060 A 
HETATM    4  C3  UNL     1      22.766   5.966  51.108  1.00  0.00     0.038 A 
HETATM    5  C4  UNL     1      21.952   5.000  51.479  1.00  0.00     0.008 A 
HETATM    6  C5  UNL     1      20.633   4.756  51.078  1.00  0.00     0.103 A 
HETATM    7  S1  UNL     1      20.418   6.116  49.949  1.00  0.00    -0.066 SA
HETATM    8  N1  UNL     1      20.133   3.731  51.595  1.00  0.00    -0.277 NA
HETATM    9  C6  UNL     1      21.124   3.126  52.454  1.00  0.00     0.189 A 
HETATM   10  C7  UNL     1      22.308   4.014  52.252  1.00  0.00    -0.028 A 
HETATM   11  C8  UNL     1      23.654   3.853  52.809  1.00  0.00     0.003 C 
HETATM   12  C9  UNL     1      24.348   3.382  51.819  1.00  0.00     0.079 A 
HETATM   13  C10 UNL     1      23.979   2.196  51.418  1.00  0.00     0.115 A 
HETATM   14  F1  UNL     1      23.621   0.919  51.148  1.00  0.00    -0.212 F 
HETATM   15  C11 UNL     1      23.871   3.017  50.185  1.00  0.00     0.128 A 
HETATM   16 CL1  UNL     1      22.786   2.526  48.856  1.00  0.00    -0.172 Cl
HETATM   17  C12 UNL     1      23.894   3.887  49.134  1.00  0.00     0.211 A 
HETATM   18  N2  UNL     1      24.406   5.084  48.567  1.00  0.00    -0.309 N 
HETATM   19  N3  UNL     1      24.840   6.395  48.896  1.00  0.00    -0.255 N 
HETATM   20  C13 UNL     1      24.297   7.513  49.333  1.00  0.00     0.108 A 
HETATM   21  C14 UNL     1      25.271   8.465  49.477  1.00  0.00     0.049 A 
HETATM   22  C15 UNL     1      26.467   7.888  49.106  1.00  0.00    -0.005 A 
HETATM   23  C16 UNL     1      27.752   8.446  49.074  1.00  0.00     0.014 A 
HETATM   24  C17 UNL     1      28.817   7.690  48.663  1.00  0.00     0.001 A 
HETATM   25  C18 UNL     1      28.604   6.391  48.288  1.00  0.00     0.002 A 
HETATM   26  C19 UNL     1      27.319   5.908  48.343  1.00  0.00     0.032 A 
HETATM   27  C20 UNL     1      26.165   6.593  48.746  1.00  0.00     0.067 A 
HETATM   28  H6  UNL     1      24.444   4.782  47.571  1.00  0.00     0.182 HD
ENDROOT
TORSDOF 0
ENDMDL
