MODEL 1
REMARK VINA RESULT:      -7.5      0.000      0.000
REMARK  3 active torsions:
REMARK  status: ('A' for Active; 'I' for Inactive)
REMARK    1  A    between atoms: C8_10  and  O1_11 
REMARK    2  A    between atoms: N2_13  and  N3_14 
REMARK    3  A    between atoms: C10_15  and  C11_16 
ROOT
HETATM    1  C1  UNL     1      26.789   0.866  52.033  1.00  0.00     0.070 C 
HETATM    2  C2  UNL     1      25.366   0.845  52.324  1.00  0.00     0.028 C 
HETATM    3  C3  UNL     1      24.474   0.183  53.035  1.00  0.00     0.026 C 
HETATM    4  C4  UNL     1      23.272  -0.319  53.674  1.00  0.00    -0.002 C 
HETATM    5  C5  UNL     1      21.990   0.017  53.635  1.00  0.00    -0.020 C 
HETATM    6  C6  UNL     1      20.681   0.583  53.408  1.00  0.00     0.093 C 
HETATM    7  C7  UNL     1      20.536   1.694  52.458  1.00  0.00     0.071 A 
HETATM    8  S1  UNL     1      19.406   2.923  51.852  1.00  0.00    -0.079 SA
HETATM    9  N1  UNL     1      20.944   2.493  51.486  1.00  0.00    -0.271 N 
HETATM   10  C8  UNL     1      22.299   2.158  51.026  1.00  0.00     0.156 C 
HETATM   11  C9  UNL     1      23.614   1.992  51.029  1.00  0.00     0.218 C 
HETATM   12  N2  UNL     1      24.972   1.988  51.502  1.00  0.00    -0.259 N 
HETATM   13  H9  UNL     1      18.068   2.493  51.879  1.00  0.00     0.120 HD
ENDROOT
BRANCH  12  14
HETATM   14  N3  UNL     1      25.572   3.132  51.034  1.00  0.00    -0.183 NA
HETATM   15  C10 UNL     1      25.656   3.487  49.809  1.00  0.00     0.152 C 
BRANCH  15  16
HETATM   16  C11 UNL     1      26.302   4.710  49.354  1.00  0.00     0.005 A 
HETATM   17  C12 UNL     1      25.719   5.882  49.532  1.00  0.00     0.147 A 
HETATM   18  O2  UNL     1      26.265   7.094  49.129  1.00  0.00    -0.358 OA
HETATM   19  C13 UNL     1      27.539   7.157  48.489  1.00  0.00     0.202 A 
HETATM   20  C14 UNL     1      28.104   5.782  48.339  1.00  0.00     0.000 A 
HETATM   21  C15 UNL     1      27.602   4.635  48.706  1.00  0.00     0.013 A 
ENDBRANCH  15  16
ENDBRANCH  12  14
BRANCH  10  22
HETATM   22  O1  UNL     1      22.546   1.675  49.746  1.00  0.00    -0.347 OA
HETATM   23  H10 UNL     1      22.863   0.736  49.545  1.00  0.00     0.219 HD
ENDBRANCH  10  22
TORSDOF 3
ENDMDL
MODEL 2
REMARK VINA RESULT:      -7.5      3.162      5.431
REMARK  3 active torsions:
REMARK  status: ('A' for Active; 'I' for Inactive)
REMARK    1  A    between atoms: C8_10  and  O1_11 
REMARK    2  A    between atoms: N2_13  and  N3_14 
REMARK    3  A    between atoms: C10_15  and  C11_16 
ROOT
HETATM    1  C1  UNL     1      22.575  -0.797  53.195  1.00  0.00     0.070 C 
HETATM    2  C2  UNL     1      22.356   0.590  52.820  1.00  0.00     0.028 C 
HETATM    3  C3  UNL     1      21.388   1.473  52.675  1.00  0.00     0.026 C 
HETATM    4  C4  UNL     1      20.583   2.654  52.424  1.00  0.00    -0.002 C 
HETATM    5  C5  UNL     1      20.849   3.892  52.029  1.00  0.00    -0.020 C 
HETATM    6  C6  UNL     1      21.409   5.148  51.592  1.00  0.00     0.093 C 
HETATM    7  C7  UNL     1      22.853   5.242  51.345  1.00  0.00     0.071 A 
HETATM    8  S1  UNL     1      24.181   6.375  51.014  1.00  0.00    -0.079 SA
HETATM    9  N1  UNL     1      24.066   4.748  51.158  1.00  0.00    -0.271 N 
HETATM   10  C8  UNL     1      24.077   3.278  51.200  1.00  0.00     0.156 C 
HETATM   11  C9  UNL     1      23.975   2.041  51.664  1.00  0.00     0.218 C 
HETATM   12  N2  UNL     1      23.751   0.960  52.585  1.00  0.00    -0.259 N 
HETATM   13  H9  UNL     1      23.768   7.495  50.273  1.00  0.00     0.120 HD
ENDROOT
BRANCH  12  14
HETATM   14  N3  UNL     1      24.981   0.543  53.034  1.00  0.00    -0.183 NA
HETATM   15  C10 UNL     1      26.006   0.316  52.305  1.00  0.00     0.152 C 
BRANCH  15  16
HETATM   16  C11 UNL     1      27.295  -0.126  52.820  1.00  0.00     0.005 A 
HETATM   17  C12 UNL     1      27.576  -1.413  52.908  1.00  0.00     0.147 A 
HETATM   18  O2  UNL     1      28.778  -1.918  53.388  1.00  0.00    -0.358 OA
HETATM   19  C13 UNL     1      29.828  -1.051  53.816  1.00  0.00     0.202 A 
HETATM   20  C14 UNL     1      29.403   0.374  53.674  1.00  0.00     0.000 A 
HETATM   21  C15 UNL     1      28.278   0.864  53.233  1.00  0.00     0.013 A 
ENDBRANCH  15  16
ENDBRANCH  12  14
BRANCH  10  22
HETATM   22  O1  UNL     1      24.381   2.509  50.082  1.00  0.00    -0.347 OA
HETATM   23  H10 UNL     1      24.361   1.499  50.066  1.00  0.00     0.219 HD
ENDBRANCH  10  22
TORSDOF 3
ENDMDL
MODEL 3
REMARK VINA RESULT:      -7.4      2.465      6.721
REMARK  3 active torsions:
REMARK  status: ('A' for Active; 'I' for Inactive)
REMARK    1  A    between atoms: C8_10  and  O1_11 
REMARK    2  A    between atoms: N2_13  and  N3_14 
REMARK    3  A    between atoms: C10_15  and  C11_16 
ROOT
HETATM    1  C1  UNL     1      26.685   1.253  51.850  1.00  0.00     0.070 C 
HETATM    2  C2  UNL     1      26.159   2.432  51.183  1.00  0.00     0.028 C 
HETATM    3  C3  UNL     1      26.471   3.305  50.245  1.00  0.00     0.026 C 
HETATM    4  C4  UNL     1      26.506   4.401  49.294  1.00  0.00    -0.002 C 
HETATM    5  C5  UNL     1      25.679   5.392  48.989  1.00  0.00    -0.020 C 
HETATM    6  C6  UNL     1      24.614   6.357  48.860  1.00  0.00     0.093 C 
HETATM    7  C7  UNL     1      23.452   6.264  49.753  1.00  0.00     0.071 A 
HETATM    8  S1  UNL     1      21.817   6.896  50.049  1.00  0.00    -0.079 SA
HETATM    9  N1  UNL     1      22.793   5.824  50.812  1.00  0.00    -0.271 N 
HETATM   10  C8  UNL     1      23.600   4.896  51.618  1.00  0.00     0.156 C 
HETATM   11  C9  UNL     1      24.281   3.815  51.971  1.00  0.00     0.218 C 
HETATM   12  N2  UNL     1      24.879   2.511  51.885  1.00  0.00    -0.259 N 
HETATM   13  H9  UNL     1      21.672   8.236  49.651  1.00  0.00     0.120 HD
ENDROOT
BRANCH  12  14
HETATM   14  N3  UNL     1      24.034   1.630  52.517  1.00  0.00    -0.183 NA
HETATM   15  C10 UNL     1      22.916   1.210  52.065  1.00  0.00     0.152 C 
BRANCH  15  16
HETATM   16  C11 UNL     1      22.048   0.275  52.768  1.00  0.00     0.005 A 
HETATM   17  C12 UNL     1      20.737   0.344  52.630  1.00  0.00     0.147 A 
HETATM   18  O2  UNL     1      19.840  -0.507  53.264  1.00  0.00    -0.358 OA
HETATM   19  C13 UNL     1      20.292  -1.555  54.121  1.00  0.00     0.202 A 
HETATM   20  C14 UNL     1      21.783  -1.539  54.205  1.00  0.00     0.000 A 
HETATM   21  C15 UNL     1      22.638  -0.745  53.623  1.00  0.00     0.013 A 
ENDBRANCH  15  16
ENDBRANCH  12  14
BRANCH  10  22
HETATM   22  O1  UNL     1      24.013   5.206  52.909  1.00  0.00    -0.347 OA
HETATM   23  H10 UNL     1      24.445   4.546  53.540  1.00  0.00     0.219 HD
ENDBRANCH  10  22
TORSDOF 3
ENDMDL
MODEL 4
REMARK VINA RESULT:      -7.3      2.403      3.343
REMARK  3 active torsions:
REMARK  status: ('A' for Active; 'I' for Inactive)
REMARK    1  A    between atoms: C8_10  and  O1_11 
REMARK    2  A    between atoms: N2_13  and  N3_14 
REMARK    3  A    between atoms: C10_15  and  C11_16 
ROOT
HETATM    1  C1  UNL     1      22.037   3.468  48.823  1.00  0.00     0.070 C 
HETATM    2  C2  UNL     1      22.349   2.527  49.886  1.00  0.00     0.028 C 
HETATM    3  C3  UNL     1      21.832   1.499  50.529  1.00  0.00     0.026 C 
HETATM    4  C4  UNL     1      21.563   0.378  51.411  1.00  0.00    -0.002 C 
HETATM    5  C5  UNL     1      22.236  -0.219  52.385  1.00  0.00    -0.020 C 
HETATM    6  C6  UNL     1      23.170  -0.674  53.388  1.00  0.00     0.093 C 
HETATM    7  C7  UNL     1      24.437   0.045  53.565  1.00  0.00     0.071 A 
HETATM    8  S1  UNL     1      26.021  -0.017  54.370  1.00  0.00    -0.079 SA
HETATM    9  N1  UNL     1      25.266   1.062  53.395  1.00  0.00    -0.271 N 
HETATM   10  C8  UNL     1      24.669   2.132  52.583  1.00  0.00     0.156 C 
HETATM   11  C9  UNL     1      24.154   2.771  51.541  1.00  0.00     0.218 C 
HETATM   12  N2  UNL     1      23.691   3.013  50.202  1.00  0.00    -0.259 N 
HETATM   13  H9  UNL     1      25.973  -0.670  55.613  1.00  0.00     0.120 HD
ENDROOT
BRANCH  12  14
HETATM   14  N3  UNL     1      24.696   3.669  49.533  1.00  0.00    -0.183 NA
HETATM   15  C10 UNL     1      25.297   4.724  49.933  1.00  0.00     0.152 C 
BRANCH  15  16
HETATM   16  C11 UNL     1      26.360   5.390  49.193  1.00  0.00     0.005 A 
HETATM   17  C12 UNL     1      26.214   6.637  48.785  1.00  0.00     0.147 A 
HETATM   18  O2  UNL     1      27.176   7.344  48.075  1.00  0.00    -0.358 OA
HETATM   19  C13 UNL     1      28.432   6.755  47.742  1.00  0.00     0.202 A 
HETATM   20  C14 UNL     1      28.488   5.351  48.247  1.00  0.00     0.000 A 
HETATM   21  C15 UNL     1      27.594   4.671  48.909  1.00  0.00     0.013 A 
ENDBRANCH  15  16
ENDBRANCH  12  14
BRANCH  10  22
HETATM   22  O1  UNL     1      24.390   3.389  53.106  1.00  0.00    -0.347 OA
HETATM   23  H10 UNL     1      24.782   4.251  52.753  1.00  0.00     0.219 HD
ENDBRANCH  10  22
TORSDOF 3
ENDMDL
MODEL 5
REMARK VINA RESULT:      -7.1      2.556      3.597
REMARK  3 active torsions:
REMARK  status: ('A' for Active; 'I' for Inactive)
REMARK    1  A    between atoms: C8_10  and  O1_11 
REMARK    2  A    between atoms: N2_13  and  N3_14 
REMARK    3  A    between atoms: C10_15  and  C11_16 
ROOT
HETATM    1  C1  UNL     1      21.676   6.341  50.841  1.00  0.00     0.070 C 
HETATM    2  C2  UNL     1      21.766   4.990  51.367  1.00  0.00     0.028 C 
HETATM    3  C3  UNL     1      21.002   3.990  51.762  1.00  0.00     0.026 C 
HETATM    4  C4  UNL     1      20.467   2.735  52.257  1.00  0.00    -0.002 C 
HETATM    5  C5  UNL     1      21.005   1.607  52.702  1.00  0.00    -0.020 C 
HETATM    6  C6  UNL     1      21.838   0.512  53.135  1.00  0.00     0.093 C 
HETATM    7  C7  UNL     1      23.298   0.672  53.120  1.00  0.00     0.071 A 
HETATM    8  S1  UNL     1      24.838  -0.196  53.299  1.00  0.00    -0.079 SA
HETATM    9  N1  UNL     1      24.420   1.367  53.040  1.00  0.00    -0.271 N 
HETATM   10  C8  UNL     1      24.170   2.806  52.871  1.00  0.00     0.156 C 
HETATM   11  C9  UNL     1      23.780   3.950  52.328  1.00  0.00     0.218 C 
HETATM   12  N2  UNL     1      23.223   4.870  51.374  1.00  0.00    -0.259 N 
HETATM   13  H9  UNL     1      24.753  -1.274  54.197  1.00  0.00     0.120 HD
ENDROOT
BRANCH  12  14
HETATM   14  N3  UNL     1      24.271   5.418  50.674  1.00  0.00    -0.183 NA
HETATM   15  C10 UNL     1      25.074   4.784  49.909  1.00  0.00     0.152 C 
BRANCH  15  16
HETATM   16  C11 UNL     1      26.174   5.404  49.184  1.00  0.00     0.005 A 
HETATM   17  C12 UNL     1      26.071   6.644  48.741  1.00  0.00     0.147 A 
HETATM   18  O2  UNL     1      27.070   7.308  48.041  1.00  0.00    -0.358 OA
HETATM   19  C13 UNL     1      28.321   6.681  47.760  1.00  0.00     0.202 A 
HETATM   20  C14 UNL     1      28.327   5.289  48.303  1.00  0.00     0.000 A 
HETATM   21  C15 UNL     1      27.397   4.649  48.954  1.00  0.00     0.013 A 
ENDBRANCH  15  16
ENDBRANCH  12  14
BRANCH  10  22
HETATM   22  O1  UNL     1      24.518   3.735  53.843  1.00  0.00    -0.347 OA
HETATM   23  H10 UNL     1      24.257   4.711  53.815  1.00  0.00     0.219 HD
ENDBRANCH  10  22
TORSDOF 3
ENDMDL
MODEL 6
REMARK VINA RESULT:      -7.0      3.147      5.564
REMARK  3 active torsions:
REMARK  status: ('A' for Active; 'I' for Inactive)
REMARK    1  A    between atoms: C8_10  and  O1_11 
REMARK    2  A    between atoms: N2_13  and  N3_14 
REMARK    3  A    between atoms: C10_15  and  C11_16 
ROOT
HETATM    1  C1  UNL     1      22.367   0.293  52.187  1.00  0.00     0.070 C 
HETATM    2  C2  UNL     1      22.426   1.719  51.913  1.00  0.00     0.028 C 
HETATM    3  C3  UNL     1      21.659   2.791  51.887  1.00  0.00     0.026 C 
HETATM    4  C4  UNL     1      21.109   4.128  51.762  1.00  0.00    -0.002 C 
HETATM    5  C5  UNL     1      21.608   5.310  51.427  1.00  0.00    -0.020 C 
HETATM    6  C6  UNL     1      22.396   6.453  51.031  1.00  0.00     0.093 C 
HETATM    7  C7  UNL     1      23.813   6.264  50.696  1.00  0.00     0.071 A 
HETATM    8  S1  UNL     1      25.331   7.121  50.348  1.00  0.00    -0.079 SA
HETATM    9  N1  UNL     1      24.883   5.546  50.399  1.00  0.00    -0.271 N 
HETATM   10  C8  UNL     1      24.587   4.106  50.350  1.00  0.00     0.156 C 
HETATM   11  C9  UNL     1      24.251   2.886  50.743  1.00  0.00     0.218 C 
HETATM   12  N2  UNL     1      23.853   1.810  51.610  1.00  0.00    -0.259 N 
HETATM   13  H9  UNL     1      25.124   8.353  49.706  1.00  0.00     0.120 HD
ENDROOT
BRANCH  12  14
HETATM   14  N3  UNL     1      24.990   1.116  51.949  1.00  0.00    -0.183 NA
HETATM   15  C10 UNL     1      26.004   1.594  52.563  1.00  0.00     0.152 C 
BRANCH  15  16
HETATM   16  C11 UNL     1      27.192   0.823  52.904  1.00  0.00     0.005 A 
HETATM   17  C12 UNL     1      28.306   1.433  53.265  1.00  0.00     0.147 A 
HETATM   18  O2  UNL     1      29.480   0.774  53.606  1.00  0.00    -0.358 OA
HETATM   19  C13 UNL     1      29.559  -0.651  53.604  1.00  0.00     0.202 A 
HETATM   20  C14 UNL     1      28.250  -1.233  53.181  1.00  0.00     0.000 A 
HETATM   21  C15 UNL     1      27.141  -0.630  52.852  1.00  0.00     0.013 A 
ENDBRANCH  15  16
ENDBRANCH  12  14
BRANCH  10  22
HETATM   22  O1  UNL     1      24.664   3.376  49.170  1.00  0.00    -0.347 OA
HETATM   23  H10 UNL     1      25.506   2.931  48.832  1.00  0.00     0.219 HD
ENDBRANCH  10  22
TORSDOF 3
ENDMDL
MODEL 7
REMARK VINA RESULT:      -7.0      1.394      1.749
REMARK  3 active torsions:
REMARK  status: ('A' for Active; 'I' for Inactive)
REMARK    1  A    between atoms: C8_10  and  O1_11 
REMARK    2  A    between atoms: N2_13  and  N3_14 
REMARK    3  A    between atoms: C10_15  and  C11_16 
ROOT
HETATM    1  C1  UNL     1      25.383   0.528  53.305  1.00  0.00     0.070 C 
HETATM    2  C2  UNL     1      23.947   0.307  53.265  1.00  0.00     0.028 C 
HETATM    3  C3  UNL     1      23.007  -0.427  53.827  1.00  0.00     0.026 C 
HETATM    4  C4  UNL     1      21.764  -1.058  54.230  1.00  0.00    -0.002 C 
HETATM    5  C5  UNL     1      20.496  -0.932  53.862  1.00  0.00    -0.020 C 
HETATM    6  C6  UNL     1      19.218  -0.598  53.281  1.00  0.00     0.093 C 
HETATM    7  C7  UNL     1      19.160   0.396  52.202  1.00  0.00     0.071 A 
HETATM    8  S1  UNL     1      18.055   1.381  51.217  1.00  0.00    -0.079 SA
HETATM    9  N1  UNL     1      19.679   1.168  51.262  1.00  0.00    -0.271 N 
HETATM   10  C8  UNL     1      21.138   1.014  51.163  1.00  0.00     0.156 C 
HETATM   11  C9  UNL     1      22.424   1.058  51.484  1.00  0.00     0.218 C 
HETATM   12  N2  UNL     1      23.615   1.304  52.250  1.00  0.00    -0.259 N 
HETATM   13  H9  UNL     1      16.821   0.749  50.989  1.00  0.00     0.120 HD
ENDROOT
BRANCH  12  14
HETATM   14  N3  UNL     1      24.152   2.487  51.802  1.00  0.00    -0.183 NA
HETATM   15  C10 UNL     1      24.522   2.735  50.604  1.00  0.00     0.152 C 
BRANCH  15  16
HETATM   16  C11 UNL     1      25.088   4.005  50.169  1.00  0.00     0.005 A 
HETATM   17  C12 UNL     1      24.526   5.146  50.524  1.00  0.00     0.147 A 
HETATM   18  O2  UNL     1      25.000   6.398  50.153  1.00  0.00    -0.358 OA
HETATM   19  C13 UNL     1      26.172   6.539  49.351  1.00  0.00     0.202 A 
HETATM   20  C14 UNL     1      26.722   5.193  49.009  1.00  0.00     0.000 A 
HETATM   21  C15 UNL     1      26.286   4.010  49.343  1.00  0.00     0.013 A 
ENDBRANCH  15  16
ENDBRANCH  12  14
BRANCH  10  22
HETATM   22  O1  UNL     1      21.749   0.474  50.037  1.00  0.00    -0.347 OA
HETATM   23  H10 UNL     1      21.955  -0.508  49.920  1.00  0.00     0.219 HD
ENDBRANCH  10  22
TORSDOF 3
ENDMDL
MODEL 8
REMARK VINA RESULT:      -6.9      5.574     10.094
REMARK  3 active torsions:
REMARK  status: ('A' for Active; 'I' for Inactive)
REMARK    1  A    between atoms: C8_10  and  O1_11 
REMARK    2  A    between atoms: N2_13  and  N3_14 
REMARK    3  A    between atoms: C10_15  and  C11_16 
ROOT
HETATM    1  C1  UNL     1      31.694   4.179  47.332  1.00  0.00     0.070 C 
HETATM    2  C2  UNL     1      31.921   5.613  47.262  1.00  0.00     0.028 C 
HETATM    3  C3  UNL     1      32.700   6.500  46.676  1.00  0.00     0.026 C 
HETATM    4  C4  UNL     1      33.368   7.703  46.214  1.00  0.00    -0.002 C 
HETATM    5  C5  UNL     1      33.223   8.998  46.458  1.00  0.00    -0.020 C 
HETATM    6  C6  UNL     1      32.854  10.322  46.897  1.00  0.00     0.093 C 
HETATM    7  C7  UNL     1      31.782  10.476  47.889  1.00  0.00     0.071 A 
HETATM    8  S1  UNL     1      30.733  11.662  48.695  1.00  0.00    -0.079 SA
HETATM    9  N1  UNL     1      30.937  10.041  48.809  1.00  0.00    -0.271 N 
HETATM   10  C8  UNL     1      31.075   8.597  49.048  1.00  0.00     0.156 C 
HETATM   11  C9  UNL     1      31.047   7.288  48.840  1.00  0.00     0.218 C 
HETATM   12  N2  UNL     1      30.852   6.033  48.166  1.00  0.00    -0.259 N 
HETATM   13  H9  UNL     1      31.353  12.912  48.859  1.00  0.00     0.120 HD
ENDROOT
BRANCH  12  14
HETATM   14  N3  UNL     1      29.635   5.537  48.569  1.00  0.00    -0.183 NA
HETATM   15  C10 UNL     1      28.491   5.979  48.211  1.00  0.00     0.152 C 
BRANCH  15  16
HETATM   16  C11 UNL     1      27.222   5.424  48.662  1.00  0.00     0.005 A 
HETATM   17  C12 UNL     1      26.123   6.155  48.636  1.00  0.00     0.147 A 
HETATM   18  O2  UNL     1      24.875   5.704  49.048  1.00  0.00    -0.358 OA
HETATM   19  C13 UNL     1      24.690   4.372  49.526  1.00  0.00     0.202 A 
HETATM   20  C14 UNL     1      25.992   3.639  49.514  1.00  0.00     0.000 A 
HETATM   21  C15 UNL     1      27.171   4.049  49.138  1.00  0.00     0.013 A 
ENDBRANCH  15  16
ENDBRANCH  12  14
BRANCH  10  22
HETATM   22  O1  UNL     1      31.524   8.088  50.261  1.00  0.00    -0.347 OA
HETATM   23  H10 UNL     1      32.386   7.573  50.376  1.00  0.00     0.219 HD
ENDBRANCH  10  22
TORSDOF 3
ENDMDL
MODEL 9
REMARK VINA RESULT:      -6.9      2.626      5.031
REMARK  3 active torsions:
REMARK  status: ('A' for Active; 'I' for Inactive)
REMARK    1  A    between atoms: C8_10  and  O1_11 
REMARK    2  A    between atoms: N2_13  and  N3_14 
REMARK    3  A    between atoms: C10_15  and  C11_16 
ROOT
HETATM    1  C1  UNL     1      25.633   3.902  49.373  1.00  0.00     0.070 C 
HETATM    2  C2  UNL     1      24.308   3.308  49.424  1.00  0.00     0.028 C 
HETATM    3  C3  UNL     1      23.236   3.125  48.677  1.00  0.00     0.026 C 
HETATM    4  C4  UNL     1      21.937   2.766  48.139  1.00  0.00    -0.002 C 
HETATM    5  C5  UNL     1      20.876   2.133  48.620  1.00  0.00    -0.020 C 
HETATM    6  C6  UNL     1      19.877   1.423  49.383  1.00  0.00     0.093 C 
HETATM    7  C7  UNL     1      20.156   1.076  50.782  1.00  0.00     0.071 A 
HETATM    8  S1  UNL     1      19.569   0.134  52.170  1.00  0.00    -0.079 SA
HETATM    9  N1  UNL     1      20.829   1.151  51.918  1.00  0.00    -0.271 N 
HETATM   10  C8  UNL     1      21.956   2.092  51.832  1.00  0.00     0.156 C 
HETATM   11  C9  UNL     1      23.111   2.627  51.465  1.00  0.00     0.218 C 
HETATM   12  N2  UNL     1      24.370   2.785  50.787  1.00  0.00    -0.259 N 
HETATM   13  H9  UNL     1      18.169   0.027  52.202  1.00  0.00     0.120 HD
ENDROOT
BRANCH  12  14
HETATM   14  N3  UNL     1      25.355   2.371  51.652  1.00  0.00    -0.183 NA
HETATM   15  C10 UNL     1      25.638   1.158  51.938  1.00  0.00     0.152 C 
BRANCH  15  16
HETATM   16  C11 UNL     1      26.692   0.760  52.861  1.00  0.00     0.005 A 
HETATM   17  C12 UNL     1      27.020   1.535  53.878  1.00  0.00     0.147 A 
HETATM   18  O2  UNL     1      28.011   1.232  54.803  1.00  0.00    -0.358 OA
HETATM   19  C13 UNL     1      28.754   0.016  54.721  1.00  0.00     0.202 A 
HETATM   20  C14 UNL     1      28.304  -0.778  53.539  1.00  0.00     0.000 A 
HETATM   21  C15 UNL     1      27.381  -0.505  52.659  1.00  0.00     0.013 A 
ENDBRANCH  15  16
ENDBRANCH  12  14
BRANCH  10  22
HETATM   22  O1  UNL     1      21.995   3.266  52.575  1.00  0.00    -0.347 OA
HETATM   23  H10 UNL     1      21.434   4.082  52.376  1.00  0.00     0.219 HD
ENDBRANCH  10  22
TORSDOF 3
ENDMDL
