MODEL 1
REMARK VINA RESULT:      -8.6      0.000      0.000
REMARK  7 active torsions:
REMARK  status: ('A' for Active; 'I' for Inactive)
REMARK    1  A    between atoms: O1_2  and  C2_3 
REMARK    2  A    between atoms: N2_8  and  C6_9 
REMARK    3  A    between atoms: C6_9  and  N3_10 
REMARK    4  A    between atoms: N3_10  and  C7_11 
REMARK    5  A    between atoms: C9_13  and  C10_14 
REMARK    6  A    between atoms: C10_14  and  C11_15 
REMARK    7  A    between atoms: C20_24  and  N4_25 
REMARK       I    between atoms: N4_25  and  C21_26 
ROOT
HETATM    1  C2  UNL     1      23.400   5.476  50.683  1.00  0.00     0.070 C 
HETATM    2  C3  UNL     1      22.232   5.624  51.257  1.00  0.00     0.053 C 
HETATM    3  C4  UNL     1      21.210   4.595  51.546  1.00  0.00     0.121 C 
HETATM    4  N1  UNL     1      21.190   3.370  51.080  1.00  0.00    -0.246 NA
HETATM    5  C5  UNL     1      22.128   2.773  50.210  1.00  0.00     0.124 C 
HETATM    6  N2  UNL     1      22.254   1.491  50.164  1.00  0.00    -0.255 NA
HETATM    7  C19 UNL     1      23.036   3.508  49.292  1.00  0.00     0.112 C 
HETATM    8  C20 UNL     1      24.044   4.236  50.156  1.00  0.00     0.148 C 
ENDROOT
BRANCH   6   9
HETATM    9  C6  UNL     1      21.460   0.597  50.983  1.00  0.00     0.272 C 
BRANCH   9  10
HETATM   10  N3  UNL     1      21.954   0.577  52.346  1.00  0.00    -0.375 N 
HETATM   11  H8  UNL     1      21.354   0.667  53.219  1.00  0.00     0.161 HD
BRANCH  10  12
HETATM   12  C7  UNL     1      23.297   0.437  52.733  1.00  0.00     0.003 A 
HETATM   13  C8  UNL     1      24.181  -0.455  53.011  1.00  0.00     0.003 A 
HETATM   14  C9  UNL     1      25.218   0.501  53.278  1.00  0.00     0.020 A 
HETATM   15  C18 UNL     1      24.210   1.549  52.962  1.00  0.00     0.065 A 
BRANCH  14  16
HETATM   16  C10 UNL     1      26.381   0.547  52.312  1.00  0.00     0.048 C 
BRANCH  16  17
HETATM   17  C11 UNL     1      27.632   0.008  52.857  1.00  0.00    -0.052 A 
HETATM   18  C12 UNL     1      27.844  -1.354  52.809  1.00  0.00     0.007 A 
HETATM   19  C13 UNL     1      28.988  -1.963  53.296  1.00  0.00     0.001 A 
HETATM   20  C14 UNL     1      29.916  -1.089  53.841  1.00  0.00     0.001 A 
HETATM   21  C15 UNL     1      29.767   0.284  53.920  1.00  0.00     0.007 A 
HETATM   22  C16 UNL     1      28.588   0.821  53.409  1.00  0.00    -0.056 A 
HETATM   23  C17 UNL     1      28.442   2.285  53.501  1.00  0.00     0.049 C 
ENDBRANCH  16  17
ENDBRANCH  14  16
ENDBRANCH  10  12
ENDBRANCH   9  10
ENDBRANCH   6   9
BRANCH   8  24
HETATM   24  N4  UNL     1      25.264   4.512  49.465  1.00  0.00    -0.350 N 
HETATM   25  C21 UNL     1      26.596   4.068  49.656  1.00  0.00     0.214 C 
HETATM   26  C22 UNL     1      27.536   4.647  48.659  1.00  0.00     0.117 C 
HETATM   27  O2  UNL     1      26.857   3.269  50.597  1.00  0.00    -0.274 OA
HETATM   28  H25 UNL     1      24.935   5.158  48.737  1.00  0.00     0.163 HD
ENDBRANCH   8  24
BRANCH   1  29
HETATM   29  O1  UNL     1      24.191   6.603  50.520  1.00  0.00    -0.358 OA
HETATM   30  C1  UNL     1      23.659   7.900  50.675  1.00  0.00     0.209 C 
ENDBRANCH   1  29
TORSDOF 7
ENDMDL
MODEL 2
REMARK VINA RESULT:      -7.8      3.687      6.338
REMARK  7 active torsions:
REMARK  status: ('A' for Active; 'I' for Inactive)
REMARK    1  A    between atoms: O1_2  and  C2_3 
REMARK    2  A    between atoms: N2_8  and  C6_9 
REMARK    3  A    between atoms: C6_9  and  N3_10 
REMARK    4  A    between atoms: N3_10  and  C7_11 
REMARK    5  A    between atoms: C9_13  and  C10_14 
REMARK    6  A    between atoms: C10_14  and  C11_15 
REMARK    7  A    between atoms: C20_24  and  N4_25 
REMARK       I    between atoms: N4_25  and  C21_26 
ROOT
HETATM    1  C2  UNL     1      29.652   8.567  48.826  1.00  0.00     0.070 C 
HETATM    2  C3  UNL     1      28.484   9.110  49.058  1.00  0.00     0.053 C 
HETATM    3  C4  UNL     1      27.174   8.443  49.230  1.00  0.00     0.121 C 
HETATM    4  N1  UNL     1      26.902   7.190  48.960  1.00  0.00    -0.246 NA
HETATM    5  C5  UNL     1      27.788   6.214  48.452  1.00  0.00     0.124 C 
HETATM    6  N2  UNL     1      27.550   4.961  48.629  1.00  0.00    -0.255 NA
HETATM    7  C19 UNL     1      29.033   6.499  47.694  1.00  0.00     0.112 C 
HETATM    8  C20 UNL     1      30.010   7.126  48.666  1.00  0.00     0.148 C 
ENDROOT
BRANCH   6   9
HETATM    9  C6  UNL     1      26.386   4.477  49.344  1.00  0.00     0.272 C 
BRANCH   9  10
HETATM   10  N3  UNL     1      26.781   3.617  50.443  1.00  0.00    -0.375 N 
HETATM   11  H8  UNL     1      27.732   3.620  50.916  1.00  0.00     0.161 HD
BRANCH  10  12
HETATM   12  C7  UNL     1      25.974   2.643  51.057  1.00  0.00     0.003 A 
HETATM   13  C8  UNL     1      26.045   1.576  51.771  1.00  0.00     0.003 A 
HETATM   14  C9  UNL     1      24.623   1.394  51.833  1.00  0.00     0.020 A 
HETATM   15  C18 UNL     1      24.518   2.627  51.005  1.00  0.00     0.065 A 
BRANCH  14  16
HETATM   16  C10 UNL     1      23.960   1.578  53.180  1.00  0.00     0.048 C 
BRANCH  16  17
HETATM   17  C11 UNL     1      22.911   0.594  53.469  1.00  0.00    -0.052 A 
HETATM   18  C12 UNL     1      21.626   0.850  53.039  1.00  0.00     0.007 A 
HETATM   19  C13 UNL     1      20.564  -0.012  53.260  1.00  0.00     0.001 A 
HETATM   20  C14 UNL     1      20.897  -1.167  53.953  1.00  0.00     0.001 A 
HETATM   21  C15 UNL     1      22.164  -1.484  54.411  1.00  0.00     0.007 A 
HETATM   22  C16 UNL     1      23.177  -0.566  54.150  1.00  0.00    -0.056 A 
HETATM   23  C17 UNL     1      24.521  -0.917  54.644  1.00  0.00     0.049 C 
ENDBRANCH  16  17
ENDBRANCH  14  16
ENDBRANCH  10  12
ENDBRANCH   9  10
ENDBRANCH   6   9
BRANCH   8  24
HETATM   24  N4  UNL     1      31.371   6.947  48.272  1.00  0.00    -0.350 N 
HETATM   25  C21 UNL     1      32.233   5.822  48.284  1.00  0.00     0.214 C 
HETATM   26  C22 UNL     1      33.589   6.140  47.762  1.00  0.00     0.117 C 
HETATM   27  O2  UNL     1      31.805   4.714  48.708  1.00  0.00    -0.274 OA
HETATM   28  H25 UNL     1      31.609   7.893  47.951  1.00  0.00     0.163 HD
ENDBRANCH   8  24
BRANCH   1  29
HETATM   29  O1  UNL     1      30.747   9.409  48.703  1.00  0.00    -0.358 OA
HETATM   30  C1  UNL     1      30.690  10.752  49.128  1.00  0.00     0.209 C 
ENDBRANCH   1  29
TORSDOF 7
ENDMDL
MODEL 3
REMARK VINA RESULT:      -7.6      4.374      6.583
REMARK  7 active torsions:
REMARK  status: ('A' for Active; 'I' for Inactive)
REMARK    1  A    between atoms: O1_2  and  C2_3 
REMARK    2  A    between atoms: N2_8  and  C6_9 
REMARK    3  A    between atoms: C6_9  and  N3_10 
REMARK    4  A    between atoms: N3_10  and  C7_11 
REMARK    5  A    between atoms: C9_13  and  C10_14 
REMARK    6  A    between atoms: C10_14  and  C11_15 
REMARK    7  A    between atoms: C20_24  and  N4_25 
REMARK       I    between atoms: N4_25  and  C21_26 
ROOT
HETATM    1  C2  UNL     1      15.935  -0.391  52.002  1.00  0.00     0.070 C 
HETATM    2  C3  UNL     1      16.201  -1.549  52.553  1.00  0.00     0.053 C 
HETATM    3  C4  UNL     1      17.451  -1.993  53.208  1.00  0.00     0.121 C 
HETATM    4  N1  UNL     1      18.609  -1.380  53.164  1.00  0.00    -0.246 NA
HETATM    5  C5  UNL     1      18.912  -0.178  52.489  1.00  0.00     0.124 C 
HETATM    6  N2  UNL     1      19.918   0.540  52.854  1.00  0.00    -0.255 NA
HETATM    7  C19 UNL     1      18.151   0.377  51.341  1.00  0.00     0.112 C 
HETATM    8  C20 UNL     1      16.804   0.816  51.874  1.00  0.00     0.148 C 
ENDROOT
BRANCH   6   9
HETATM    9  C6  UNL     1      20.786   0.172  53.955  1.00  0.00     0.272 C 
BRANCH   9  10
HETATM   10  N3  UNL     1      21.909  -0.614  53.482  1.00  0.00    -0.375 N 
HETATM   11  H8  UNL     1      21.842  -1.575  53.034  1.00  0.00     0.161 HD
BRANCH  10  12
HETATM   12  C7  UNL     1      23.261  -0.235  53.540  1.00  0.00     0.003 A 
HETATM   13  C8  UNL     1      24.399  -0.620  53.998  1.00  0.00     0.003 A 
HETATM   14  C9  UNL     1      25.111   0.515  53.483  1.00  0.00     0.020 A 
HETATM   15  C18 UNL     1      23.803   0.979  52.945  1.00  0.00     0.065 A 
BRANCH  14  16
HETATM   16  C10 UNL     1      26.104   0.261  52.370  1.00  0.00     0.048 C 
BRANCH  16  17
HETATM   17  C11 UNL     1      27.440  -0.127  52.840  1.00  0.00    -0.052 A 
HETATM   18  C12 UNL     1      27.784  -1.463  52.828  1.00  0.00     0.007 A 
HETATM   19  C13 UNL     1      29.016  -1.934  53.250  1.00  0.00     0.001 A 
HETATM   20  C14 UNL     1      29.888  -0.948  53.688  1.00  0.00     0.001 A 
HETATM   21  C15 UNL     1      29.607   0.406  53.725  1.00  0.00     0.007 A 
HETATM   22  C16 UNL     1      28.346   0.800  53.285  1.00  0.00    -0.056 A 
HETATM   23  C17 UNL     1      28.059   2.245  53.330  1.00  0.00     0.049 C 
ENDBRANCH  16  17
ENDBRANCH  14  16
ENDBRANCH  10  12
ENDBRANCH   9  10
ENDBRANCH   6   9
BRANCH   8  24
HETATM   24  N4  UNL     1      16.200   1.834  51.072  1.00  0.00    -0.350 N 
HETATM   25  C21 UNL     1      16.107   3.241  51.219  1.00  0.00     0.214 C 
HETATM   26  C22 UNL     1      15.364   3.880  50.100  1.00  0.00     0.117 C 
HETATM   27  O2  UNL     1      16.631   3.798  52.222  1.00  0.00    -0.274 OA
HETATM   28  H25 UNL     1      15.815   1.275  50.302  1.00  0.00     0.163 HD
ENDBRANCH   8  24
BRANCH   1  29
HETATM   29  O1  UNL     1      14.677  -0.210  51.446  1.00  0.00    -0.358 OA
HETATM   30  C1  UNL     1      13.517  -0.688  52.088  1.00  0.00     0.209 C 
ENDBRANCH   1  29
TORSDOF 7
ENDMDL
MODEL 4
REMARK VINA RESULT:      -7.6      2.891      5.268
REMARK  7 active torsions:
REMARK  status: ('A' for Active; 'I' for Inactive)
REMARK    1  A    between atoms: O1_2  and  C2_3 
REMARK    2  A    between atoms: N2_8  and  C6_9 
REMARK    3  A    between atoms: C6_9  and  N3_10 
REMARK    4  A    between atoms: N3_10  and  C7_11 
REMARK    5  A    between atoms: C9_13  and  C10_14 
REMARK    6  A    between atoms: C10_14  and  C11_15 
REMARK    7  A    between atoms: C20_24  and  N4_25 
REMARK       I    between atoms: N4_25  and  C21_26 
ROOT
HETATM    1  C2  UNL     1      27.571   6.801  48.544  1.00  0.00     0.070 C 
HETATM    2  C3  UNL     1      27.149   5.566  48.657  1.00  0.00     0.053 C 
HETATM    3  C4  UNL     1      25.853   5.078  49.176  1.00  0.00     0.121 C 
HETATM    4  N1  UNL     1      24.964   5.785  49.830  1.00  0.00    -0.246 NA
HETATM    5  C5  UNL     1      25.049   7.151  50.178  1.00  0.00     0.124 C 
HETATM    6  N2  UNL     1      23.983   7.831  50.422  1.00  0.00    -0.255 NA
HETATM    7  C19 UNL     1      26.309   7.929  50.299  1.00  0.00     0.112 C 
HETATM    8  C20 UNL     1      26.876   8.073  48.902  1.00  0.00     0.148 C 
ENDROOT
BRANCH   6   9
HETATM    9  C6  UNL     1      22.654   7.254  50.356  1.00  0.00     0.272 C 
BRANCH   9  10
HETATM   10  N3  UNL     1      22.332   6.568  51.592  1.00  0.00    -0.375 N 
HETATM   11  H8  UNL     1      21.999   7.035  52.486  1.00  0.00     0.161 HD
BRANCH  10  12
HETATM   12  C7  UNL     1      22.406   5.181  51.807  1.00  0.00     0.003 A 
HETATM   13  C8  UNL     1      21.783   4.085  51.555  1.00  0.00     0.003 A 
HETATM   14  C9  UNL     1      22.735   3.260  52.242  1.00  0.00     0.020 A 
HETATM   15  C18 UNL     1      23.472   4.517  52.546  1.00  0.00     0.065 A 
BRANCH  14  16
HETATM   16  C10 UNL     1      23.573   2.322  51.401  1.00  0.00     0.048 C 
BRANCH  16  17
HETATM   17  C11 UNL     1      24.264   1.283  52.173  1.00  0.00    -0.052 A 
HETATM   18  C12 UNL     1      23.520   0.465  52.998  1.00  0.00     0.007 A 
HETATM   19  C13 UNL     1      24.074  -0.543  53.769  1.00  0.00     0.001 A 
HETATM   20  C14 UNL     1      25.450  -0.670  53.645  1.00  0.00     0.001 A 
HETATM   21  C15 UNL     1      26.253   0.115  52.838  1.00  0.00     0.007 A 
HETATM   22  C16 UNL     1      25.621   1.108  52.094  1.00  0.00    -0.056 A 
HETATM   23  C17 UNL     1      26.489   1.938  51.239  1.00  0.00     0.049 C 
ENDBRANCH  16  17
ENDBRANCH  14  16
ENDBRANCH  10  12
ENDBRANCH   9  10
ENDBRANCH   6   9
BRANCH   8  24
HETATM   24  N4  UNL     1      27.729   9.212  48.770  1.00  0.00    -0.350 N 
HETATM   25  C21 UNL     1      27.475  10.606  48.777  1.00  0.00     0.214 C 
HETATM   26  C22 UNL     1      28.715  11.409  48.600  1.00  0.00     0.117 C 
HETATM   27  O2  UNL     1      26.294  11.023  48.926  1.00  0.00    -0.274 OA
HETATM   28  H25 UNL     1      28.644   8.759  48.657  1.00  0.00     0.163 HD
ENDBRANCH   8  24
BRANCH   1  29
HETATM   29  O1  UNL     1      28.838   7.010  48.022  1.00  0.00    -0.358 OA
HETATM   30  C1  UNL     1      29.782   5.965  47.951  1.00  0.00     0.209 C 
ENDBRANCH   1  29
TORSDOF 7
ENDMDL
MODEL 5
REMARK VINA RESULT:      -7.5      1.866      2.387
REMARK  7 active torsions:
REMARK  status: ('A' for Active; 'I' for Inactive)
REMARK    1  A    between atoms: O1_2  and  C2_3 
REMARK    2  A    between atoms: N2_8  and  C6_9 
REMARK    3  A    between atoms: C6_9  and  N3_10 
REMARK    4  A    between atoms: N3_10  and  C7_11 
REMARK    5  A    between atoms: C9_13  and  C10_14 
REMARK    6  A    between atoms: C10_14  and  C11_15 
REMARK    7  A    between atoms: C20_24  and  N4_25 
REMARK       I    between atoms: N4_25  and  C21_26 
ROOT
HETATM    1  C2  UNL     1      22.897   5.285  49.905  1.00  0.00     0.070 C 
HETATM    2  C3  UNL     1      23.207   5.656  51.123  1.00  0.00     0.053 C 
HETATM    3  C4  UNL     1      22.838   5.015  52.404  1.00  0.00     0.121 C 
HETATM    4  N1  UNL     1      21.941   4.074  52.570  1.00  0.00    -0.246 NA
HETATM    5  C5  UNL     1      21.139   3.474  51.573  1.00  0.00     0.124 C 
HETATM    6  N2  UNL     1      20.628   2.307  51.761  1.00  0.00    -0.255 NA
HETATM    7  C19 UNL     1      20.807   4.083  50.259  1.00  0.00     0.112 C 
HETATM    8  C20 UNL     1      22.087   4.117  49.451  1.00  0.00     0.148 C 
ENDROOT
BRANCH   6   9
HETATM    9  C6  UNL     1      20.835   1.547  52.978  1.00  0.00     0.272 C 
BRANCH   9  10
HETATM   10  N3  UNL     1      21.654   0.379  52.719  1.00  0.00    -0.375 N 
HETATM   11  H8  UNL     1      21.309  -0.531  52.291  1.00  0.00     0.161 HD
BRANCH  10  12
HETATM   12  C7  UNL     1      23.027   0.259  52.990  1.00  0.00     0.003 A 
HETATM   13  C8  UNL     1      23.916  -0.599  53.346  1.00  0.00     0.003 A 
HETATM   14  C9  UNL     1      24.996   0.345  53.317  1.00  0.00     0.020 A 
HETATM   15  C18 UNL     1      23.983   1.355  52.903  1.00  0.00     0.065 A 
BRANCH  14  16
HETATM   16  C10 UNL     1      26.051   0.156  52.249  1.00  0.00     0.048 C 
BRANCH  16  17
HETATM   17  C11 UNL     1      27.375  -0.195  52.774  1.00  0.00    -0.052 A 
HETATM   18  C12 UNL     1      27.753  -1.522  52.788  1.00  0.00     0.007 A 
HETATM   19  C13 UNL     1      28.978  -1.959  53.262  1.00  0.00     0.001 A 
HETATM   20  C14 UNL     1      29.807  -0.949  53.726  1.00  0.00     0.001 A 
HETATM   21  C15 UNL     1      29.491   0.398  53.740  1.00  0.00     0.007 A 
HETATM   22  C16 UNL     1      28.240   0.758  53.247  1.00  0.00    -0.056 A 
HETATM   23  C17 UNL     1      27.916   2.195  53.269  1.00  0.00     0.049 C 
ENDBRANCH  16  17
ENDBRANCH  14  16
ENDBRANCH  10  12
ENDBRANCH   9  10
ENDBRANCH   6   9
BRANCH   8  24
HETATM   24  N4  UNL     1      21.847   4.140  48.042  1.00  0.00    -0.350 N 
HETATM   25  C21 UNL     1      22.102   3.201  47.011  1.00  0.00     0.214 C 
HETATM   26  C22 UNL     1      21.664   3.692  45.677  1.00  0.00     0.117 C 
HETATM   27  O2  UNL     1      22.642   2.097  47.293  1.00  0.00    -0.274 OA
HETATM   28  H25 UNL     1      21.415   5.064  47.932  1.00  0.00     0.163 HD
ENDBRANCH   8  24
BRANCH   1  29
HETATM   29  O1  UNL     1      23.365   6.057  48.853  1.00  0.00    -0.358 OA
HETATM   30  C1  UNL     1      24.398   6.998  49.038  1.00  0.00     0.209 C 
ENDBRANCH   1  29
TORSDOF 7
ENDMDL
MODEL 6
REMARK VINA RESULT:      -7.4      3.014      7.706
REMARK  7 active torsions:
REMARK  status: ('A' for Active; 'I' for Inactive)
REMARK    1  A    between atoms: O1_2  and  C2_3 
REMARK    2  A    between atoms: N2_8  and  C6_9 
REMARK    3  A    between atoms: C6_9  and  N3_10 
REMARK    4  A    between atoms: N3_10  and  C7_11 
REMARK    5  A    between atoms: C9_13  and  C10_14 
REMARK    6  A    between atoms: C10_14  and  C11_15 
REMARK    7  A    between atoms: C20_24  and  N4_25 
REMARK       I    between atoms: N4_25  and  C21_26 
ROOT
HETATM    1  C2  UNL     1      25.488   0.209  52.669  1.00  0.00     0.070 C 
HETATM    2  C3  UNL     1      26.412   0.907  52.057  1.00  0.00     0.053 C 
HETATM    3  C4  UNL     1      26.351   2.309  51.589  1.00  0.00     0.121 C 
HETATM    4  N1  UNL     1      25.274   3.051  51.503  1.00  0.00    -0.246 NA
HETATM    5  C5  UNL     1      23.952   2.678  51.833  1.00  0.00     0.124 C 
HETATM    6  N2  UNL     1      23.072   3.574  52.118  1.00  0.00    -0.255 NA
HETATM    7  C19 UNL     1      23.443   1.283  51.889  1.00  0.00     0.112 C 
HETATM    8  C20 UNL     1      24.110   0.616  53.074  1.00  0.00     0.148 C 
ENDROOT
BRANCH   6   9
HETATM    9  C6  UNL     1      23.371   4.993  52.120  1.00  0.00     0.272 C 
BRANCH   9  10
HETATM   10  N3  UNL     1      23.287   5.536  50.779  1.00  0.00    -0.375 N 
HETATM   11  H8  UNL     1      22.421   5.523  50.163  1.00  0.00     0.161 HD
BRANCH  10  12
HETATM   12  C7  UNL     1      24.330   6.166  50.079  1.00  0.00     0.003 A 
HETATM   13  C8  UNL     1      25.276   7.024  50.231  1.00  0.00     0.003 A 
HETATM   14  C9  UNL     1      25.736   6.919  48.876  1.00  0.00     0.020 A 
HETATM   15  C18 UNL     1      24.647   5.924  48.677  1.00  0.00     0.065 A 
BRANCH  14  16
HETATM   16  C10 UNL     1      27.096   6.296  48.655  1.00  0.00     0.048 C 
BRANCH  16  17
HETATM   17  C11 UNL     1      27.942   7.031  47.708  1.00  0.00    -0.052 A 
HETATM   18  C12 UNL     1      27.392   8.084  47.006  1.00  0.00     0.007 A 
HETATM   19  C13 UNL     1      28.102   8.841  46.090  1.00  0.00     0.001 A 
HETATM   20  C14 UNL     1      29.426   8.457  45.931  1.00  0.00     0.001 A 
HETATM   21  C15 UNL     1      30.039   7.414  46.602  1.00  0.00     0.007 A 
HETATM   22  C16 UNL     1      29.257   6.700  47.506  1.00  0.00    -0.056 A 
HETATM   23  C17 UNL     1      29.923   5.591  48.213  1.00  0.00     0.049 C 
ENDBRANCH  16  17
ENDBRANCH  14  16
ENDBRANCH  10  12
ENDBRANCH   9  10
ENDBRANCH   6   9
BRANCH   8  24
HETATM   24  N4  UNL     1      23.350  -0.480  53.587  1.00  0.00    -0.350 N 
HETATM   25  C21 UNL     1      22.062  -0.564  54.172  1.00  0.00     0.214 C 
HETATM   26  C22 UNL     1      21.703  -1.956  54.555  1.00  0.00     0.117 C 
HETATM   27  O2  UNL     1      21.371   0.482  54.309  1.00  0.00    -0.274 OA
HETATM   28  H25 UNL     1      23.999  -1.260  53.426  1.00  0.00     0.163 HD
ENDBRANCH   8  24
BRANCH   1  29
HETATM   29  O1  UNL     1      25.784  -1.101  53.012  1.00  0.00    -0.358 OA
HETATM   30  C1  UNL     1      27.062  -1.648  52.780  1.00  0.00     0.209 C 
ENDBRANCH   1  29
TORSDOF 7
ENDMDL
MODEL 7
REMARK VINA RESULT:      -7.2      3.886      8.039
REMARK  7 active torsions:
REMARK  status: ('A' for Active; 'I' for Inactive)
REMARK    1  A    between atoms: O1_2  and  C2_3 
REMARK    2  A    between atoms: N2_8  and  C6_9 
REMARK    3  A    between atoms: C6_9  and  N3_10 
REMARK    4  A    between atoms: N3_10  and  C7_11 
REMARK    5  A    between atoms: C9_13  and  C10_14 
REMARK    6  A    between atoms: C10_14  and  C11_15 
REMARK    7  A    between atoms: C20_24  and  N4_25 
REMARK       I    between atoms: N4_25  and  C21_26 
ROOT
HETATM    1  C2  UNL     1      25.563   0.222  53.099  1.00  0.00     0.070 C 
HETATM    2  C3  UNL     1      24.388   0.797  53.039  1.00  0.00     0.053 C 
HETATM    3  C4  UNL     1      23.965   1.945  52.207  1.00  0.00     0.121 C 
HETATM    4  N1  UNL     1      24.753   2.745  51.532  1.00  0.00    -0.246 NA
HETATM    5  C5  UNL     1      26.162   2.689  51.454  1.00  0.00     0.124 C 
HETATM    6  N2  UNL     1      26.783   3.223  50.460  1.00  0.00    -0.255 NA
HETATM    7  C19 UNL     1      27.051   2.041  52.452  1.00  0.00     0.112 C 
HETATM    8  C20 UNL     1      26.815   0.549  52.354  1.00  0.00     0.148 C 
ENDROOT
BRANCH   6   9
HETATM    9  C6  UNL     1      26.095   3.902  49.380  1.00  0.00     0.272 C 
BRANCH   9  10
HETATM   10  N3  UNL     1      26.414   5.317  49.378  1.00  0.00    -0.375 N 
HETATM   11  H8  UNL     1      25.870   6.070  49.893  1.00  0.00     0.161 HD
BRANCH  10  12
HETATM   12  C7  UNL     1      27.487   5.918  48.699  1.00  0.00     0.003 A 
HETATM   13  C8  UNL     1      27.900   7.057  48.269  1.00  0.00     0.003 A 
HETATM   14  C9  UNL     1      29.119   6.532  47.724  1.00  0.00     0.020 A 
HETATM   15  C18 UNL     1      28.660   5.203  48.213  1.00  0.00     0.065 A 
BRANCH  14  16
HETATM   16  C10 UNL     1      30.411   6.947  48.393  1.00  0.00     0.048 C 
BRANCH  16  17
HETATM   17  C11 UNL     1      31.551   7.054  47.475  1.00  0.00    -0.052 A 
HETATM   18  C12 UNL     1      32.152   5.896  47.028  1.00  0.00     0.007 A 
HETATM   19  C13 UNL     1      33.233   5.885  46.162  1.00  0.00     0.001 A 
HETATM   20  C14 UNL     1      33.668   7.144  45.773  1.00  0.00     0.001 A 
HETATM   21  C15 UNL     1      33.111   8.342  46.183  1.00  0.00     0.007 A 
HETATM   22  C16 UNL     1      32.027   8.268  47.054  1.00  0.00    -0.056 A 
HETATM   23  C17 UNL     1      31.444   9.552  47.483  1.00  0.00     0.049 C 
ENDBRANCH  16  17
ENDBRANCH  14  16
ENDBRANCH  10  12
ENDBRANCH   9  10
ENDBRANCH   6   9
BRANCH   8  24
HETATM   24  N4  UNL     1      27.932  -0.217  52.809  1.00  0.00    -0.350 N 
HETATM   25  C21 UNL     1      28.764  -0.112  53.952  1.00  0.00     0.214 C 
HETATM   26  C22 UNL     1      29.815  -1.164  53.986  1.00  0.00     0.117 C 
HETATM   27  O2  UNL     1      28.556   0.806  54.792  1.00  0.00    -0.274 OA
HETATM   28  H25 UNL     1      28.006  -0.918  52.064  1.00  0.00     0.163 HD
ENDBRANCH   8  24
BRANCH   1  29
HETATM   29  O1  UNL     1      25.718  -0.850  53.966  1.00  0.00    -0.358 OA
HETATM   30  C1  UNL     1      24.928  -0.973  55.127  1.00  0.00     0.209 C 
ENDBRANCH   1  29
TORSDOF 7
ENDMDL
MODEL 8
REMARK VINA RESULT:      -7.1      4.071      7.398
REMARK  7 active torsions:
REMARK  status: ('A' for Active; 'I' for Inactive)
REMARK    1  A    between atoms: O1_2  and  C2_3 
REMARK    2  A    between atoms: N2_8  and  C6_9 
REMARK    3  A    between atoms: C6_9  and  N3_10 
REMARK    4  A    between atoms: N3_10  and  C7_11 
REMARK    5  A    between atoms: C9_13  and  C10_14 
REMARK    6  A    between atoms: C10_14  and  C11_15 
REMARK    7  A    between atoms: C20_24  and  N4_25 
REMARK       I    between atoms: N4_25  and  C21_26 
ROOT
HETATM    1  C2  UNL     1      21.321  -0.094  53.519  1.00  0.00     0.070 C 
HETATM    2  C3  UNL     1      22.332   0.724  53.361  1.00  0.00     0.053 C 
HETATM    3  C4  UNL     1      22.413   1.938  52.519  1.00  0.00     0.121 C 
HETATM    4  N1  UNL     1      21.555   2.301  51.598  1.00  0.00    -0.246 NA
HETATM    5  C5  UNL     1      20.379   1.620  51.212  1.00  0.00     0.124 C 
HETATM    6  N2  UNL     1      19.418   2.253  50.633  1.00  0.00    -0.255 NA
HETATM    7  C19 UNL     1      20.121   0.171  51.415  1.00  0.00     0.112 C 
HETATM    8  C20 UNL     1      19.962  -0.045  52.905  1.00  0.00     0.148 C 
ENDROOT
BRANCH   6   9
HETATM    9  C6  UNL     1      19.475   3.673  50.346  1.00  0.00     0.272 C 
BRANCH   9  10
HETATM   10  N3  UNL     1      20.321   3.930  49.197  1.00  0.00    -0.375 N 
HETATM   11  H8  UNL     1      20.141   3.580  48.211  1.00  0.00     0.161 HD
BRANCH  10  12
HETATM   12  C7  UNL     1      21.510   4.678  49.202  1.00  0.00     0.003 A 
HETATM   13  C8  UNL     1      22.036   5.737  49.708  1.00  0.00     0.003 A 
HETATM   14  C9  UNL     1      23.295   5.561  49.043  1.00  0.00     0.020 A 
HETATM   15  C18 UNL     1      22.706   4.331  48.445  1.00  0.00     0.065 A 
BRANCH  14  16
HETATM   16  C10 UNL     1      24.493   5.232  49.907  1.00  0.00     0.048 C 
BRANCH  16  17
HETATM   17  C11 UNL     1      25.783   5.531  49.276  1.00  0.00    -0.052 A 
HETATM   18  C12 UNL     1      26.011   6.808  48.804  1.00  0.00     0.007 A 
HETATM   19  C13 UNL     1      27.192   7.193  48.193  1.00  0.00     0.001 A 
HETATM   20  C14 UNL     1      28.141   6.186  48.092  1.00  0.00     0.001 A 
HETATM   21  C15 UNL     1      27.978   4.889  48.543  1.00  0.00     0.007 A 
HETATM   22  C16 UNL     1      26.761   4.579  49.146  1.00  0.00    -0.056 A 
HETATM   23  C17 UNL     1      26.601   3.194  49.621  1.00  0.00     0.049 C 
ENDBRANCH  16  17
ENDBRANCH  14  16
ENDBRANCH  10  12
ENDBRANCH   9  10
ENDBRANCH   6   9
BRANCH   8  24
HETATM   24  N4  UNL     1      19.187  -1.206  53.213  1.00  0.00    -0.350 N 
HETATM   25  C21 UNL     1      17.796  -1.472  53.163  1.00  0.00     0.214 C 
HETATM   26  C22 UNL     1      17.468  -2.859  53.590  1.00  0.00     0.117 C 
HETATM   27  O2  UNL     1      17.003  -0.568  52.783  1.00  0.00    -0.274 OA
HETATM   28  H25 UNL     1      19.923  -1.861  53.504  1.00  0.00     0.163 HD
ENDBRANCH   8  24
BRANCH   1  29
HETATM   29  O1  UNL     1      21.488  -1.175  54.371  1.00  0.00    -0.358 OA
HETATM   30  C1  UNL     1      22.639  -1.302  55.176  1.00  0.00     0.209 C 
ENDBRANCH   1  29
TORSDOF 7
ENDMDL
MODEL 9
REMARK VINA RESULT:      -7.1      2.839      4.088
REMARK  7 active torsions:
REMARK  status: ('A' for Active; 'I' for Inactive)
REMARK    1  A    between atoms: O1_2  and  C2_3 
REMARK    2  A    between atoms: N2_8  and  C6_9 
REMARK    3  A    between atoms: C6_9  and  N3_10 
REMARK    4  A    between atoms: N3_10  and  C7_11 
REMARK    5  A    between atoms: C9_13  and  C10_14 
REMARK    6  A    between atoms: C10_14  and  C11_15 
REMARK    7  A    between atoms: C20_24  and  N4_25 
REMARK       I    between atoms: N4_25  and  C21_26 
ROOT
HETATM    1  C2  UNL     1      18.663   3.840  50.247  1.00  0.00     0.070 C 
HETATM    2  C3  UNL     1      17.383   3.681  50.473  1.00  0.00     0.053 C 
HETATM    3  C4  UNL     1      16.692   2.531  51.096  1.00  0.00     0.121 C 
HETATM    4  N1  UNL     1      17.214   1.353  51.339  1.00  0.00    -0.246 NA
HETATM    5  C5  UNL     1      18.532   0.930  51.062  1.00  0.00     0.124 C 
HETATM    6  N2  UNL     1      19.052  -0.054  51.709  1.00  0.00    -0.255 NA
HETATM    7  C19 UNL     1      19.432   1.536  50.047  1.00  0.00     0.112 C 
HETATM    8  C20 UNL     1      19.797   2.918  50.548  1.00  0.00     0.148 C 
ENDROOT
BRANCH   6   9
HETATM    9  C6  UNL     1      18.337  -0.778  52.742  1.00  0.00     0.272 C 
BRANCH   9  10
HETATM   10  N3  UNL     1      19.217  -1.094  53.850  1.00  0.00    -0.375 N 
HETATM   11  H8  UNL     1      18.914  -1.526  54.772  1.00  0.00     0.161 HD
BRANCH  10  12
HETATM   12  C7  UNL     1      20.605  -0.879  53.886  1.00  0.00     0.003 A 
HETATM   13  C8  UNL     1      21.726  -1.491  53.732  1.00  0.00     0.003 A 
HETATM   14  C9  UNL     1      22.521  -0.325  53.993  1.00  0.00     0.020 A 
HETATM   15  C18 UNL     1      21.235   0.402  54.176  1.00  0.00     0.065 A 
BRANCH  14  16
HETATM   16  C10 UNL     1      23.314   0.244  52.837  1.00  0.00     0.048 C 
BRANCH  16  17
HETATM   17  C11 UNL     1      24.742   0.422  53.124  1.00  0.00    -0.052 A 
HETATM   18  C12 UNL     1      25.545  -0.696  53.217  1.00  0.00     0.007 A 
HETATM   19  C13 UNL     1      26.902  -0.638  53.484  1.00  0.00     0.001 A 
HETATM   20  C14 UNL     1      27.399   0.647  53.651  1.00  0.00     0.001 A 
HETATM   21  C15 UNL     1      26.651   1.807  53.570  1.00  0.00     0.007 A 
HETATM   22  C16 UNL     1      25.293   1.665  53.299  1.00  0.00    -0.056 A 
HETATM   23  C17 UNL     1      24.509   2.910  53.217  1.00  0.00     0.049 C 
ENDBRANCH  16  17
ENDBRANCH  14  16
ENDBRANCH  10  12
ENDBRANCH   9  10
ENDBRANCH   6   9
BRANCH   8  24
HETATM   24  N4  UNL     1      21.035   3.389  50.011  1.00  0.00    -0.350 N 
HETATM   25  C21 UNL     1      22.046   4.235  50.531  1.00  0.00     0.214 C 
HETATM   26  C22 UNL     1      23.166   4.435  49.573  1.00  0.00     0.117 C 
HETATM   27  O2  UNL     1      21.920   4.717  51.689  1.00  0.00    -0.274 OA
HETATM   28  H25 UNL     1      21.030   2.942  49.086  1.00  0.00     0.163 HD
ENDBRANCH   8  24
BRANCH   1  29
HETATM   29  O1  UNL     1      19.074   5.020  49.645  1.00  0.00    -0.358 OA
HETATM   30  C1  UNL     1      18.451   5.500  48.475  1.00  0.00     0.209 C 
ENDBRANCH   1  29
TORSDOF 7
ENDMDL
