MODEL 1
REMARK VINA RESULT:      -7.2      0.000      0.000
REMARK  9 active torsions:
REMARK  status: ('A' for Active; 'I' for Inactive)
REMARK    1  A    between atoms: C2_2  and  C3_3 
REMARK    2  A    between atoms: C3_3  and  N2_12 
REMARK    3  A    between atoms: C4_4  and  C5_5 
REMARK    4  A    between atoms: C5_5  and  C6_6 
REMARK    5  A    between atoms: C6_6  and  N1_7 
REMARK    6  A    between atoms: N2_12  and  C10_13 
REMARK    7  A    between atoms: C14_19  and  C15_20 
REMARK    8  A    between atoms: C17_22  and  C18_23 
REMARK    9  A    between atoms: C18_23  and  O2_24 
ROOT
HETATM    1  C10 UNL     1      26.044   2.497  51.014  1.00  0.00     0.141 A 
HETATM    2  N3  UNL     1      27.261   2.615  51.582  1.00  0.00    -0.224 NA
HETATM    3  C11 UNL     1      27.481   2.059  52.816  1.00  0.00     0.236 A 
HETATM    4  N4  UNL     1      26.481   1.419  53.415  1.00  0.00    -0.241 NA
HETATM    5  C12 UNL     1      25.251   1.264  52.913  1.00  0.00     0.072 A 
HETATM    6  C13 UNL     1      24.205   0.611  53.522  1.00  0.00     0.040 A 
HETATM    7  C14 UNL     1      22.939   0.493  52.933  1.00  0.00    -0.048 A 
HETATM    8  C17 UNL     1      22.760   1.067  51.694  1.00  0.00    -0.028 A 
HETATM    9  C19 UNL     1      23.778   1.737  51.034  1.00  0.00     0.027 A 
HETATM   10  C20 UNL     1      25.031   1.827  51.663  1.00  0.00     0.039 A 
ENDROOT
BRANCH   1  11
HETATM   11  N2  UNL     1      25.875   3.107  49.759  1.00  0.00    -0.347 N 
HETATM   12  H15 UNL     1      25.603   2.392  49.068  1.00  0.00     0.167 HD
BRANCH  11  13
HETATM   13  C3  UNL     1      26.069   4.512  49.514  1.00  0.00    -0.007 C 
HETATM   14  C4  UNL     1      27.207   4.666  48.870  1.00  0.00     0.048 C 
BRANCH  13  15
HETATM   15  C2  UNL     1      24.897   5.218  50.074  1.00  0.00     0.048 C 
HETATM   16  C1  UNL     1      23.664   4.950  49.212  1.00  0.00     0.011 C 
ENDBRANCH  13  15
BRANCH  14  17
HETATM   17  C5  UNL     1      27.070   6.144  48.768  1.00  0.00     0.077 C 
BRANCH  17  18
HETATM   18  C6  UNL     1      27.501   7.389  48.555  1.00  0.00     0.067 C 
BRANCH  18  19
HETATM   19  N1  UNL     1      28.139   8.662  48.778  1.00  0.00    -0.389 N 
HETATM   20  C7  UNL     1      29.128   9.605  48.236  1.00  0.00     0.145 C 
HETATM   21  C8  UNL     1      28.736  10.856  48.952  1.00  0.00     0.189 C 
HETATM   22  O1  UNL     1      27.538  10.602  49.599  1.00  0.00    -0.371 OA
HETATM   23  C9  UNL     1      27.622   9.265  50.014  1.00  0.00     0.287 C 
ENDBRANCH  18  19
ENDBRANCH  17  18
ENDBRANCH  14  17
ENDBRANCH  11  13
ENDBRANCH   1  11
BRANCH   8  24
HETATM   24  C18 UNL     1      21.410   0.956  51.120  1.00  0.00     0.203 C 
BRANCH  24  25
HETATM   25  O2  UNL     1      21.514   0.788  49.743  1.00  0.00    -0.396 OA
HETATM   26  H25 UNL     1      20.756   0.264  49.377  1.00  0.00     0.209 HD
ENDBRANCH  24  25
ENDBRANCH   8  24
BRANCH   7  27
HETATM   27  C15 UNL     1      21.962  -0.261  53.729  1.00  0.00     0.035 C 
HETATM   28  C16 UNL     1      22.549  -1.093  54.821  1.00  0.00     0.010 C 
ENDBRANCH   7  27
TORSDOF 9
ENDMDL
MODEL 2
REMARK VINA RESULT:      -7.0      5.007      8.384
REMARK  9 active torsions:
REMARK  status: ('A' for Active; 'I' for Inactive)
REMARK    1  A    between atoms: C2_2  and  C3_3 
REMARK    2  A    between atoms: C3_3  and  N2_12 
REMARK    3  A    between atoms: C4_4  and  C5_5 
REMARK    4  A    between atoms: C5_5  and  C6_6 
REMARK    5  A    between atoms: C6_6  and  N1_7 
REMARK    6  A    between atoms: N2_12  and  C10_13 
REMARK    7  A    between atoms: C14_19  and  C15_20 
REMARK    8  A    between atoms: C17_22  and  C18_23 
REMARK    9  A    between atoms: C18_23  and  O2_24 
ROOT
HETATM    1  C10 UNL     1      22.424  -0.046  52.812  1.00  0.00     0.141 A 
HETATM    2  N3  UNL     1      21.653  -0.791  53.630  1.00  0.00    -0.224 NA
HETATM    3  C11 UNL     1      22.221  -1.385  54.729  1.00  0.00     0.236 A 
HETATM    4  N4  UNL     1      23.520  -1.206  54.951  1.00  0.00    -0.241 NA
HETATM    5  C12 UNL     1      24.343  -0.483  54.184  1.00  0.00     0.072 A 
HETATM    6  C13 UNL     1      25.688  -0.294  54.397  1.00  0.00     0.040 A 
HETATM    7  C14 UNL     1      26.490   0.476  53.544  1.00  0.00    -0.048 A 
HETATM    8  C17 UNL     1      25.881   1.054  52.452  1.00  0.00    -0.028 A 
HETATM    9  C19 UNL     1      24.530   0.897  52.188  1.00  0.00     0.027 A 
HETATM   10  C20 UNL     1      23.766   0.118  53.073  1.00  0.00     0.039 A 
ENDROOT
BRANCH   1  11
HETATM   11  N2  UNL     1      21.790   0.518  51.693  1.00  0.00    -0.347 N 
HETATM   12  H15 UNL     1      22.349   0.323  50.850  1.00  0.00     0.167 HD
BRANCH  11  13
HETATM   13  C3  UNL     1      20.555   1.257  51.754  1.00  0.00    -0.007 C 
HETATM   14  C4  UNL     1      19.625   0.563  51.133  1.00  0.00     0.048 C 
BRANCH  13  15
HETATM   15  C2  UNL     1      20.829   2.500  52.508  1.00  0.00     0.048 C 
HETATM   16  C1  UNL     1      21.786   3.391  51.718  1.00  0.00     0.011 C 
ENDBRANCH  13  15
BRANCH  14  17
HETATM   17  C5  UNL     1      18.553   1.556  51.407  1.00  0.00     0.077 C 
BRANCH  17  18
HETATM   18  C6  UNL     1      17.295   1.998  51.456  1.00  0.00     0.067 C 
BRANCH  18  19
HETATM   19  N1  UNL     1      16.118   2.697  51.907  1.00  0.00    -0.389 N 
HETATM   20  C7  UNL     1      14.723   2.519  52.336  1.00  0.00     0.145 C 
HETATM   21  C8  UNL     1      14.485   3.813  53.045  1.00  0.00     0.189 C 
HETATM   22  O1  UNL     1      15.709   4.456  53.147  1.00  0.00    -0.371 OA
HETATM   23  C9  UNL     1      16.390   4.140  51.963  1.00  0.00     0.287 C 
ENDBRANCH  18  19
ENDBRANCH  17  18
ENDBRANCH  14  17
ENDBRANCH  11  13
ENDBRANCH   1  11
BRANCH   8  24
HETATM   24  C18 UNL     1      26.757   1.826  51.557  1.00  0.00     0.203 C 
BRANCH  24  25
HETATM   25  O2  UNL     1      26.328   3.149  51.532  1.00  0.00    -0.396 OA
HETATM   26  H25 UNL     1      25.918   3.387  50.660  1.00  0.00     0.209 HD
ENDBRANCH  24  25
ENDBRANCH   8  24
BRANCH   7  27
HETATM   27  C15 UNL     1      27.896   0.579  53.953  1.00  0.00     0.035 C 
HETATM   28  C16 UNL     1      28.744  -0.596  53.591  1.00  0.00     0.010 C 
ENDBRANCH   7  27
TORSDOF 9
ENDMDL
MODEL 3
REMARK VINA RESULT:      -7.0      5.755      7.839
REMARK  9 active torsions:
REMARK  status: ('A' for Active; 'I' for Inactive)
REMARK    1  A    between atoms: C2_2  and  C3_3 
REMARK    2  A    between atoms: C3_3  and  N2_12 
REMARK    3  A    between atoms: C4_4  and  C5_5 
REMARK    4  A    between atoms: C5_5  and  C6_6 
REMARK    5  A    between atoms: C6_6  and  N1_7 
REMARK    6  A    between atoms: N2_12  and  C10_13 
REMARK    7  A    between atoms: C14_19  and  C15_20 
REMARK    8  A    between atoms: C17_22  and  C18_23 
REMARK    9  A    between atoms: C18_23  and  O2_24 
ROOT
HETATM    1  C10 UNL     1      20.833   1.524  51.760  1.00  0.00     0.141 A 
HETATM    2  N3  UNL     1      21.435   2.393  50.923  1.00  0.00    -0.224 NA
HETATM    3  C11 UNL     1      20.834   2.699  49.728  1.00  0.00     0.236 A 
HETATM    4  N4  UNL     1      19.672   2.124  49.433  1.00  0.00    -0.241 NA
HETATM    5  C12 UNL     1      19.019   1.254  50.213  1.00  0.00     0.072 A 
HETATM    6  C13 UNL     1      17.821   0.648  49.920  1.00  0.00     0.040 A 
HETATM    7  C14 UNL     1      17.198  -0.259  50.788  1.00  0.00    -0.048 A 
HETATM    8  C17 UNL     1      17.836  -0.539  51.977  1.00  0.00    -0.028 A 
HETATM    9  C19 UNL     1      19.044   0.043  52.323  1.00  0.00     0.027 A 
HETATM   10  C20 UNL     1      19.629   0.948  51.422  1.00  0.00     0.039 A 
ENDROOT
BRANCH   1  11
HETATM   11  N2  UNL     1      21.508   1.235  52.958  1.00  0.00    -0.347 N 
HETATM   12  H15 UNL     1      20.902   1.476  53.756  1.00  0.00     0.167 HD
BRANCH  11  13
HETATM   13  C3  UNL     1      22.843   0.698  53.021  1.00  0.00    -0.007 C 
HETATM   14  C4  UNL     1      23.695   1.700  52.977  1.00  0.00     0.048 C 
BRANCH  13  15
HETATM   15  C2  UNL     1      22.715  -0.771  53.126  1.00  0.00     0.048 C 
HETATM   16  C1  UNL     1      21.940  -1.140  54.391  1.00  0.00     0.011 C 
ENDBRANCH  13  15
BRANCH  14  17
HETATM   17  C5  UNL     1      24.892   0.824  53.087  1.00  0.00     0.077 C 
BRANCH  17  18
HETATM   18  C6  UNL     1      26.138   0.515  53.452  1.00  0.00     0.067 C 
BRANCH  18  19
HETATM   19  N1  UNL     1      27.354  -0.238  53.627  1.00  0.00    -0.389 N 
HETATM   20  C7  UNL     1      28.166  -1.328  53.066  1.00  0.00     0.145 C 
HETATM   21  C8  UNL     1      29.487  -1.042  53.703  1.00  0.00     0.189 C 
HETATM   22  O1  UNL     1      29.385   0.191  54.327  1.00  0.00    -0.371 OA
HETATM   23  C9  UNL     1      28.071   0.248  54.813  1.00  0.00     0.287 C 
ENDBRANCH  18  19
ENDBRANCH  17  18
ENDBRANCH  14  17
ENDBRANCH  11  13
ENDBRANCH   1  11
BRANCH   8  24
HETATM   24  C18 UNL     1      17.173  -1.521  52.849  1.00  0.00     0.203 C 
BRANCH  24  25
HETATM   25  O2  UNL     1      17.606  -1.333  54.157  1.00  0.00    -0.396 OA
HETATM   26  H25 UNL     1      17.272  -0.479  54.536  1.00  0.00     0.209 HD
ENDBRANCH  24  25
ENDBRANCH   8  24
BRANCH   7  27
HETATM   27  C15 UNL     1      15.913  -0.782  50.307  1.00  0.00     0.035 C 
HETATM   28  C16 UNL     1      15.844  -1.027  48.836  1.00  0.00     0.010 C 
ENDBRANCH   7  27
TORSDOF 9
ENDMDL
MODEL 4
REMARK VINA RESULT:      -6.8      3.769      5.480
REMARK  9 active torsions:
REMARK  status: ('A' for Active; 'I' for Inactive)
REMARK    1  A    between atoms: C2_2  and  C3_3 
REMARK    2  A    between atoms: C3_3  and  N2_12 
REMARK    3  A    between atoms: C4_4  and  C5_5 
REMARK    4  A    between atoms: C5_5  and  C6_6 
REMARK    5  A    between atoms: C6_6  and  N1_7 
REMARK    6  A    between atoms: N2_12  and  C10_13 
REMARK    7  A    between atoms: C14_19  and  C15_20 
REMARK    8  A    between atoms: C17_22  and  C18_23 
REMARK    9  A    between atoms: C18_23  and  O2_24 
ROOT
HETATM    1  C10 UNL     1      22.420  -0.118  52.708  1.00  0.00     0.141 A 
HETATM    2  N3  UNL     1      21.610  -0.866  53.483  1.00  0.00    -0.224 NA
HETATM    3  C11 UNL     1      22.113  -1.432  54.628  1.00  0.00     0.236 A 
HETATM    4  N4  UNL     1      23.390  -1.222  54.935  1.00  0.00    -0.241 NA
HETATM    5  C12 UNL     1      24.249  -0.493  54.214  1.00  0.00     0.072 A 
HETATM    6  C13 UNL     1      25.572  -0.273  54.515  1.00  0.00     0.040 A 
HETATM    7  C14 UNL     1      26.415   0.501  53.707  1.00  0.00    -0.048 A 
HETATM    8  C17 UNL     1      25.870   1.050  52.567  1.00  0.00    -0.028 A 
HETATM    9  C19 UNL     1      24.545   0.861  52.214  1.00  0.00     0.027 A 
HETATM   10  C20 UNL     1      23.737   0.078  53.058  1.00  0.00     0.039 A 
ENDROOT
BRANCH   1  11
HETATM   11  N2  UNL     1      21.853   0.417  51.539  1.00  0.00    -0.347 N 
HETATM   12  H15 UNL     1      21.709  -0.340  50.854  1.00  0.00     0.167 HD
BRANCH  11  13
HETATM   13  C3  UNL     1      21.544   1.811  51.358  1.00  0.00    -0.007 C 
HETATM   14  C4  UNL     1      21.090   2.286  52.499  1.00  0.00     0.048 C 
BRANCH  13  15
HETATM   15  C2  UNL     1      21.878   2.153  49.959  1.00  0.00     0.048 C 
HETATM   16  C1  UNL     1      21.324   1.088  49.014  1.00  0.00     0.011 C 
ENDBRANCH  13  15
BRANCH  14  17
HETATM   17  C5  UNL     1      20.915   3.667  51.975  1.00  0.00     0.077 C 
BRANCH  17  18
HETATM   18  C6  UNL     1      21.325   4.868  51.564  1.00  0.00     0.067 C 
BRANCH  18  19
HETATM   19  N1  UNL     1      22.188   5.916  51.080  1.00  0.00    -0.389 N 
HETATM   20  C7  UNL     1      22.208   7.291  50.558  1.00  0.00     0.145 C 
HETATM   21  C8  UNL     1      23.642   7.649  50.783  1.00  0.00     0.189 C 
HETATM   22  O1  UNL     1      24.204   6.636  51.544  1.00  0.00    -0.371 OA
HETATM   23  C9  UNL     1      23.584   5.459  51.104  1.00  0.00     0.287 C 
ENDBRANCH  18  19
ENDBRANCH  17  18
ENDBRANCH  14  17
ENDBRANCH  11  13
ENDBRANCH   1  11
BRANCH   8  24
HETATM   24  C18 UNL     1      26.790   1.828  51.722  1.00  0.00     0.203 C 
BRANCH  24  25
HETATM   25  O2  UNL     1      26.237   3.081  51.481  1.00  0.00    -0.396 OA
HETATM   26  H25 UNL     1      25.742   3.423  52.270  1.00  0.00     0.209 HD
ENDBRANCH  24  25
ENDBRANCH   8  24
BRANCH   7  27
HETATM   27  C15 UNL     1      27.788   0.640  54.210  1.00  0.00     0.035 C 
HETATM   28  C16 UNL     1      28.721  -0.450  53.798  1.00  0.00     0.010 C 
ENDBRANCH   7  27
TORSDOF 9
ENDMDL
MODEL 5
REMARK VINA RESULT:      -6.8      2.589      3.547
REMARK  9 active torsions:
REMARK  status: ('A' for Active; 'I' for Inactive)
REMARK    1  A    between atoms: C2_2  and  C3_3 
REMARK    2  A    between atoms: C3_3  and  N2_12 
REMARK    3  A    between atoms: C4_4  and  C5_5 
REMARK    4  A    between atoms: C5_5  and  C6_6 
REMARK    5  A    between atoms: C6_6  and  N1_7 
REMARK    6  A    between atoms: N2_12  and  C10_13 
REMARK    7  A    between atoms: C14_19  and  C15_20 
REMARK    8  A    between atoms: C17_22  and  C18_23 
REMARK    9  A    between atoms: C18_23  and  O2_24 
ROOT
HETATM    1  C10 UNL     1      23.266   4.454  51.655  1.00  0.00     0.141 A 
HETATM    2  N3  UNL     1      22.203   5.155  51.213  1.00  0.00    -0.224 NA
HETATM    3  C11 UNL     1      20.957   4.584  51.261  1.00  0.00     0.236 A 
HETATM    4  N4  UNL     1      20.838   3.350  51.744  1.00  0.00    -0.241 NA
HETATM    5  C12 UNL     1      21.847   2.598  52.198  1.00  0.00     0.072 A 
HETATM    6  C13 UNL     1      21.742   1.320  52.694  1.00  0.00     0.040 A 
HETATM    7  C14 UNL     1      22.848   0.590  53.149  1.00  0.00    -0.048 A 
HETATM    8  C17 UNL     1      24.081   1.200  53.082  1.00  0.00    -0.028 A 
HETATM    9  C19 UNL     1      24.246   2.485  52.592  1.00  0.00     0.027 A 
HETATM   10  C20 UNL     1      23.106   3.179  52.149  1.00  0.00     0.039 A 
ENDROOT
BRANCH   1  11
HETATM   11  N2  UNL     1      24.518   5.085  51.560  1.00  0.00    -0.347 N 
HETATM   12  H15 UNL     1      24.922   5.184  52.503  1.00  0.00     0.167 HD
BRANCH  11  13
HETATM   13  C3  UNL     1      25.108   5.521  50.321  1.00  0.00    -0.007 C 
HETATM   14  C4  UNL     1      25.303   6.821  50.390  1.00  0.00     0.048 C 
BRANCH  13  15
HETATM   15  C2  UNL     1      25.273   4.321  49.472  1.00  0.00     0.048 C 
HETATM   16  C1  UNL     1      26.538   3.565  49.876  1.00  0.00     0.011 C 
ENDBRANCH  13  15
BRANCH  14  17
HETATM   17  C5  UNL     1      25.911   6.907  49.035  1.00  0.00     0.077 C 
BRANCH  17  18
HETATM   18  C6  UNL     1      26.912   7.045  48.163  1.00  0.00     0.067 C 
BRANCH  18  19
HETATM   19  N1  UNL     1      28.237   6.998  47.598  1.00  0.00    -0.389 N 
HETATM   20  C7  UNL     1      29.146   7.656  46.648  1.00  0.00     0.145 C 
HETATM   21  C8  UNL     1      30.463   7.132  47.120  1.00  0.00     0.189 C 
HETATM   22  O1  UNL     1      30.238   6.470  48.317  1.00  0.00    -0.371 OA
HETATM   23  C9  UNL     1      28.980   5.868  48.171  1.00  0.00     0.287 C 
ENDBRANCH  18  19
ENDBRANCH  17  18
ENDBRANCH  14  17
ENDBRANCH  11  13
ENDBRANCH   1  11
BRANCH   8  24
HETATM   24  C18 UNL     1      25.225   0.394  53.535  1.00  0.00     0.203 C 
BRANCH  24  25
HETATM   25  O2  UNL     1      25.830  -0.197  52.430  1.00  0.00    -0.396 OA
HETATM   26  H25 UNL     1      25.200  -0.780  51.934  1.00  0.00     0.209 HD
ENDBRANCH  24  25
ENDBRANCH   8  24
BRANCH   7  27
HETATM   27  C15 UNL     1      22.528  -0.748  53.664  1.00  0.00     0.035 C 
HETATM   28  C16 UNL     1      21.542  -0.771  54.785  1.00  0.00     0.010 C 
ENDBRANCH   7  27
TORSDOF 9
ENDMDL
MODEL 6
REMARK VINA RESULT:      -6.7      2.941      3.962
REMARK  9 active torsions:
REMARK  status: ('A' for Active; 'I' for Inactive)
REMARK    1  A    between atoms: C2_2  and  C3_3 
REMARK    2  A    between atoms: C3_3  and  N2_12 
REMARK    3  A    between atoms: C4_4  and  C5_5 
REMARK    4  A    between atoms: C5_5  and  C6_6 
REMARK    5  A    between atoms: C6_6  and  N1_7 
REMARK    6  A    between atoms: N2_12  and  C10_13 
REMARK    7  A    between atoms: C14_19  and  C15_20 
REMARK    8  A    between atoms: C17_22  and  C18_23 
REMARK    9  A    between atoms: C18_23  and  O2_24 
ROOT
HETATM    1  C10 UNL     1      24.077   4.162  49.988  1.00  0.00     0.141 A 
HETATM    2  N3  UNL     1      23.330   4.177  48.867  1.00  0.00    -0.224 NA
HETATM    3  C11 UNL     1      22.491   3.123  48.606  1.00  0.00     0.236 A 
HETATM    4  N4  UNL     1      22.443   2.116  49.473  1.00  0.00    -0.241 NA
HETATM    5  C12 UNL     1      23.155   2.034  50.603  1.00  0.00     0.072 A 
HETATM    6  C13 UNL     1      23.121   0.998  51.506  1.00  0.00     0.040 A 
HETATM    7  C14 UNL     1      23.901   0.981  52.670  1.00  0.00    -0.048 A 
HETATM    8  C17 UNL     1      24.731   2.058  52.893  1.00  0.00    -0.028 A 
HETATM    9  C19 UNL     1      24.806   3.128  52.017  1.00  0.00     0.027 A 
HETATM   10  C20 UNL     1      24.002   3.102  50.865  1.00  0.00     0.039 A 
ENDROOT
BRANCH   1  11
HETATM   11  N2  UNL     1      24.932   5.259  50.189  1.00  0.00    -0.347 N 
HETATM   12  H15 UNL     1      24.580   5.826  50.973  1.00  0.00     0.167 HD
BRANCH  11  13
HETATM   13  C3  UNL     1      26.104   5.522  49.394  1.00  0.00    -0.007 C 
HETATM   14  C4  UNL     1      26.819   4.419  49.332  1.00  0.00     0.048 C 
BRANCH  13  15
HETATM   15  C2  UNL     1      26.022   6.931  48.952  1.00  0.00     0.048 C 
HETATM   16  C1  UNL     1      25.843   7.848  50.161  1.00  0.00     0.011 C 
ENDBRANCH  13  15
BRANCH  14  17
HETATM   17  C5  UNL     1      27.866   5.021  48.465  1.00  0.00     0.077 C 
BRANCH  17  18
HETATM   18  C6  UNL     1      29.104   5.405  48.149  1.00  0.00     0.067 C 
BRANCH  18  19
HETATM   19  N1  UNL     1      30.541   5.395  48.030  1.00  0.00    -0.389 N 
HETATM   20  C7  UNL     1      31.680   4.652  47.471  1.00  0.00     0.145 C 
HETATM   21  C8  UNL     1      32.736   5.708  47.496  1.00  0.00     0.189 C 
HETATM   22  O1  UNL     1      32.114   6.904  47.818  1.00  0.00    -0.371 OA
HETATM   23  C9  UNL     1      31.104   6.559  48.726  1.00  0.00     0.287 C 
ENDBRANCH  18  19
ENDBRANCH  17  18
ENDBRANCH  14  17
ENDBRANCH  11  13
ENDBRANCH   1  11
BRANCH   8  24
HETATM   24  C18 UNL     1      25.562   1.992  54.105  1.00  0.00     0.203 C 
BRANCH  24  25
HETATM   25  O2  UNL     1      26.763   2.653  53.869  1.00  0.00    -0.396 OA
HETATM   26  H25 UNL     1      27.533   2.171  54.266  1.00  0.00     0.209 HD
ENDBRANCH  24  25
ENDBRANCH   8  24
BRANCH   7  27
HETATM   27  C15 UNL     1      23.707  -0.201  53.519  1.00  0.00     0.035 C 
HETATM   28  C16 UNL     1      22.508  -1.025  53.186  1.00  0.00     0.010 C 
ENDBRANCH   7  27
TORSDOF 9
ENDMDL
MODEL 7
REMARK VINA RESULT:      -6.5      5.003      8.437
REMARK  9 active torsions:
REMARK  status: ('A' for Active; 'I' for Inactive)
REMARK    1  A    between atoms: C2_2  and  C3_3 
REMARK    2  A    between atoms: C3_3  and  N2_12 
REMARK    3  A    between atoms: C4_4  and  C5_5 
REMARK    4  A    between atoms: C5_5  and  C6_6 
REMARK    5  A    between atoms: C6_6  and  N1_7 
REMARK    6  A    between atoms: N2_12  and  C10_13 
REMARK    7  A    between atoms: C14_19  and  C15_20 
REMARK    8  A    between atoms: C17_22  and  C18_23 
REMARK    9  A    between atoms: C18_23  and  O2_24 
ROOT
HETATM    1  C10 UNL     1      22.325   0.883  53.214  1.00  0.00     0.141 A 
HETATM    2  N3  UNL     1      21.506   0.192  54.032  1.00  0.00    -0.224 NA
HETATM    3  C11 UNL     1      22.024  -0.823  54.798  1.00  0.00     0.236 A 
HETATM    4  N4  UNL     1      23.323  -1.092  54.706  1.00  0.00    -0.241 NA
HETATM    5  C12 UNL     1      24.192  -0.449  53.918  1.00  0.00     0.072 A 
HETATM    6  C13 UNL     1      25.535  -0.720  53.807  1.00  0.00     0.040 A 
HETATM    7  C14 UNL     1      26.385  -0.004  52.953  1.00  0.00    -0.048 A 
HETATM    8  C17 UNL     1      25.825   1.005  52.202  1.00  0.00    -0.028 A 
HETATM    9  C19 UNL     1      24.478   1.321  52.272  1.00  0.00     0.027 A 
HETATM   10  C20 UNL     1      23.666   0.577  53.145  1.00  0.00     0.039 A 
ENDROOT
BRANCH   1  11
HETATM   11  N2  UNL     1      21.732   1.895  52.440  1.00  0.00    -0.347 N 
HETATM   12  H15 UNL     1      22.248   2.775  52.579  1.00  0.00     0.167 HD
BRANCH  11  13
HETATM   13  C3  UNL     1      20.577   1.696  51.604  1.00  0.00    -0.007 C 
HETATM   14  C4  UNL     1      19.601   2.452  52.060  1.00  0.00     0.048 C 
BRANCH  13  15
HETATM   15  C2  UNL     1      20.961   0.728  50.554  1.00  0.00     0.048 C 
HETATM   16  C1  UNL     1      21.928   1.382  49.569  1.00  0.00     0.011 C 
ENDBRANCH  13  15
BRANCH  14  17
HETATM   17  C5  UNL     1      18.643   2.035  51.001  1.00  0.00     0.077 C 
BRANCH  17  18
HETATM   18  C6  UNL     1      17.437   1.882  50.451  1.00  0.00     0.067 C 
BRANCH  18  19
HETATM   19  N1  UNL     1      16.302   2.088  49.586  1.00  0.00    -0.389 N 
HETATM   20  C7  UNL     1      15.341   3.093  49.109  1.00  0.00     0.145 C 
HETATM   21  C8  UNL     1      14.841   2.428  47.867  1.00  0.00     0.189 C 
HETATM   22  O1  UNL     1      15.644   1.321  47.642  1.00  0.00    -0.371 OA
HETATM   23  C9  UNL     1      15.954   0.827  48.917  1.00  0.00     0.287 C 
ENDBRANCH  18  19
ENDBRANCH  17  18
ENDBRANCH  14  17
ENDBRANCH  11  13
ENDBRANCH   1  11
BRANCH   8  24
HETATM   24  C18 UNL     1      26.737   1.713  51.290  1.00  0.00     0.203 C 
BRANCH  24  25
HETATM   25  O2  UNL     1      27.265   2.821  51.945  1.00  0.00    -0.396 OA
HETATM   26  H25 UNL     1      27.181   3.646  51.400  1.00  0.00     0.209 HD
ENDBRANCH  24  25
ENDBRANCH   8  24
BRANCH   7  27
HETATM   27  C15 UNL     1      27.791  -0.426  52.995  1.00  0.00     0.035 C 
HETATM   28  C16 UNL     1      28.518  -0.069  54.248  1.00  0.00     0.010 C 
ENDBRANCH   7  27
TORSDOF 9
ENDMDL
MODEL 8
REMARK VINA RESULT:      -6.5      5.274      9.237
REMARK  9 active torsions:
REMARK  status: ('A' for Active; 'I' for Inactive)
REMARK    1  A    between atoms: C2_2  and  C3_3 
REMARK    2  A    between atoms: C3_3  and  N2_12 
REMARK    3  A    between atoms: C4_4  and  C5_5 
REMARK    4  A    between atoms: C5_5  and  C6_6 
REMARK    5  A    between atoms: C6_6  and  N1_7 
REMARK    6  A    between atoms: N2_12  and  C10_13 
REMARK    7  A    between atoms: C14_19  and  C15_20 
REMARK    8  A    between atoms: C17_22  and  C18_23 
REMARK    9  A    between atoms: C18_23  and  O2_24 
ROOT
HETATM    1  C10 UNL     1      23.086   1.090  52.407  1.00  0.00     0.141 A 
HETATM    2  N3  UNL     1      22.473   2.290  52.364  1.00  0.00    -0.224 NA
HETATM    3  C11 UNL     1      23.214   3.428  52.558  1.00  0.00     0.236 A 
HETATM    4  N4  UNL     1      24.519   3.309  52.785  1.00  0.00    -0.241 NA
HETATM    5  C12 UNL     1      25.192   2.154  52.841  1.00  0.00     0.072 A 
HETATM    6  C13 UNL     1      26.538   2.013  53.080  1.00  0.00     0.040 A 
HETATM    7  C14 UNL     1      27.174   0.766  53.129  1.00  0.00    -0.048 A 
HETATM    8  C17 UNL     1      26.393  -0.352  52.930  1.00  0.00    -0.028 A 
HETATM    9  C19 UNL     1      25.032  -0.270  52.686  1.00  0.00     0.027 A 
HETATM   10  C20 UNL     1      24.440   1.004  52.643  1.00  0.00     0.039 A 
ENDROOT
BRANCH   1  11
HETATM   11  N2  UNL     1      22.270  -0.039  52.221  1.00  0.00    -0.347 N 
HETATM   12  H15 UNL     1      22.847  -0.825  51.890  1.00  0.00     0.167 HD
BRANCH  11  13
HETATM   13  C3  UNL     1      20.850  -0.053  52.458  1.00  0.00    -0.007 C 
HETATM   14  C4  UNL     1      20.236   0.126  51.307  1.00  0.00     0.048 C 
BRANCH  13  15
HETATM   15  C2  UNL     1      20.652  -0.280  53.906  1.00  0.00     0.048 C 
HETATM   16  C1  UNL     1      21.323  -1.586  54.327  1.00  0.00     0.011 C 
ENDBRANCH  13  15
BRANCH  14  17
HETATM   17  C5  UNL     1      18.875   0.030  51.898  1.00  0.00     0.077 C 
BRANCH  17  18
HETATM   18  C6  UNL     1      17.617   0.421  52.113  1.00  0.00     0.067 C 
BRANCH  18  19
HETATM   19  N1  UNL     1      16.183   0.371  52.244  1.00  0.00    -0.389 N 
HETATM   20  C7  UNL     1      15.050  -0.510  52.563  1.00  0.00     0.145 C 
HETATM   21  C8  UNL     1      13.996   0.501  52.878  1.00  0.00     0.189 C 
HETATM   22  O1  UNL     1      14.615   1.739  52.929  1.00  0.00    -0.371 OA
HETATM   23  C9  UNL     1      15.612   1.692  51.945  1.00  0.00     0.287 C 
ENDBRANCH  18  19
ENDBRANCH  17  18
ENDBRANCH  14  17
ENDBRANCH  11  13
ENDBRANCH   1  11
BRANCH   8  24
HETATM   24  C18 UNL     1      27.084  -1.647  53.023  1.00  0.00     0.203 C 
BRANCH  24  25
HETATM   25  O2  UNL     1      26.766  -2.413  51.906  1.00  0.00    -0.396 OA
HETATM   26  H25 UNL     1      27.513  -3.011  51.644  1.00  0.00     0.209 HD
ENDBRANCH  24  25
ENDBRANCH   8  24
BRANCH   7  27
HETATM   27  C15 UNL     1      28.621   0.825  53.372  1.00  0.00     0.035 C 
HETATM   28  C16 UNL     1      29.105   2.100  53.977  1.00  0.00     0.010 C 
ENDBRANCH   7  27
TORSDOF 9
ENDMDL
MODEL 9
REMARK VINA RESULT:      -6.4      4.060      8.987
REMARK  9 active torsions:
REMARK  status: ('A' for Active; 'I' for Inactive)
REMARK    1  A    between atoms: C2_2  and  C3_3 
REMARK    2  A    between atoms: C3_3  and  N2_12 
REMARK    3  A    between atoms: C4_4  and  C5_5 
REMARK    4  A    between atoms: C5_5  and  C6_6 
REMARK    5  A    between atoms: C6_6  and  N1_7 
REMARK    6  A    between atoms: N2_12  and  C10_13 
REMARK    7  A    between atoms: C14_19  and  C15_20 
REMARK    8  A    between atoms: C17_22  and  C18_23 
REMARK    9  A    between atoms: C18_23  and  O2_24 
ROOT
HETATM    1  C10 UNL     1      29.607   7.192  48.220  1.00  0.00     0.141 A 
HETATM    2  N3  UNL     1      29.415   8.404  48.777  1.00  0.00    -0.224 NA
HETATM    3  C11 UNL     1      30.469   9.036  49.388  1.00  0.00     0.236 A 
HETATM    4  N4  UNL     1      31.651   8.427  49.411  1.00  0.00    -0.241 NA
HETATM    5  C12 UNL     1      31.913   7.227  48.880  1.00  0.00     0.072 A 
HETATM    6  C13 UNL     1      33.127   6.582  48.901  1.00  0.00     0.040 A 
HETATM    7  C14 UNL     1      33.326   5.320  48.327  1.00  0.00    -0.048 A 
HETATM    8  C17 UNL     1      32.241   4.720  47.725  1.00  0.00    -0.028 A 
HETATM    9  C19 UNL     1      30.995   5.323  47.674  1.00  0.00     0.027 A 
HETATM   10  C20 UNL     1      30.846   6.591  48.262  1.00  0.00     0.039 A 
ENDROOT
BRANCH   1  11
HETATM   11  N2  UNL     1      28.485   6.587  47.628  1.00  0.00    -0.347 N 
HETATM   12  H15 UNL     1      28.549   6.679  46.604  1.00  0.00     0.167 HD
BRANCH  11  13
HETATM   13  C3  UNL     1      27.426   5.956  48.371  1.00  0.00    -0.007 C 
HETATM   14  C4  UNL     1      27.830   4.756  48.731  1.00  0.00     0.048 C 
BRANCH  13  15
HETATM   15  C2  UNL     1      26.309   6.923  48.443  1.00  0.00     0.048 C 
HETATM   16  C1  UNL     1      26.271   7.575  49.825  1.00  0.00     0.011 C 
ENDBRANCH  13  15
BRANCH  14  17
HETATM   17  C5  UNL     1      26.571   4.435  49.455  1.00  0.00     0.077 C 
BRANCH  17  18
HETATM   18  C6  UNL     1      25.768   3.689  50.217  1.00  0.00     0.067 C 
BRANCH  18  19
HETATM   19  N1  UNL     1      25.333   2.773  51.241  1.00  0.00    -0.389 N 
HETATM   20  C7  UNL     1      25.612   1.471  51.864  1.00  0.00     0.145 C 
HETATM   21  C8  UNL     1      24.880   1.623  53.158  1.00  0.00     0.189 C 
HETATM   22  O1  UNL     1      24.480   2.946  53.251  1.00  0.00    -0.371 OA
HETATM   23  C9  UNL     1      24.166   3.327  51.939  1.00  0.00     0.287 C 
ENDBRANCH  18  19
ENDBRANCH  17  18
ENDBRANCH  14  17
ENDBRANCH  11  13
ENDBRANCH   1  11
BRANCH   8  24
HETATM   24  C18 UNL     1      32.474   3.381  47.162  1.00  0.00     0.203 C 
BRANCH  24  25
HETATM   25  O2  UNL     1      31.931   3.324  45.883  1.00  0.00    -0.396 OA
HETATM   26  H25 UNL     1      32.515   2.825  45.256  1.00  0.00     0.209 HD
ENDBRANCH  24  25
ENDBRANCH   8  24
BRANCH   7  27
HETATM   27  C15 UNL     1      34.698   4.809  48.431  1.00  0.00     0.035 C 
HETATM   28  C16 UNL     1      35.625   5.656  49.237  1.00  0.00     0.010 C 
ENDBRANCH   7  27
TORSDOF 9
ENDMDL
