MODEL 1
REMARK VINA RESULT:      -9.2      0.000      0.000
REMARK  5 active torsions:
REMARK  status: ('A' for Active; 'I' for Inactive)
REMARK    1  A    between atoms: C3_4  and  C4_5 
REMARK    2  A    between atoms: C11_14  and  C12_15 
REMARK    3  A    between atoms: C16_20  and  O3_21 
REMARK    4  A    between atoms: C17_22  and  O4_23 
REMARK    5  A    between atoms: C19_25  and  O5_26 
ROOT
HETATM    1  O1  UNL     1      21.127  -1.823  55.055  1.00  0.00    -0.287 OA
HETATM    2  C1  UNL     1      21.644  -1.104  54.162  1.00  0.00     0.190 A 
HETATM    3  C2  UNL     1      22.986  -0.825  54.141  1.00  0.00     0.094 A 
HETATM    4  C3  UNL     1      23.645  -0.065  53.228  1.00  0.00     0.091 A 
HETATM    5  O2  UNL     1      22.841   0.409  52.311  1.00  0.00    -0.308 OA
HETATM    6  C10 UNL     1      21.551   0.192  52.256  1.00  0.00     0.102 A 
HETATM    7  C11 UNL     1      20.865   0.791  51.191  1.00  0.00     0.017 A 
HETATM    8  C17 UNL     1      19.506   0.553  51.147  1.00  0.00     0.077 A 
HETATM    9  C18 UNL     1      18.812  -0.214  52.059  1.00  0.00     0.074 A 
HETATM   10  C19 UNL     1      19.496  -0.799  53.104  1.00  0.00     0.085 A 
HETATM   11  C20 UNL     1      20.853  -0.573  53.165  1.00  0.00     0.082 A 
ENDROOT
BRANCH   7  12
HETATM   12  C12 UNL     1      21.563   1.605  50.216  1.00  0.00     0.056 C 
HETATM   13  C13 UNL     1      21.453   1.139  48.785  1.00  0.00     0.031 C 
HETATM   14  C14 UNL     1      22.327   1.946  47.888  1.00  0.00     0.114 C 
HETATM   15  N1  UNL     1      22.908   3.118  48.358  1.00  0.00    -0.419 N 
HETATM   16  C15 UNL     1      22.504   3.719  49.572  1.00  0.00     0.146 C 
HETATM   17  H11 UNL     1      23.927   3.250  48.200  1.00  0.00     0.153 HD
HETATM   18  C16 UNL     1      21.275   3.069  50.200  1.00  0.00     0.144 C 
BRANCH  18  19
HETATM   19  O3  UNL     1      20.235   3.450  49.350  1.00  0.00    -0.393 OA
HETATM   20  H15 UNL     1      19.604   4.076  49.782  1.00  0.00     0.210 HD
ENDBRANCH  18  19
ENDBRANCH   7  12
BRANCH   8  21
HETATM   21  O4  UNL     1      18.706   1.085  50.147  1.00  0.00    -0.360 OA
HETATM   22  H16 UNL     1      18.612   2.095  50.122  1.00  0.00     0.217 HD
ENDBRANCH   8  21
BRANCH   4  23
HETATM   23  C4  UNL     1      25.041   0.283  53.122  1.00  0.00     0.020 A 
HETATM   24  C5  UNL     1      25.949  -0.740  52.961  1.00  0.00     0.016 A 
HETATM   25  C6  UNL     1      27.302  -0.554  52.847  1.00  0.00     0.001 A 
HETATM   26  C7  UNL     1      27.838   0.712  52.887  1.00  0.00     0.002 A 
HETATM   27  C8  UNL     1      26.981   1.750  53.045  1.00  0.00     0.025 A 
HETATM   28  C9  UNL     1      25.642   1.513  53.155  1.00  0.00     0.047 A 
HETATM   29 CL1  UNL     1      24.653   2.933  53.350  1.00  0.00    -0.083 Cl
ENDBRANCH   4  23
BRANCH  10  30
HETATM   30  O5  UNL     1      18.943  -1.594  54.099  1.00  0.00    -0.360 OA
HETATM   31  H18 UNL     1      19.453  -2.446  54.311  1.00  0.00     0.217 HD
ENDBRANCH  10  30
TORSDOF 5
ENDMDL
MODEL 2
REMARK VINA RESULT:      -9.1      2.090      2.562
REMARK  5 active torsions:
REMARK  status: ('A' for Active; 'I' for Inactive)
REMARK    1  A    between atoms: C3_4  and  C4_5 
REMARK    2  A    between atoms: C11_14  and  C12_15 
REMARK    3  A    between atoms: C16_20  and  O3_21 
REMARK    4  A    between atoms: C17_22  and  O4_23 
REMARK    5  A    between atoms: C19_25  and  O5_26 
ROOT
HETATM    1  O1  UNL     1      22.290  -1.662  55.345  1.00  0.00    -0.287 OA
HETATM    2  C1  UNL     1      22.960  -0.893  54.610  1.00  0.00     0.190 A 
HETATM    3  C2  UNL     1      24.330  -0.927  54.582  1.00  0.00     0.094 A 
HETATM    4  C3  UNL     1      25.148  -0.146  53.828  1.00  0.00     0.091 A 
HETATM    5  O2  UNL     1      24.476   0.696  53.085  1.00  0.00    -0.308 OA
HETATM    6  C10 UNL     1      23.171   0.794  53.052  1.00  0.00     0.102 A 
HETATM    7  C11 UNL     1      22.643   1.762  52.186  1.00  0.00     0.017 A 
HETATM    8  C17 UNL     1      21.266   1.853  52.162  1.00  0.00     0.077 A 
HETATM    9  C18 UNL     1      20.412   1.074  52.914  1.00  0.00     0.074 A 
HETATM   10  C19 UNL     1      20.942   0.125  53.764  1.00  0.00     0.085 A 
HETATM   11  C20 UNL     1      22.314   0.018  53.801  1.00  0.00     0.082 A 
ENDROOT
BRANCH   7  12
HETATM   12  C12 UNL     1      23.511   2.599  51.383  1.00  0.00     0.056 C 
HETATM   13  C13 UNL     1      23.296   2.514  49.892  1.00  0.00     0.031 C 
HETATM   14  C14 UNL     1      24.334   3.287  49.154  1.00  0.00     0.114 C 
HETATM   15  N1  UNL     1      25.171   4.156  49.843  1.00  0.00    -0.419 N 
HETATM   16  C15 UNL     1      24.917   4.536  51.180  1.00  0.00     0.146 C 
HETATM   17  H11 UNL     1      26.193   4.087  49.665  1.00  0.00     0.153 HD
HETATM   18  C16 UNL     1      23.571   4.054  51.712  1.00  0.00     0.144 C 
BRANCH  18  19
HETATM   19  O3  UNL     1      22.648   4.846  51.026  1.00  0.00    -0.393 OA
HETATM   20  H15 UNL     1      23.083   5.525  50.455  1.00  0.00     0.210 HD
ENDBRANCH  18  19
ENDBRANCH   7  12
BRANCH   8  21
HETATM   21  O4  UNL     1      20.611   2.768  51.351  1.00  0.00    -0.360 OA
HETATM   22  H16 UNL     1      20.099   2.396  50.558  1.00  0.00     0.217 HD
ENDBRANCH   8  21
BRANCH   4  23
HETATM   23  C4  UNL     1      26.586  -0.106  53.729  1.00  0.00     0.020 A 
HETATM   24  C5  UNL     1      27.243   0.954  54.314  1.00  0.00     0.016 A 
HETATM   25  C6  UNL     1      28.604   1.116  54.298  1.00  0.00     0.001 A 
HETATM   26  C7  UNL     1      29.410   0.194  53.673  1.00  0.00     0.002 A 
HETATM   27  C8  UNL     1      28.806  -0.867  53.083  1.00  0.00     0.025 A 
HETATM   28  C9  UNL     1      27.447  -0.984  53.127  1.00  0.00     0.047 A 
HETATM   29 CL1  UNL     1      26.800  -2.393  52.332  1.00  0.00    -0.083 Cl
ENDBRANCH   4  23
BRANCH  10  30
HETATM   30  O5  UNL     1      20.219  -0.732  54.582  1.00  0.00    -0.360 OA
HETATM   31  H18 UNL     1      20.025  -1.649  54.192  1.00  0.00     0.217 HD
ENDBRANCH  10  30
TORSDOF 5
ENDMDL
MODEL 3
REMARK VINA RESULT:      -9.0      2.553      5.667
REMARK  5 active torsions:
REMARK  status: ('A' for Active; 'I' for Inactive)
REMARK    1  A    between atoms: C3_4  and  C4_5 
REMARK    2  A    between atoms: C11_14  and  C12_15 
REMARK    3  A    between atoms: C16_20  and  O3_21 
REMARK    4  A    between atoms: C17_22  and  O4_23 
REMARK    5  A    between atoms: C19_25  and  O5_26 
ROOT
HETATM    1  O1  UNL     1      25.236  -1.487  55.354  1.00  0.00    -0.287 OA
HETATM    2  C1  UNL     1      24.731  -0.730  54.485  1.00  0.00     0.190 A 
HETATM    3  C2  UNL     1      23.411  -0.819  54.125  1.00  0.00     0.094 A 
HETATM    4  C3  UNL     1      22.767  -0.055  53.204  1.00  0.00     0.091 A 
HETATM    5  O2  UNL     1      23.561   0.828  52.655  1.00  0.00    -0.308 OA
HETATM    6  C10 UNL     1      24.830   0.980  52.941  1.00  0.00     0.102 A 
HETATM    7  C11 UNL     1      25.508   1.986  52.240  1.00  0.00     0.017 A 
HETATM    8  C17 UNL     1      26.845   2.134  52.553  1.00  0.00     0.077 A 
HETATM    9  C18 UNL     1      27.524   1.375  53.482  1.00  0.00     0.074 A 
HETATM   10  C19 UNL     1      26.847   0.386  54.166  1.00  0.00     0.085 A 
HETATM   11  C20 UNL     1      25.512   0.224  53.868  1.00  0.00     0.082 A 
ENDROOT
BRANCH   7  12
HETATM   12  C12 UNL     1      24.825   2.801  51.256  1.00  0.00     0.056 C 
HETATM   13  C13 UNL     1      24.072   3.988  51.806  1.00  0.00     0.031 C 
HETATM   14  C14 UNL     1      23.282   4.664  50.739  1.00  0.00     0.114 C 
HETATM   15  N1  UNL     1      23.498   4.339  49.406  1.00  0.00    -0.419 N 
HETATM   16  C15 UNL     1      24.614   3.577  48.992  1.00  0.00     0.146 C 
HETATM   17  H11 UNL     1      22.666   4.127  48.818  1.00  0.00     0.153 HD
HETATM   18  C16 UNL     1      25.625   3.314  50.104  1.00  0.00     0.144 C 
BRANCH  18  19
HETATM   19  O3  UNL     1      26.212   4.563  50.312  1.00  0.00    -0.393 OA
HETATM   20  H15 UNL     1      26.793   4.580  51.111  1.00  0.00     0.210 HD
ENDBRANCH  18  19
ENDBRANCH   7  12
BRANCH   8  21
HETATM   21  O4  UNL     1      27.635   3.091  51.934  1.00  0.00    -0.360 OA
HETATM   22  H16 UNL     1      28.628   3.068  52.138  1.00  0.00     0.217 HD
ENDBRANCH   8  21
BRANCH   4  23
HETATM   23  C4  UNL     1      21.395  -0.072  52.759  1.00  0.00     0.020 A 
HETATM   24  C5  UNL     1      20.446  -0.587  53.616  1.00  0.00     0.016 A 
HETATM   25  C6  UNL     1      19.110  -0.663  53.324  1.00  0.00     0.001 A 
HETATM   26  C7  UNL     1      18.632  -0.212  52.116  1.00  0.00     0.002 A 
HETATM   27  C8  UNL     1      19.530   0.303  51.241  1.00  0.00     0.025 A 
HETATM   28  C9  UNL     1      20.851   0.357  51.579  1.00  0.00     0.047 A 
HETATM   29 CL1  UNL     1      21.897   1.043  50.366  1.00  0.00    -0.083 Cl
ENDBRANCH   4  23
BRANCH  10  30
HETATM   30  O5  UNL     1      27.387  -0.458  55.127  1.00  0.00    -0.360 OA
HETATM   31  H18 UNL     1      26.764  -0.712  55.887  1.00  0.00     0.217 HD
ENDBRANCH  10  30
TORSDOF 5
ENDMDL
MODEL 4
REMARK VINA RESULT:      -8.9      2.318      4.047
REMARK  5 active torsions:
REMARK  status: ('A' for Active; 'I' for Inactive)
REMARK    1  A    between atoms: C3_4  and  C4_5 
REMARK    2  A    between atoms: C11_14  and  C12_15 
REMARK    3  A    between atoms: C16_20  and  O3_21 
REMARK    4  A    between atoms: C17_22  and  O4_23 
REMARK    5  A    between atoms: C19_25  and  O5_26 
ROOT
HETATM    1  O1  UNL     1      26.502  -0.350  54.954  1.00  0.00    -0.287 OA
HETATM    2  C1  UNL     1      25.636   0.159  54.198  1.00  0.00     0.190 A 
HETATM    3  C2  UNL     1      25.953   1.124  53.277  1.00  0.00     0.094 A 
HETATM    4  C3  UNL     1      25.100   1.737  52.416  1.00  0.00     0.091 A 
HETATM    5  O2  UNL     1      23.873   1.303  52.545  1.00  0.00    -0.308 OA
HETATM    6  C10 UNL     1      23.485   0.386  53.397  1.00  0.00     0.102 A 
HETATM    7  C11 UNL     1      22.122   0.059  53.379  1.00  0.00     0.017 A 
HETATM    8  C17 UNL     1      21.729  -0.908  54.282  1.00  0.00     0.077 A 
HETATM    9  C18 UNL     1      22.572  -1.547  55.167  1.00  0.00     0.074 A 
HETATM   10  C19 UNL     1      23.912  -1.218  55.177  1.00  0.00     0.085 A 
HETATM   11  C20 UNL     1      24.323  -0.255  54.282  1.00  0.00     0.082 A 
ENDROOT
BRANCH   7  12
HETATM   12  C12 UNL     1      21.209   0.713  52.464  1.00  0.00     0.056 C 
HETATM   13  C13 UNL     1      21.084   2.208  52.629  1.00  0.00     0.031 C 
HETATM   14  C14 UNL     1      20.013   2.758  51.752  1.00  0.00     0.114 C 
HETATM   15  N1  UNL     1      19.458   1.964  50.756  1.00  0.00    -0.419 N 
HETATM   16  C15 UNL     1      20.039   0.737  50.366  1.00  0.00     0.146 C 
HETATM   17  H11 UNL     1      18.421   1.919  50.695  1.00  0.00     0.153 HD
HETATM   18  C16 UNL     1      21.400   0.471  51.003  1.00  0.00     0.144 C 
BRANCH  18  19
HETATM   19  O3  UNL     1      22.242   1.385  50.365  1.00  0.00    -0.393 OA
HETATM   20  H15 UNL     1      22.100   2.311  50.677  1.00  0.00     0.210 HD
ENDBRANCH  18  19
ENDBRANCH   7  12
BRANCH   8  21
HETATM   21  O4  UNL     1      20.410  -1.327  54.372  1.00  0.00    -0.360 OA
HETATM   22  H16 UNL     1      19.718  -0.777  53.874  1.00  0.00     0.217 HD
ENDBRANCH   8  21
BRANCH   4  23
HETATM   23  C4  UNL     1      25.335   2.753  51.419  1.00  0.00     0.020 A 
HETATM   24  C5  UNL     1      26.283   2.499  50.451  1.00  0.00     0.016 A 
HETATM   25  C6  UNL     1      26.606   3.373  49.447  1.00  0.00     0.001 A 
HETATM   26  C7  UNL     1      25.977   4.592  49.352  1.00  0.00     0.002 A 
HETATM   27  C8  UNL     1      25.037   4.886  50.285  1.00  0.00     0.025 A 
HETATM   28  C9  UNL     1      24.751   3.981  51.266  1.00  0.00     0.047 A 
HETATM   29 CL1  UNL     1      23.524   4.481  52.396  1.00  0.00    -0.083 Cl
ENDBRANCH   4  23
BRANCH  10  30
HETATM   30  O5  UNL     1      24.882  -1.768  56.004  1.00  0.00    -0.360 OA
HETATM   31  H18 UNL     1      25.603  -2.306  55.534  1.00  0.00     0.217 HD
ENDBRANCH  10  30
TORSDOF 5
ENDMDL
MODEL 5
REMARK VINA RESULT:      -8.7      2.564      5.647
REMARK  5 active torsions:
REMARK  status: ('A' for Active; 'I' for Inactive)
REMARK    1  A    between atoms: C3_4  and  C4_5 
REMARK    2  A    between atoms: C11_14  and  C12_15 
REMARK    3  A    between atoms: C16_20  and  O3_21 
REMARK    4  A    between atoms: C17_22  and  O4_23 
REMARK    5  A    between atoms: C19_25  and  O5_26 
ROOT
HETATM    1  O1  UNL     1      22.665  -2.232  55.326  1.00  0.00    -0.287 OA
HETATM    2  C1  UNL     1      22.621  -1.321  54.461  1.00  0.00     0.190 A 
HETATM    3  C2  UNL     1      21.506  -1.100  53.694  1.00  0.00     0.094 A 
HETATM    4  C3  UNL     1      21.354  -0.148  52.737  1.00  0.00     0.091 A 
HETATM    5  O2  UNL     1      22.427   0.586  52.597  1.00  0.00    -0.308 OA
HETATM    6  C10 UNL     1      23.531   0.443  53.287  1.00  0.00     0.102 A 
HETATM    7  C11 UNL     1      24.571   1.334  52.986  1.00  0.00     0.017 A 
HETATM    8  C17 UNL     1      25.728   1.170  53.721  1.00  0.00     0.077 A 
HETATM    9  C18 UNL     1      25.911   0.215  54.698  1.00  0.00     0.074 A 
HETATM   10  C19 UNL     1      24.882  -0.658  54.986  1.00  0.00     0.085 A 
HETATM   11  C20 UNL     1      23.719  -0.510  54.264  1.00  0.00     0.082 A 
ENDROOT
BRANCH   7  12
HETATM   12  C12 UNL     1      24.412   2.349  51.964  1.00  0.00     0.056 C 
HETATM   13  C13 UNL     1      24.135   3.743  52.471  1.00  0.00     0.031 C 
HETATM   14  C14 UNL     1      23.835   4.674  51.348  1.00  0.00     0.114 C 
HETATM   15  N1  UNL     1      24.078   4.280  50.038  1.00  0.00    -0.419 N 
HETATM   16  C15 UNL     1      24.837   3.127  49.732  1.00  0.00     0.146 C 
HETATM   17  H11 UNL     1      23.318   4.419  49.342  1.00  0.00     0.153 HD
HETATM   18  C16 UNL     1      25.497   2.485  50.948  1.00  0.00     0.144 C 
BRANCH  18  19
HETATM   19  O3  UNL     1      26.505   3.390  51.287  1.00  0.00    -0.393 OA
HETATM   20  H15 UNL     1      26.386   4.269  50.851  1.00  0.00     0.210 HD
ENDBRANCH  18  19
ENDBRANCH   7  12
BRANCH   8  21
HETATM   21  O4  UNL     1      26.834   1.983  53.526  1.00  0.00    -0.360 OA
HETATM   22  H16 UNL     1      27.690   1.717  54.001  1.00  0.00     0.217 HD
ENDBRANCH   8  21
BRANCH   4  23
HETATM   23  C4  UNL     1      20.231   0.161  51.886  1.00  0.00     0.020 A 
HETATM   24  C5  UNL     1      20.467   0.913  50.756  1.00  0.00     0.016 A 
HETATM   25  C6  UNL     1      19.496   1.278  49.861  1.00  0.00     0.001 A 
HETATM   26  C7  UNL     1      18.189   0.897  50.054  1.00  0.00     0.002 A 
HETATM   27  C8  UNL     1      17.910   0.155  51.154  1.00  0.00     0.025 A 
HETATM   28  C9  UNL     1      18.912  -0.183  52.015  1.00  0.00     0.047 A 
HETATM   29 CL1  UNL     1      18.418  -1.139  53.385  1.00  0.00    -0.083 Cl
ENDBRANCH   4  23
BRANCH  10  30
HETATM   30  O5  UNL     1      24.911  -1.669  55.937  1.00  0.00    -0.360 OA
HETATM   31  H18 UNL     1      25.806  -2.135  56.052  1.00  0.00     0.217 HD
ENDBRANCH  10  30
TORSDOF 5
ENDMDL
MODEL 6
REMARK VINA RESULT:      -8.6      2.546      4.258
REMARK  5 active torsions:
REMARK  status: ('A' for Active; 'I' for Inactive)
REMARK    1  A    between atoms: C3_4  and  C4_5 
REMARK    2  A    between atoms: C11_14  and  C12_15 
REMARK    3  A    between atoms: C16_20  and  O3_21 
REMARK    4  A    between atoms: C17_22  and  O4_23 
REMARK    5  A    between atoms: C19_25  and  O5_26 
ROOT
HETATM    1  O1  UNL     1      26.907   0.287  54.031  1.00  0.00    -0.287 OA
HETATM    2  C1  UNL     1      26.030   0.827  53.310  1.00  0.00     0.190 A 
HETATM    3  C2  UNL     1      26.328   1.851  52.448  1.00  0.00     0.094 A 
HETATM    4  C3  UNL     1      25.462   2.501  51.628  1.00  0.00     0.091 A 
HETATM    5  O2  UNL     1      24.242   2.040  51.735  1.00  0.00    -0.308 OA
HETATM    6  C10 UNL     1      23.873   1.068  52.531  1.00  0.00     0.102 A 
HETATM    7  C11 UNL     1      22.515   0.721  52.499  1.00  0.00     0.017 A 
HETATM    8  C17 UNL     1      22.141  -0.305  53.343  1.00  0.00     0.077 A 
HETATM    9  C18 UNL     1      22.998  -0.983  54.185  1.00  0.00     0.074 A 
HETATM   10  C19 UNL     1      24.332  -0.633  54.210  1.00  0.00     0.085 A 
HETATM   11  C20 UNL     1      24.724   0.389  53.374  1.00  0.00     0.082 A 
ENDROOT
BRANCH   7  12
HETATM   12  C12 UNL     1      21.588   1.414  51.627  1.00  0.00     0.056 C 
HETATM   13  C13 UNL     1      21.067   0.607  50.462  1.00  0.00     0.031 C 
HETATM   14  C14 UNL     1      20.250   1.452  49.546  1.00  0.00     0.114 C 
HETATM   15  N1  UNL     1      19.852   2.722  49.946  1.00  0.00    -0.419 N 
HETATM   16  C15 UNL     1      19.971   3.157  51.285  1.00  0.00     0.146 C 
HETATM   17  H11 UNL     1      20.012   3.509  49.285  1.00  0.00     0.153 HD
HETATM   18  C16 UNL     1      20.395   2.056  52.253  1.00  0.00     0.144 C 
BRANCH  18  19
HETATM   19  O3  UNL     1      19.266   1.240  52.333  1.00  0.00    -0.393 OA
HETATM   20  H15 UNL     1      18.461   1.669  51.952  1.00  0.00     0.210 HD
ENDBRANCH  18  19
ENDBRANCH   7  12
BRANCH   8  21
HETATM   21  O4  UNL     1      20.830  -0.749  53.411  1.00  0.00    -0.360 OA
HETATM   22  H16 UNL     1      20.481  -1.015  54.326  1.00  0.00     0.217 HD
ENDBRANCH   8  21
BRANCH   4  23
HETATM   23  C4  UNL     1      25.677   3.579  50.694  1.00  0.00     0.020 A 
HETATM   24  C5  UNL     1      26.793   3.520  49.887  1.00  0.00     0.016 A 
HETATM   25  C6  UNL     1      27.118   4.472  48.957  1.00  0.00     0.001 A 
HETATM   26  C7  UNL     1      26.317   5.575  48.777  1.00  0.00     0.002 A 
HETATM   27  C8  UNL     1      25.208   5.676  49.550  1.00  0.00     0.025 A 
HETATM   28  C9  UNL     1      24.927   4.701  50.462  1.00  0.00     0.047 A 
HETATM   29 CL1  UNL     1      23.472   4.951  51.387  1.00  0.00    -0.083 Cl
ENDBRANCH   4  23
BRANCH  10  30
HETATM   30  O5  UNL     1      25.314  -1.217  54.999  1.00  0.00    -0.360 OA
HETATM   31  H18 UNL     1      25.700  -0.624  55.727  1.00  0.00     0.217 HD
ENDBRANCH  10  30
TORSDOF 5
ENDMDL
MODEL 7
REMARK VINA RESULT:      -8.6      2.018      3.323
REMARK  5 active torsions:
REMARK  status: ('A' for Active; 'I' for Inactive)
REMARK    1  A    between atoms: C3_4  and  C4_5 
REMARK    2  A    between atoms: C11_14  and  C12_15 
REMARK    3  A    between atoms: C16_20  and  O3_21 
REMARK    4  A    between atoms: C17_22  and  O4_23 
REMARK    5  A    between atoms: C19_25  and  O5_26 
ROOT
HETATM    1  O1  UNL     1      25.008  -1.063  54.960  1.00  0.00    -0.287 OA
HETATM    2  C1  UNL     1      24.390  -0.393  54.094  1.00  0.00     0.190 A 
HETATM    3  C2  UNL     1      25.037   0.461  53.238  1.00  0.00     0.094 A 
HETATM    4  C3  UNL     1      24.469   1.227  52.271  1.00  0.00     0.091 A 
HETATM    5  O2  UNL     1      23.171   1.074  52.220  1.00  0.00    -0.308 OA
HETATM    6  C10 UNL     1      22.476   0.281  52.998  1.00  0.00     0.102 A 
HETATM    7  C11 UNL     1      21.091   0.259  52.783  1.00  0.00     0.017 A 
HETATM    8  C17 UNL     1      20.373  -0.581  53.610  1.00  0.00     0.077 A 
HETATM    9  C18 UNL     1      20.922  -1.370  54.599  1.00  0.00     0.074 A 
HETATM   10  C19 UNL     1      22.286  -1.341  54.803  1.00  0.00     0.085 A 
HETATM   11  C20 UNL     1      23.020  -0.509  53.986  1.00  0.00     0.082 A 
ENDROOT
BRANCH   7  12
HETATM   12  C12 UNL     1      20.482   1.076  51.754  1.00  0.00     0.056 C 
HETATM   13  C13 UNL     1      19.524   0.357  50.836  1.00  0.00     0.031 C 
HETATM   14  C14 UNL     1      19.075   1.243  49.726  1.00  0.00     0.114 C 
HETATM   15  N1  UNL     1      19.340   2.606  49.777  1.00  0.00    -0.419 N 
HETATM   16  C15 UNL     1      19.794   3.236  50.958  1.00  0.00     0.146 C 
HETATM   17  H11 UNL     1      19.759   3.049  48.935  1.00  0.00     0.153 HD
HETATM   18  C16 UNL     1      19.786   2.326  52.182  1.00  0.00     0.144 C 
BRANCH  18  19
HETATM   19  O3  UNL     1      18.427   2.171  52.464  1.00  0.00    -0.393 OA
HETATM   20  H15 UNL     1      17.865   2.829  51.987  1.00  0.00     0.210 HD
ENDBRANCH  18  19
ENDBRANCH   7  12
BRANCH   8  21
HETATM   21  O4  UNL     1      18.995  -0.701  53.507  1.00  0.00    -0.360 OA
HETATM   22  H16 UNL     1      18.548  -1.396  54.096  1.00  0.00     0.217 HD
ENDBRANCH   8  21
BRANCH   4  23
HETATM   23  C4  UNL     1      25.059   2.148  51.330  1.00  0.00     0.020 A 
HETATM   24  C5  UNL     1      24.241   2.696  50.366  1.00  0.00     0.016 A 
HETATM   25  C6  UNL     1      24.667   3.583  49.412  1.00  0.00     0.001 A 
HETATM   26  C7  UNL     1      25.982   3.983  49.369  1.00  0.00     0.002 A 
HETATM   27  C8  UNL     1      26.824   3.469  50.298  1.00  0.00     0.025 A 
HETATM   28  C9  UNL     1      26.351   2.589  51.228  1.00  0.00     0.047 A 
HETATM   29 CL1  UNL     1      27.535   2.006  52.364  1.00  0.00    -0.083 Cl
ENDBRANCH   4  23
BRANCH  10  30
HETATM   30  O5  UNL     1      22.986  -2.072  55.753  1.00  0.00    -0.360 OA
HETATM   31  H18 UNL     1      22.713  -3.046  55.843  1.00  0.00     0.217 HD
ENDBRANCH  10  30
TORSDOF 5
ENDMDL
MODEL 8
REMARK VINA RESULT:      -8.2      2.530      5.256
REMARK  5 active torsions:
REMARK  status: ('A' for Active; 'I' for Inactive)
REMARK    1  A    between atoms: C3_4  and  C4_5 
REMARK    2  A    between atoms: C11_14  and  C12_15 
REMARK    3  A    between atoms: C16_20  and  O3_21 
REMARK    4  A    between atoms: C17_22  and  O4_23 
REMARK    5  A    between atoms: C19_25  and  O5_26 
ROOT
HETATM    1  O1  UNL     1      27.408   2.370  51.814  1.00  0.00    -0.287 OA
HETATM    2  C1  UNL     1      26.165   2.214  51.706  1.00  0.00     0.190 A 
HETATM    3  C2  UNL     1      25.475   1.319  52.481  1.00  0.00     0.094 A 
HETATM    4  C3  UNL     1      24.139   1.073  52.446  1.00  0.00     0.091 A 
HETATM    5  O2  UNL     1      23.527   1.807  51.554  1.00  0.00    -0.308 OA
HETATM    6  C10 UNL     1      24.108   2.684  50.774  1.00  0.00     0.102 A 
HETATM    7  C11 UNL     1      23.274   3.372  49.883  1.00  0.00     0.017 A 
HETATM    8  C17 UNL     1      23.901   4.293  49.068  1.00  0.00     0.077 A 
HETATM    9  C18 UNL     1      25.253   4.563  49.082  1.00  0.00     0.074 A 
HETATM   10  C19 UNL     1      26.066   3.880  49.962  1.00  0.00     0.085 A 
HETATM   11  C20 UNL     1      25.458   2.958  50.785  1.00  0.00     0.082 A 
ENDROOT
BRANCH   7  12
HETATM   12  C12 UNL     1      21.849   3.111  49.840  1.00  0.00     0.056 C 
HETATM   13  C13 UNL     1      21.459   1.655  49.767  1.00  0.00     0.031 C 
HETATM   14  C14 UNL     1      19.990   1.502  49.571  1.00  0.00     0.114 C 
HETATM   15  N1  UNL     1      19.152   2.599  49.728  1.00  0.00    -0.419 N 
HETATM   16  C15 UNL     1      19.599   3.804  50.316  1.00  0.00     0.146 C 
HETATM   17  H11 UNL     1      18.456   2.788  48.979  1.00  0.00     0.153 HD
HETATM   18  C16 UNL     1      21.001   3.714  50.910  1.00  0.00     0.144 C 
BRANCH  18  19
HETATM   19  O3  UNL     1      20.825   2.911  52.039  1.00  0.00    -0.393 OA
HETATM   20  H15 UNL     1      21.276   3.278  52.838  1.00  0.00     0.210 HD
ENDBRANCH  18  19
ENDBRANCH   7  12
BRANCH   8  21
HETATM   21  O4  UNL     1      23.195   5.043  48.139  1.00  0.00    -0.360 OA
HETATM   22  H16 UNL     1      23.389   4.863  47.160  1.00  0.00     0.217 HD
ENDBRANCH   8  21
BRANCH   4  23
HETATM   23  C4  UNL     1      23.328   0.160  53.214  1.00  0.00     0.020 A 
HETATM   24  C5  UNL     1      22.002   0.025  52.864  1.00  0.00     0.016 A 
HETATM   25  C6  UNL     1      21.120  -0.804  53.505  1.00  0.00     0.001 A 
HETATM   26  C7  UNL     1      21.531  -1.573  54.569  1.00  0.00     0.002 A 
HETATM   27  C8  UNL     1      22.828  -1.472  54.949  1.00  0.00     0.025 A 
HETATM   28  C9  UNL     1      23.668  -0.631  54.278  1.00  0.00     0.047 A 
HETATM   29 CL1  UNL     1      25.307  -0.600  54.866  1.00  0.00    -0.083 Cl
ENDBRANCH   4  23
BRANCH  10  30
HETATM   30  O5  UNL     1      27.439   4.039  50.097  1.00  0.00    -0.360 OA
HETATM   31  H18 UNL     1      27.735   4.846  50.637  1.00  0.00     0.217 HD
ENDBRANCH  10  30
TORSDOF 5
ENDMDL
MODEL 9
REMARK VINA RESULT:      -8.0      2.313      5.404
REMARK  5 active torsions:
REMARK  status: ('A' for Active; 'I' for Inactive)
REMARK    1  A    between atoms: C3_4  and  C4_5 
REMARK    2  A    between atoms: C11_14  and  C12_15 
REMARK    3  A    between atoms: C16_20  and  O3_21 
REMARK    4  A    between atoms: C17_22  and  O4_23 
REMARK    5  A    between atoms: C19_25  and  O5_26 
ROOT
HETATM    1  O1  UNL     1      25.787  -0.030  53.716  1.00  0.00    -0.287 OA
HETATM    2  C1  UNL     1      24.889   0.453  52.980  1.00  0.00     0.190 A 
HETATM    3  C2  UNL     1      23.581   0.055  53.073  1.00  0.00     0.094 A 
HETATM    4  C3  UNL     1      22.538   0.510  52.331  1.00  0.00     0.091 A 
HETATM    5  O2  UNL     1      22.909   1.417  51.465  1.00  0.00    -0.308 OA
HETATM    6  C10 UNL     1      24.134   1.854  51.311  1.00  0.00     0.102 A 
HETATM    7  C11 UNL     1      24.325   2.831  50.325  1.00  0.00     0.017 A 
HETATM    8  C17 UNL     1      25.621   3.281  50.174  1.00  0.00     0.077 A 
HETATM    9  C18 UNL     1      26.698   2.839  50.913  1.00  0.00     0.074 A 
HETATM   10  C19 UNL     1      26.500   1.875  51.880  1.00  0.00     0.085 A 
HETATM   11  C20 UNL     1      25.212   1.414  52.046  1.00  0.00     0.082 A 
ENDROOT
BRANCH   7  12
HETATM   12  C12 UNL     1      23.216   3.317  49.530  1.00  0.00     0.056 C 
HETATM   13  C13 UNL     1      22.355   2.251  48.897  1.00  0.00     0.031 C 
HETATM   14  C14 UNL     1      21.344   2.849  47.980  1.00  0.00     0.114 C 
HETATM   15  N1  UNL     1      21.125   4.221  47.992  1.00  0.00    -0.419 N 
HETATM   16  C15 UNL     1      21.636   5.052  49.015  1.00  0.00     0.146 C 
HETATM   17  H11 UNL     1      21.121   4.719  47.079  1.00  0.00     0.153 HD
HETATM   18  C16 UNL     1      22.275   4.285  50.168  1.00  0.00     0.144 C 
BRANCH  18  19
HETATM   19  O3  UNL     1      21.185   3.700  50.814  1.00  0.00    -0.393 OA
HETATM   20  H15 UNL     1      20.883   2.870  50.371  1.00  0.00     0.210 HD
ENDBRANCH  18  19
ENDBRANCH   7  12
BRANCH   8  21
HETATM   21  O4  UNL     1      25.952   4.247  49.236  1.00  0.00    -0.360 OA
HETATM   22  H16 UNL     1      26.882   4.649  49.297  1.00  0.00     0.217 HD
ENDBRANCH   8  21
BRANCH   4  23
HETATM   23  C4  UNL     1      21.139   0.157  52.354  1.00  0.00     0.020 A 
HETATM   24  C5  UNL     1      20.379   0.463  51.247  1.00  0.00     0.016 A 
HETATM   25  C6  UNL     1      19.042   0.185  51.133  1.00  0.00     0.001 A 
HETATM   26  C7  UNL     1      18.369  -0.438  52.158  1.00  0.00     0.002 A 
HETATM   27  C8  UNL     1      19.077  -0.757  53.269  1.00  0.00     0.025 A 
HETATM   28  C9  UNL     1      20.407  -0.459  53.334  1.00  0.00     0.047 A 
HETATM   29 CL1  UNL     1      21.198  -0.925  54.814  1.00  0.00    -0.083 Cl
ENDBRANCH   4  23
BRANCH  10  30
HETATM   30  O5  UNL     1      27.477   1.330  52.702  1.00  0.00    -0.360 OA
HETATM   31  H18 UNL     1      28.097   0.660  52.258  1.00  0.00     0.217 HD
ENDBRANCH  10  30
TORSDOF 5
ENDMDL
