MODEL 1
REMARK VINA RESULT:      -8.0      0.000      0.000
REMARK  9 active torsions:
REMARK  status: ('A' for Active; 'I' for Inactive)
REMARK    1  A    between atoms: O1_2  and  C2_3 
REMARK    2  A    between atoms: C7_8  and  N1_9 
REMARK    3  A    between atoms: N1_9  and  C8_10 
REMARK    4  A    between atoms: N1_9  and  O2_27 
REMARK    5  A    between atoms: C8_10  and  C9_11 
REMARK    6  A    between atoms: C9_11  and  C10_12 
REMARK    7  A    between atoms: C11_13  and  C12_14 
REMARK    8  A    between atoms: C12_14  and  N2_15 
REMARK    9  A    between atoms: N2_15  and  C13_16 
ROOT
HETATM    1  C10 UNL     1      27.939   5.076  48.496  1.00  0.00    -0.004 C 
HETATM    2  C11 UNL     1      27.050   4.381  49.179  1.00  0.00    -0.008 C 
ENDROOT
BRANCH   2   3
HETATM    3  C12 UNL     1      26.431   3.150  49.732  1.00  0.00     0.148 C 
BRANCH   3   4
HETATM    4  N2  UNL     1      26.241   3.400  51.173  1.00  0.00    -0.371 N 
HETATM    5  H14 UNL     1      25.827   4.269  51.591  1.00  0.00     0.161 HD
BRANCH   4   6
HETATM    6  C13 UNL     1      26.654   2.352  52.076  1.00  0.00     0.134 C 
HETATM    7  N3  UNL     1      27.909   2.269  52.386  1.00  0.00    -0.243 NA
HETATM    8  C14 UNL     1      28.523   1.303  53.263  1.00  0.00     0.115 C 
HETATM    9  C15 UNL     1      28.033   0.071  53.460  1.00  0.00    -0.003 C 
HETATM   10  C16 UNL     1      26.866  -0.699  52.958  1.00  0.00     0.069 C 
HETATM   11  C17 UNL     1      25.630   0.146  52.919  1.00  0.00    -0.023 A 
HETATM   12  C18 UNL     1      24.446  -0.481  53.311  1.00  0.00     0.124 A 
HETATM   13  C21 UNL     1      25.548   1.487  52.535  1.00  0.00     0.019 A 
HETATM   14  N4  UNL     1      23.300   0.215  53.305  1.00  0.00    -0.273 NA
HETATM   15  C19 UNL     1      23.244   1.510  52.930  1.00  0.00     0.117 A 
HETATM   16  C20 UNL     1      24.377   2.223  52.520  1.00  0.00     0.035 A 
ENDBRANCH   4   6
ENDBRANCH   3   4
ENDBRANCH   2   3
BRANCH   1  17
HETATM   17  C9  UNL     1      28.232   6.483  48.149  1.00  0.00     0.003 C 
BRANCH  17  18
HETATM   18  C8  UNL     1      29.525   6.559  48.071  1.00  0.00     0.167 C 
BRANCH  18  19
HETATM   19  N1  UNL     1      30.900   6.346  48.071  1.00  0.00    -0.245 N 
BRANCH  19  20
HETATM   20  C7  UNL     1      31.664   5.603  47.095  1.00  0.00     0.091 A 
HETATM   21  C2  UNL     1      32.251   6.348  46.103  1.00  0.00     0.097 A 
HETATM   22  C3  UNL     1      32.985   5.630  45.165  1.00  0.00     0.039 A 
HETATM   23  C4  UNL     1      33.071   4.256  45.289  1.00  0.00     0.003 A 
HETATM   24  C5  UNL     1      32.446   3.555  46.327  1.00  0.00     0.002 A 
HETATM   25  C6  UNL     1      31.712   4.244  47.271  1.00  0.00     0.034 A 
BRANCH  21  26
HETATM   26  O1  UNL     1      32.073   7.720  46.114  1.00  0.00    -0.354 OA
HETATM   27  C1  UNL     1      33.200   8.568  46.123  1.00  0.00     0.210 C 
ENDBRANCH  21  26
ENDBRANCH  19  20
BRANCH  19  28
HETATM   28  O2  UNL     1      31.482   6.940  49.168  1.00  0.00    -0.282 OA
HETATM   29  C22 UNL     1      31.005   8.268  49.212  1.00  0.00     0.238 C 
ENDBRANCH  19  28
ENDBRANCH  18  19
ENDBRANCH  17  18
ENDBRANCH   1  17
TORSDOF 9
ENDMDL
MODEL 2
REMARK VINA RESULT:      -7.9      4.578      6.478
REMARK  9 active torsions:
REMARK  status: ('A' for Active; 'I' for Inactive)
REMARK    1  A    between atoms: O1_2  and  C2_3 
REMARK    2  A    between atoms: C7_8  and  N1_9 
REMARK    3  A    between atoms: N1_9  and  C8_10 
REMARK    4  A    between atoms: N1_9  and  O2_27 
REMARK    5  A    between atoms: C8_10  and  C9_11 
REMARK    6  A    between atoms: C9_11  and  C10_12 
REMARK    7  A    between atoms: C11_13  and  C12_14 
REMARK    8  A    between atoms: C12_14  and  N2_15 
REMARK    9  A    between atoms: N2_15  and  C13_16 
ROOT
HETATM    1  C10 UNL     1      26.565   5.590  48.872  1.00  0.00    -0.004 C 
HETATM    2  C11 UNL     1      26.328   4.386  49.357  1.00  0.00    -0.008 C 
ENDROOT
BRANCH   2   3
HETATM    3  C12 UNL     1      26.684   3.084  49.976  1.00  0.00     0.148 C 
BRANCH   3   4
HETATM    4  N2  UNL     1      26.379   3.218  51.412  1.00  0.00    -0.371 N 
HETATM    5  H14 UNL     1      25.793   3.974  51.843  1.00  0.00     0.161 HD
BRANCH   4   6
HETATM    6  C13 UNL     1      26.933   2.216  52.292  1.00  0.00     0.134 C 
HETATM    7  N3  UNL     1      28.180   2.314  52.625  1.00  0.00    -0.243 NA
HETATM    8  C14 UNL     1      28.919   1.423  53.486  1.00  0.00     0.115 C 
HETATM    9  C15 UNL     1      28.620   0.126  53.635  1.00  0.00    -0.003 C 
HETATM   10  C16 UNL     1      27.591  -0.796  53.085  1.00  0.00     0.069 C 
HETATM   11  C17 UNL     1      26.242  -0.147  53.046  1.00  0.00    -0.023 A 
HETATM   12  C18 UNL     1      25.161  -0.959  53.394  1.00  0.00     0.124 A 
HETATM   13  C21 UNL     1      25.963   1.178  52.701  1.00  0.00     0.019 A 
HETATM   14  N4  UNL     1      23.923  -0.445  53.384  1.00  0.00    -0.273 NA
HETATM   15  C19 UNL     1      23.677   0.838  53.047  1.00  0.00     0.117 A 
HETATM   16  C20 UNL     1      24.695   1.728  52.684  1.00  0.00     0.035 A 
ENDBRANCH   4   6
ENDBRANCH   3   4
ENDBRANCH   2   3
BRANCH   1  17
HETATM   17  C9  UNL     1      25.824   6.717  48.269  1.00  0.00     0.003 C 
BRANCH  17  18
HETATM   18  C8  UNL     1      24.579   6.520  48.577  1.00  0.00     0.167 C 
BRANCH  18  19
HETATM   19  N1  UNL     1      23.308   6.015  48.836  1.00  0.00    -0.245 N 
BRANCH  19  20
HETATM   20  C7  UNL     1      22.878   4.641  48.714  1.00  0.00     0.091 A 
HETATM   21  C2  UNL     1      22.924   3.895  49.865  1.00  0.00     0.097 A 
HETATM   22  C3  UNL     1      22.510   2.573  49.743  1.00  0.00     0.039 A 
HETATM   23  C4  UNL     1      22.093   2.111  48.508  1.00  0.00     0.003 A 
HETATM   24  C5  UNL     1      22.069   2.926  47.371  1.00  0.00     0.002 A 
HETATM   25  C6  UNL     1      22.475   4.243  47.465  1.00  0.00     0.034 A 
BRANCH  21  26
HETATM   26  O1  UNL     1      23.367   4.501  51.028  1.00  0.00    -0.354 OA
HETATM   27  C1  UNL     1      22.474   4.677  52.104  1.00  0.00     0.210 C 
ENDBRANCH  21  26
ENDBRANCH  19  20
BRANCH  19  28
HETATM   28  O2  UNL     1      22.458   7.023  49.231  1.00  0.00    -0.282 OA
HETATM   29  C22 UNL     1      23.171   7.817  50.156  1.00  0.00     0.238 C 
ENDBRANCH  19  28
ENDBRANCH  18  19
ENDBRANCH  17  18
ENDBRANCH   1  17
TORSDOF 9
ENDMDL
MODEL 3
REMARK VINA RESULT:      -7.7      3.461      5.509
REMARK  9 active torsions:
REMARK  status: ('A' for Active; 'I' for Inactive)
REMARK    1  A    between atoms: O1_2  and  C2_3 
REMARK    2  A    between atoms: C7_8  and  N1_9 
REMARK    3  A    between atoms: N1_9  and  C8_10 
REMARK    4  A    between atoms: N1_9  and  O2_27 
REMARK    5  A    between atoms: C8_10  and  C9_11 
REMARK    6  A    between atoms: C9_11  and  C10_12 
REMARK    7  A    between atoms: C11_13  and  C12_14 
REMARK    8  A    between atoms: C12_14  and  N2_15 
REMARK    9  A    between atoms: N2_15  and  C13_16 
ROOT
HETATM    1  C10 UNL     1      27.773   5.130  48.497  1.00  0.00    -0.004 C 
HETATM    2  C11 UNL     1      26.942   4.347  49.159  1.00  0.00    -0.008 C 
ENDROOT
BRANCH   2   3
HETATM    3  C12 UNL     1      26.472   3.071  49.755  1.00  0.00     0.148 C 
BRANCH   3   4
HETATM    4  N2  UNL     1      26.281   3.337  51.193  1.00  0.00    -0.371 N 
HETATM    5  H14 UNL     1      25.878   4.215  51.601  1.00  0.00     0.161 HD
BRANCH   4   6
HETATM    6  C13 UNL     1      26.679   2.292  52.107  1.00  0.00     0.134 C 
HETATM    7  N3  UNL     1      27.932   2.194  52.419  1.00  0.00    -0.243 NA
HETATM    8  C14 UNL     1      28.531   1.228  53.306  1.00  0.00     0.115 C 
HETATM    9  C15 UNL     1      28.023   0.006  53.516  1.00  0.00    -0.003 C 
HETATM   10  C16 UNL     1      26.844  -0.752  53.021  1.00  0.00     0.069 C 
HETATM   11  C17 UNL     1      25.621   0.111  52.973  1.00  0.00    -0.023 A 
HETATM   12  C18 UNL     1      24.428  -0.494  53.371  1.00  0.00     0.124 A 
HETATM   13  C21 UNL     1      25.559   1.449  52.574  1.00  0.00     0.019 A 
HETATM   14  N4  UNL     1      23.292   0.219  53.357  1.00  0.00    -0.273 NA
HETATM   15  C19 UNL     1      23.256   1.510  52.967  1.00  0.00     0.117 A 
HETATM   16  C20 UNL     1      24.400   2.202  52.551  1.00  0.00     0.035 A 
ENDBRANCH   4   6
ENDBRANCH   3   4
ENDBRANCH   2   3
BRANCH   1  17
HETATM   17  C9  UNL     1      27.876   6.540  48.067  1.00  0.00     0.003 C 
BRANCH  17  18
HETATM   18  C8  UNL     1      26.895   7.155  48.654  1.00  0.00     0.167 C 
BRANCH  18  19
HETATM   19  N1  UNL     1      25.676   7.581  49.173  1.00  0.00    -0.245 N 
BRANCH  19  20
HETATM   20  C7  UNL     1      24.616   6.749  49.695  1.00  0.00     0.091 A 
HETATM   21  C2  UNL     1      23.737   6.249  48.768  1.00  0.00     0.097 A 
HETATM   22  C3  UNL     1      22.718   5.449  49.275  1.00  0.00     0.039 A 
HETATM   23  C4  UNL     1      22.660   5.218  50.636  1.00  0.00     0.003 A 
HETATM   24  C5  UNL     1      23.591   5.759  51.530  1.00  0.00     0.002 A 
HETATM   25  C6  UNL     1      24.612   6.557  51.053  1.00  0.00     0.034 A 
BRANCH  21  26
HETATM   26  O1  UNL     1      23.928   6.570  47.435  1.00  0.00    -0.354 OA
HETATM   27  C1  UNL     1      23.033   7.454  46.798  1.00  0.00     0.210 C 
ENDBRANCH  21  26
ENDBRANCH  19  20
BRANCH  19  28
HETATM   28  O2  UNL     1      25.581   8.953  49.120  1.00  0.00    -0.282 OA
HETATM   29  C22 UNL     1      26.681   9.466  49.842  1.00  0.00     0.238 C 
ENDBRANCH  19  28
ENDBRANCH  18  19
ENDBRANCH  17  18
ENDBRANCH   1  17
TORSDOF 9
ENDMDL
MODEL 4
REMARK VINA RESULT:      -7.7      3.268      9.555
REMARK  9 active torsions:
REMARK  status: ('A' for Active; 'I' for Inactive)
REMARK    1  A    between atoms: O1_2  and  C2_3 
REMARK    2  A    between atoms: C7_8  and  N1_9 
REMARK    3  A    between atoms: N1_9  and  C8_10 
REMARK    4  A    between atoms: N1_9  and  O2_27 
REMARK    5  A    between atoms: C8_10  and  C9_11 
REMARK    6  A    between atoms: C9_11  and  C10_12 
REMARK    7  A    between atoms: C11_13  and  C12_14 
REMARK    8  A    between atoms: C12_14  and  N2_15 
REMARK    9  A    between atoms: N2_15  and  C13_16 
ROOT
HETATM    1  C10 UNL     1      26.732   4.266  49.551  1.00  0.00    -0.004 C 
HETATM    2  C11 UNL     1      27.464   5.015  48.749  1.00  0.00    -0.008 C 
ENDROOT
BRANCH   2   3
HETATM    3  C12 UNL     1      28.078   6.277  48.264  1.00  0.00     0.148 C 
BRANCH   3   4
HETATM    4  N2  UNL     1      29.461   6.280  48.775  1.00  0.00    -0.371 N 
HETATM    5  H14 UNL     1      29.998   5.434  49.085  1.00  0.00     0.161 HD
BRANCH   4   6
HETATM    6  C13 UNL     1      30.126   7.560  48.844  1.00  0.00     0.134 C 
HETATM    7  N3  UNL     1      29.408   8.614  49.066  1.00  0.00    -0.243 NA
HETATM    8  C14 UNL     1      29.874   9.975  49.171  1.00  0.00     0.115 C 
HETATM    9  C15 UNL     1      30.972  10.427  48.550  1.00  0.00    -0.003 C 
HETATM   10  C16 UNL     1      31.999   9.840  47.650  1.00  0.00     0.069 C 
HETATM   11  C17 UNL     1      32.418   8.479  48.113  1.00  0.00    -0.023 A 
HETATM   12  C18 UNL     1      33.778   8.185  48.004  1.00  0.00     0.124 A 
HETATM   13  C21 UNL     1      31.588   7.486  48.641  1.00  0.00     0.019 A 
HETATM   14  N4  UNL     1      34.226   6.986  48.401  1.00  0.00    -0.273 NA
HETATM   15  C19 UNL     1      33.406   6.041  48.908  1.00  0.00     0.117 A 
HETATM   16  C20 UNL     1      32.029   6.243  49.057  1.00  0.00     0.035 A 
ENDBRANCH   4   6
ENDBRANCH   3   4
ENDBRANCH   2   3
BRANCH   1  17
HETATM   17  C9  UNL     1      26.326   2.852  49.699  1.00  0.00     0.003 C 
BRANCH  17  18
HETATM   18  C8  UNL     1      26.130   2.678  50.970  1.00  0.00     0.167 C 
BRANCH  18  19
HETATM   19  N1  UNL     1      26.196   2.351  52.321  1.00  0.00    -0.245 N 
BRANCH  19  20
HETATM   20  C7  UNL     1      27.251   1.625  52.989  1.00  0.00     0.091 A 
HETATM   21  C2  UNL     1      27.076   0.267  53.081  1.00  0.00     0.097 A 
HETATM   22  C3  UNL     1      28.094  -0.429  53.726  1.00  0.00     0.039 A 
HETATM   23  C4  UNL     1      29.180   0.272  54.216  1.00  0.00     0.003 A 
HETATM   24  C5  UNL     1      29.297   1.661  54.089  1.00  0.00     0.002 A 
HETATM   25  C6  UNL     1      28.301   2.375  53.454  1.00  0.00     0.034 A 
BRANCH  21  26
HETATM   26  O1  UNL     1      25.931  -0.291  52.539  1.00  0.00    -0.354 OA
HETATM   27  C1  UNL     1      24.902  -0.735  53.395  1.00  0.00     0.210 C 
ENDBRANCH  21  26
ENDBRANCH  19  20
BRANCH  19  28
HETATM   28  O2  UNL     1      25.080   2.810  52.984  1.00  0.00    -0.282 OA
HETATM   29  C22 UNL     1      23.981   2.608  52.119  1.00  0.00     0.238 C 
ENDBRANCH  19  28
ENDBRANCH  18  19
ENDBRANCH  17  18
ENDBRANCH   1  17
TORSDOF 9
ENDMDL
MODEL 5
REMARK VINA RESULT:      -7.6      1.889      2.577
REMARK  9 active torsions:
REMARK  status: ('A' for Active; 'I' for Inactive)
REMARK    1  A    between atoms: O1_2  and  C2_3 
REMARK    2  A    between atoms: C7_8  and  N1_9 
REMARK    3  A    between atoms: N1_9  and  C8_10 
REMARK    4  A    between atoms: N1_9  and  O2_27 
REMARK    5  A    between atoms: C8_10  and  C9_11 
REMARK    6  A    between atoms: C9_11  and  C10_12 
REMARK    7  A    between atoms: C11_13  and  C12_14 
REMARK    8  A    between atoms: C12_14  and  N2_15 
REMARK    9  A    between atoms: N2_15  and  C13_16 
ROOT
HETATM    1  C10 UNL     1      26.824   5.619  48.871  1.00  0.00    -0.004 C 
HETATM    2  C11 UNL     1      26.396   4.426  49.235  1.00  0.00    -0.008 C 
ENDROOT
BRANCH   2   3
HETATM    3  C12 UNL     1      26.497   3.092  49.880  1.00  0.00     0.148 C 
BRANCH   3   4
HETATM    4  N2  UNL     1      26.354   3.327  51.329  1.00  0.00    -0.371 N 
HETATM    5  H14 UNL     1      25.964   4.196  51.769  1.00  0.00     0.161 HD
BRANCH   4   6
HETATM    6  C13 UNL     1      26.781   2.263  52.206  1.00  0.00     0.134 C 
HETATM    7  N3  UNL     1      28.036   2.194  52.520  1.00  0.00    -0.243 NA
HETATM    8  C14 UNL     1      28.662   1.216  53.375  1.00  0.00     0.115 C 
HETATM    9  C15 UNL     1      28.194  -0.029  53.537  1.00  0.00    -0.003 C 
HETATM   10  C16 UNL     1      27.042  -0.806  53.009  1.00  0.00     0.069 C 
HETATM   11  C17 UNL     1      25.792   0.018  52.987  1.00  0.00    -0.023 A 
HETATM   12  C18 UNL     1      24.617  -0.639  53.356  1.00  0.00     0.124 A 
HETATM   13  C21 UNL     1      25.688   1.367  52.637  1.00  0.00     0.019 A 
HETATM   14  N4  UNL     1      23.459   0.036  53.362  1.00  0.00    -0.273 NA
HETATM   15  C19 UNL     1      23.383   1.340  53.020  1.00  0.00     0.117 A 
HETATM   16  C20 UNL     1      24.505   2.083  52.636  1.00  0.00     0.035 A 
ENDBRANCH   4   6
ENDBRANCH   3   4
ENDBRANCH   2   3
BRANCH   1  17
HETATM   17  C9  UNL     1      26.336   6.805  48.135  1.00  0.00     0.003 C 
BRANCH  17  18
HETATM   18  C8  UNL     1      27.397   7.493  47.842  1.00  0.00     0.167 C 
BRANCH  18  19
HETATM   19  N1  UNL     1      28.677   7.959  47.556  1.00  0.00    -0.245 N 
BRANCH  19  20
HETATM   20  C7  UNL     1      29.916   7.514  48.151  1.00  0.00     0.091 A 
HETATM   21  C2  UNL     1      30.527   8.405  48.995  1.00  0.00     0.097 A 
HETATM   22  C3  UNL     1      31.721   7.973  49.565  1.00  0.00     0.039 A 
HETATM   23  C4  UNL     1      32.197   6.714  49.252  1.00  0.00     0.003 A 
HETATM   24  C5  UNL     1      31.522   5.851  48.381  1.00  0.00     0.002 A 
HETATM   25  C6  UNL     1      30.336   6.256  47.801  1.00  0.00     0.034 A 
BRANCH  21  26
HETATM   26  O1  UNL     1      29.926   9.633  49.209  1.00  0.00    -0.354 OA
HETATM   27  C1  UNL     1      30.694  10.811  49.109  1.00  0.00     0.210 C 
ENDBRANCH  21  26
ENDBRANCH  19  20
BRANCH  19  28
HETATM   28  O2  UNL     1      28.628   8.951  46.603  1.00  0.00    -0.282 OA
HETATM   29  C22 UNL     1      28.642   8.308  45.345  1.00  0.00     0.238 C 
ENDBRANCH  19  28
ENDBRANCH  18  19
ENDBRANCH  17  18
ENDBRANCH   1  17
TORSDOF 9
ENDMDL
MODEL 6
REMARK VINA RESULT:      -7.2      3.370     10.132
REMARK  9 active torsions:
REMARK  status: ('A' for Active; 'I' for Inactive)
REMARK    1  A    between atoms: O1_2  and  C2_3 
REMARK    2  A    between atoms: C7_8  and  N1_9 
REMARK    3  A    between atoms: N1_9  and  C8_10 
REMARK    4  A    between atoms: N1_9  and  O2_27 
REMARK    5  A    between atoms: C8_10  and  C9_11 
REMARK    6  A    between atoms: C9_11  and  C10_12 
REMARK    7  A    between atoms: C11_13  and  C12_14 
REMARK    8  A    between atoms: C12_14  and  N2_15 
REMARK    9  A    between atoms: N2_15  and  C13_16 
ROOT
HETATM    1  C10 UNL     1      26.440   4.210  49.359  1.00  0.00    -0.004 C 
HETATM    2  C11 UNL     1      27.370   5.032  48.910  1.00  0.00    -0.008 C 
ENDROOT
BRANCH   2   3
HETATM    3  C12 UNL     1      27.899   6.313  48.379  1.00  0.00     0.148 C 
BRANCH   3   4
HETATM    4  N2  UNL     1      29.353   6.287  48.623  1.00  0.00    -0.371 N 
HETATM    5  H14 UNL     1      29.942   5.422  48.700  1.00  0.00     0.161 HD
BRANCH   4   6
HETATM    6  C13 UNL     1      30.014   7.564  48.759  1.00  0.00     0.134 C 
HETATM    7  N3  UNL     1      29.284   8.613  48.969  1.00  0.00    -0.243 NA
HETATM    8  C14 UNL     1      29.744   9.970  49.132  1.00  0.00     0.115 C 
HETATM    9  C15 UNL     1      30.873  10.436  48.582  1.00  0.00    -0.003 C 
HETATM   10  C16 UNL     1      31.947   9.871  47.724  1.00  0.00     0.069 C 
HETATM   11  C17 UNL     1      32.340   8.498  48.175  1.00  0.00    -0.023 A 
HETATM   12  C18 UNL     1      33.704   8.206  48.131  1.00  0.00     0.124 A 
HETATM   13  C21 UNL     1      31.484   7.493  48.633  1.00  0.00     0.019 A 
HETATM   14  N4  UNL     1      34.131   6.997  48.522  1.00  0.00    -0.273 NA
HETATM   15  C19 UNL     1      33.285   6.041  48.961  1.00  0.00     0.117 A 
HETATM   16  C20 UNL     1      31.902   6.240  49.041  1.00  0.00     0.035 A 
ENDBRANCH   4   6
ENDBRANCH   3   4
ENDBRANCH   2   3
BRANCH   1  17
HETATM   17  C9  UNL     1      26.319   2.822  49.852  1.00  0.00     0.003 C 
BRANCH  17  18
HETATM   18  C8  UNL     1      25.262   2.811  50.605  1.00  0.00     0.167 C 
BRANCH  18  19
HETATM   19  N1  UNL     1      24.330   2.732  51.635  1.00  0.00    -0.245 N 
BRANCH  19  20
HETATM   20  C7  UNL     1      23.598   1.560  52.057  1.00  0.00     0.091 A 
HETATM   21  C2  UNL     1      24.204   0.791  53.017  1.00  0.00     0.097 A 
HETATM   22  C3  UNL     1      23.497  -0.338  53.420  1.00  0.00     0.039 A 
HETATM   23  C4  UNL     1      22.269  -0.601  52.843  1.00  0.00     0.003 A 
HETATM   24  C5  UNL     1      21.705   0.226  51.865  1.00  0.00     0.002 A 
HETATM   25  C6  UNL     1      22.387   1.352  51.448  1.00  0.00     0.034 A 
BRANCH  21  26
HETATM   26  O1  UNL     1      25.440   1.187  53.499  1.00  0.00    -0.354 OA
HETATM   27  C1  UNL     1      26.160   0.329  54.355  1.00  0.00     0.210 C 
ENDBRANCH  21  26
ENDBRANCH  19  20
BRANCH  19  28
HETATM   28  O2  UNL     1      24.164   3.962  52.232  1.00  0.00    -0.282 OA
HETATM   29  C22 UNL     1      23.424   4.756  51.328  1.00  0.00     0.238 C 
ENDBRANCH  19  28
ENDBRANCH  18  19
ENDBRANCH  17  18
ENDBRANCH   1  17
TORSDOF 9
ENDMDL
MODEL 7
REMARK VINA RESULT:      -7.2      3.503      9.756
REMARK  9 active torsions:
REMARK  status: ('A' for Active; 'I' for Inactive)
REMARK    1  A    between atoms: O1_2  and  C2_3 
REMARK    2  A    between atoms: C7_8  and  N1_9 
REMARK    3  A    between atoms: N1_9  and  C8_10 
REMARK    4  A    between atoms: N1_9  and  O2_27 
REMARK    5  A    between atoms: C8_10  and  C9_11 
REMARK    6  A    between atoms: C9_11  and  C10_12 
REMARK    7  A    between atoms: C11_13  and  C12_14 
REMARK    8  A    between atoms: C12_14  and  N2_15 
REMARK    9  A    between atoms: N2_15  and  C13_16 
ROOT
HETATM    1  C10 UNL     1      26.585   4.435  49.496  1.00  0.00    -0.004 C 
HETATM    2  C11 UNL     1      27.523   4.879  48.681  1.00  0.00    -0.008 C 
ENDROOT
BRANCH   2   3
HETATM    3  C12 UNL     1      28.688   5.710  48.286  1.00  0.00     0.148 C 
BRANCH   3   4
HETATM    4  N2  UNL     1      28.550   6.982  49.020  1.00  0.00    -0.371 N 
HETATM    5  H14 UNL     1      27.937   7.139  49.856  1.00  0.00     0.161 HD
BRANCH   4   6
HETATM    6  C13 UNL     1      29.334   8.097  48.543  1.00  0.00     0.134 C 
HETATM    7  N3  UNL     1      30.526   7.861  48.095  1.00  0.00    -0.243 NA
HETATM    8  C14 UNL     1      31.464   8.827  47.578  1.00  0.00     0.115 C 
HETATM    9  C15 UNL     1      31.483  10.112  47.957  1.00  0.00    -0.003 C 
HETATM   10  C16 UNL     1      30.696  10.952  48.898  1.00  0.00     0.069 C 
HETATM   11  C17 UNL     1      29.231  10.656  48.800  1.00  0.00    -0.023 A 
HETATM   12  C18 UNL     1      28.377  11.758  48.877  1.00  0.00     0.124 A 
HETATM   13  C21 UNL     1      28.643   9.399  48.640  1.00  0.00     0.019 A 
HETATM   14  N4  UNL     1      27.053  11.570  48.794  1.00  0.00    -0.273 NA
HETATM   15  C19 UNL     1      26.506  10.346  48.638  1.00  0.00     0.117 A 
HETATM   16  C20 UNL     1      27.280   9.183  48.552  1.00  0.00     0.035 A 
ENDBRANCH   4   6
ENDBRANCH   3   4
ENDBRANCH   2   3
BRANCH   1  17
HETATM   17  C9  UNL     1      25.470   3.466  49.494  1.00  0.00     0.003 C 
BRANCH  17  18
HETATM   18  C8  UNL     1      25.046   3.420  50.720  1.00  0.00     0.167 C 
BRANCH  18  19
HETATM   19  N1  UNL     1      24.411   3.145  51.927  1.00  0.00    -0.245 N 
BRANCH  19  20
HETATM   20  C7  UNL     1      24.208   1.846  52.526  1.00  0.00     0.091 A 
HETATM   21  C2  UNL     1      25.239   1.378  53.301  1.00  0.00     0.097 A 
HETATM   22  C3  UNL     1      25.041   0.127  53.875  1.00  0.00     0.039 A 
HETATM   23  C4  UNL     1      23.855  -0.542  53.635  1.00  0.00     0.003 A 
HETATM   24  C5  UNL     1      22.841  -0.007  52.833  1.00  0.00     0.002 A 
HETATM   25  C6  UNL     1      23.013   1.233  52.250  1.00  0.00     0.034 A 
BRANCH  21  26
HETATM   26  O1  UNL     1      26.367   2.167  53.447  1.00  0.00    -0.354 OA
HETATM   27  C1  UNL     1      27.627   1.654  53.077  1.00  0.00     0.210 C 
ENDBRANCH  21  26
ENDBRANCH  19  20
BRANCH  19  28
HETATM   28  O2  UNL     1      23.961   4.308  52.512  1.00  0.00    -0.282 OA
HETATM   29  C22 UNL     1      22.984   4.848  51.647  1.00  0.00     0.238 C 
ENDBRANCH  19  28
ENDBRANCH  18  19
ENDBRANCH  17  18
ENDBRANCH   1  17
TORSDOF 9
ENDMDL
MODEL 8
REMARK VINA RESULT:      -7.2      6.451      9.124
REMARK  9 active torsions:
REMARK  status: ('A' for Active; 'I' for Inactive)
REMARK    1  A    between atoms: O1_2  and  C2_3 
REMARK    2  A    between atoms: C7_8  and  N1_9 
REMARK    3  A    between atoms: N1_9  and  C8_10 
REMARK    4  A    between atoms: N1_9  and  O2_27 
REMARK    5  A    between atoms: C8_10  and  C9_11 
REMARK    6  A    between atoms: C9_11  and  C10_12 
REMARK    7  A    between atoms: C11_13  and  C12_14 
REMARK    8  A    between atoms: C12_14  and  N2_15 
REMARK    9  A    between atoms: N2_15  and  C13_16 
ROOT
HETATM    1  C10 UNL     1      22.366   0.345  53.765  1.00  0.00    -0.004 C 
HETATM    2  C11 UNL     1      23.266  -0.556  54.107  1.00  0.00    -0.008 C 
ENDROOT
BRANCH   2   3
HETATM    3  C12 UNL     1      24.638  -1.083  54.321  1.00  0.00     0.148 C 
BRANCH   3   4
HETATM    4  N2  UNL     1      25.290  -1.074  52.999  1.00  0.00    -0.371 N 
HETATM    5  H14 UNL     1      24.798  -0.975  52.078  1.00  0.00     0.161 HD
BRANCH   4   6
HETATM    6  C13 UNL     1      26.728  -1.204  52.981  1.00  0.00     0.134 C 
HETATM    7  N3  UNL     1      27.236  -2.395  52.954  1.00  0.00    -0.243 NA
HETATM    8  C14 UNL     1      28.636  -2.739  52.934  1.00  0.00     0.115 C 
HETATM    9  C15 UNL     1      29.593  -1.965  53.461  1.00  0.00    -0.003 C 
HETATM   10  C16 UNL     1      29.631  -0.658  54.168  1.00  0.00     0.069 C 
HETATM   11  C17 UNL     1      28.717   0.338  53.522  1.00  0.00    -0.023 A 
HETATM   12  C18 UNL     1      29.197   1.646  53.438  1.00  0.00     0.124 A 
HETATM   13  C21 UNL     1      27.446   0.088  53.000  1.00  0.00     0.019 A 
HETATM   14  N4  UNL     1      28.435   2.591  52.870  1.00  0.00    -0.273 NA
HETATM   15  C19 UNL     1      27.209   2.326  52.372  1.00  0.00     0.117 A 
HETATM   16  C20 UNL     1      26.643   1.047  52.410  1.00  0.00     0.035 A 
ENDBRANCH   4   6
ENDBRANCH   3   4
ENDBRANCH   2   3
BRANCH   1  17
HETATM   17  C9  UNL     1      20.896   0.484  53.691  1.00  0.00     0.003 C 
BRANCH  17  18
HETATM   18  C8  UNL     1      20.676   1.356  52.755  1.00  0.00     0.167 C 
BRANCH  18  19
HETATM   19  N1  UNL     1      20.704   2.182  51.635  1.00  0.00    -0.245 N 
BRANCH  19  20
HETATM   20  C7  UNL     1      21.418   3.430  51.493  1.00  0.00     0.091 A 
HETATM   21  C2  UNL     1      20.654   4.522  51.167  1.00  0.00     0.097 A 
HETATM   22  C3  UNL     1      21.346   5.721  51.030  1.00  0.00     0.039 A 
HETATM   23  C4  UNL     1      22.714   5.733  51.226  1.00  0.00     0.003 A 
HETATM   24  C5  UNL     1      23.435   4.581  51.558  1.00  0.00     0.002 A 
HETATM   25  C6  UNL     1      22.773   3.377  51.699  1.00  0.00     0.034 A 
BRANCH  21  26
HETATM   26  O1  UNL     1      19.291   4.350  51.003  1.00  0.00    -0.354 OA
HETATM   27  C1  UNL     1      18.635   4.976  49.923  1.00  0.00     0.210 C 
ENDBRANCH  21  26
ENDBRANCH  19  20
BRANCH  19  28
HETATM   28  O2  UNL     1      19.925   1.657  50.628  1.00  0.00    -0.282 OA
HETATM   29  C22 UNL     1      20.806   1.249  49.603  1.00  0.00     0.238 C 
ENDBRANCH  19  28
ENDBRANCH  18  19
ENDBRANCH  17  18
ENDBRANCH   1  17
TORSDOF 9
ENDMDL
MODEL 9
REMARK VINA RESULT:      -7.2      3.110      4.971
REMARK  9 active torsions:
REMARK  status: ('A' for Active; 'I' for Inactive)
REMARK    1  A    between atoms: O1_2  and  C2_3 
REMARK    2  A    between atoms: C7_8  and  N1_9 
REMARK    3  A    between atoms: N1_9  and  C8_10 
REMARK    4  A    between atoms: N1_9  and  O2_27 
REMARK    5  A    between atoms: C8_10  and  C9_11 
REMARK    6  A    between atoms: C9_11  and  C10_12 
REMARK    7  A    between atoms: C11_13  and  C12_14 
REMARK    8  A    between atoms: C12_14  and  N2_15 
REMARK    9  A    between atoms: N2_15  and  C13_16 
ROOT
HETATM    1  C10 UNL     1      23.830   6.837  51.380  1.00  0.00    -0.004 C 
HETATM    2  C11 UNL     1      23.004   5.817  51.250  1.00  0.00    -0.008 C 
ENDROOT
BRANCH   2   3
HETATM    3  C12 UNL     1      22.365   4.536  51.644  1.00  0.00     0.148 C 
BRANCH   3   4
HETATM    4  N2  UNL     1      23.429   3.720  52.259  1.00  0.00    -0.371 N 
HETATM    5  H14 UNL     1      24.352   4.082  52.603  1.00  0.00     0.161 HD
BRANCH   4   6
HETATM    6  C13 UNL     1      23.167   2.307  52.400  1.00  0.00     0.134 C 
HETATM    7  N3  UNL     1      21.937   1.920  52.512  1.00  0.00    -0.243 NA
HETATM    8  C14 UNL     1      21.465   0.565  52.662  1.00  0.00     0.115 C 
HETATM    9  C15 UNL     1      22.189  -0.408  53.229  1.00  0.00    -0.003 C 
HETATM   10  C16 UNL     1      23.540  -0.506  53.841  1.00  0.00     0.069 C 
HETATM   11  C17 UNL     1      24.560   0.237  53.034  1.00  0.00    -0.023 A 
HETATM   12  C18 UNL     1      25.807  -0.376  52.907  1.00  0.00     0.124 A 
HETATM   13  C21 UNL     1      24.385   1.470  52.401  1.00  0.00     0.019 A 
HETATM   14  N4  UNL     1      26.769   0.230  52.197  1.00  0.00    -0.273 NA
HETATM   15  C19 UNL     1      26.578   1.422  51.594  1.00  0.00     0.117 A 
HETATM   16  C20 UNL     1      25.362   2.113  51.664  1.00  0.00     0.035 A 
ENDBRANCH   4   6
ENDBRANCH   3   4
ENDBRANCH   2   3
BRANCH   1  17
HETATM   17  C9  UNL     1      24.203   8.072  50.660  1.00  0.00     0.003 C 
BRANCH  17  18
HETATM   18  C8  UNL     1      24.555   7.688  49.471  1.00  0.00     0.167 C 
BRANCH  18  19
HETATM   19  N1  UNL     1      25.198   7.205  48.335  1.00  0.00    -0.245 N 
BRANCH  19  20
HETATM   20  C7  UNL     1      26.537   6.666  48.259  1.00  0.00     0.091 A 
HETATM   21  C2  UNL     1      27.488   7.501  47.731  1.00  0.00     0.097 A 
HETATM   22  C3  UNL     1      28.775   6.978  47.658  1.00  0.00     0.039 A 
HETATM   23  C4  UNL     1      29.003   5.691  48.108  1.00  0.00     0.003 A 
HETATM   24  C5  UNL     1      27.985   4.889  48.637  1.00  0.00     0.002 A 
HETATM   25  C6  UNL     1      26.699   5.384  48.720  1.00  0.00     0.034 A 
BRANCH  21  26
HETATM   26  O1  UNL     1      27.104   8.767  47.323  1.00  0.00    -0.354 OA
HETATM   27  C1  UNL     1      27.760   9.897  47.852  1.00  0.00     0.210 C 
ENDBRANCH  21  26
ENDBRANCH  19  20
BRANCH  19  28
HETATM   28  O2  UNL     1      24.381   7.315  47.233  1.00  0.00    -0.282 OA
HETATM   29  C22 UNL     1      23.223   6.555  47.507  1.00  0.00     0.238 C 
ENDBRANCH  19  28
ENDBRANCH  18  19
ENDBRANCH  17  18
ENDBRANCH   1  17
TORSDOF 9
ENDMDL
