MODEL 1
REMARK VINA RESULT:      -7.7      0.000      0.000
REMARK  2 active torsions:
REMARK  status: ('A' for Active; 'I' for Inactive)
REMARK    1  A    between atoms: O1_2  and  C2_3 
REMARK    2  A    between atoms: C15_19  and  O2_20 
ROOT
HETATM    1  C2  UNL     1      25.293   2.857  50.581  1.00  0.00     0.088 A 
HETATM    2  C3  UNL     1      26.469   2.841  51.245  1.00  0.00     0.164 A 
HETATM    3  C4  UNL     1      26.850   2.036  52.441  1.00  0.00     0.046 A 
HETATM    4  C5  UNL     1      26.399   1.083  53.378  1.00  0.00     0.059 A 
HETATM    5  C6  UNL     1      27.023   0.505  54.420  1.00  0.00     0.059 A 
HETATM    6  N1  UNL     1      28.273   0.923  54.562  1.00  0.00    -0.242 NA
HETATM    7  C7  UNL     1      28.809   1.830  53.726  1.00  0.00     0.233 A 
HETATM    8  N2  UNL     1      28.138   2.392  52.679  1.00  0.00    -0.246 NA
HETATM    9  C8  UNL     1      26.003  -0.344  54.927  1.00  0.00     0.028 A 
HETATM   10  C9  UNL     1      24.789  -0.811  54.849  1.00  0.00    -0.019 A 
HETATM   11  C10 UNL     1      23.891  -0.314  53.737  1.00  0.00     0.022 A 
HETATM   12  C11 UNL     1      22.600  -0.604  53.396  1.00  0.00     0.018 A 
HETATM   13  C12 UNL     1      21.675  -0.191  52.375  1.00  0.00     0.122 A 
HETATM   14  N3  UNL     1      22.063   0.773  51.379  1.00  0.00    -0.407 N 
HETATM   15  C13 UNL     1      20.947   1.003  50.454  1.00  0.00     0.143 C 
HETATM   16  C14 UNL     1      22.922   1.677  50.735  1.00  0.00     0.145 A 
HETATM   17  C15 UNL     1      23.891   2.427  50.342  1.00  0.00     0.145 A 
ENDROOT
BRANCH   1  18
HETATM   18  O1  UNL     1      25.586   3.785  49.604  1.00  0.00    -0.386 OA
HETATM   19  C1  UNL     1      26.863   4.238  49.249  1.00  0.00     0.202 C 
ENDBRANCH   1  18
BRANCH  17  20
HETATM   20  O2  UNL     1      23.053   2.853  49.355  1.00  0.00    -0.377 OA
HETATM   21  C16 UNL     1      22.334   4.065  49.367  1.00  0.00     0.202 C 
ENDBRANCH  17  20
TORSDOF 2
ENDMDL
MODEL 2
REMARK VINA RESULT:      -7.3      1.503      1.864
REMARK  2 active torsions:
REMARK  status: ('A' for Active; 'I' for Inactive)
REMARK    1  A    between atoms: O1_2  and  C2_3 
REMARK    2  A    between atoms: C15_19  and  O2_20 
ROOT
HETATM    1  C2  UNL     1      23.902   1.902  51.075  1.00  0.00     0.088 A 
HETATM    2  C3  UNL     1      25.127   1.777  51.631  1.00  0.00     0.164 A 
HETATM    3  C4  UNL     1      25.526   0.995  52.836  1.00  0.00     0.046 A 
HETATM    4  C5  UNL     1      25.060   0.152  53.867  1.00  0.00     0.059 A 
HETATM    5  C6  UNL     1      25.711  -0.444  54.883  1.00  0.00     0.059 A 
HETATM    6  N1  UNL     1      27.009  -0.172  54.886  1.00  0.00    -0.242 NA
HETATM    7  C7  UNL     1      27.563   0.619  53.950  1.00  0.00     0.233 A 
HETATM    8  N2  UNL     1      26.863   1.204  52.935  1.00  0.00    -0.246 NA
HETATM    9  C8  UNL     1      24.654  -1.136  55.530  1.00  0.00     0.028 A 
HETATM   10  C9  UNL     1      23.392  -1.456  55.591  1.00  0.00    -0.019 A 
HETATM   11  C10 UNL     1      22.454  -0.912  54.536  1.00  0.00     0.022 A 
HETATM   12  C11 UNL     1      21.112  -1.062  54.330  1.00  0.00     0.018 A 
HETATM   13  C12 UNL     1      20.146  -0.592  53.373  1.00  0.00     0.122 A 
HETATM   14  N3  UNL     1      20.546   0.266  52.288  1.00  0.00    -0.407 N 
HETATM   15  C13 UNL     1      19.380   0.581  51.455  1.00  0.00     0.143 C 
HETATM   16  C14 UNL     1      21.436   1.026  51.515  1.00  0.00     0.145 A 
HETATM   17  C15 UNL     1      22.443   1.632  50.991  1.00  0.00     0.145 A 
ENDROOT
BRANCH   1  18
HETATM   18  O1  UNL     1      24.205   2.736  50.021  1.00  0.00    -0.386 OA
HETATM   19  C1  UNL     1      24.548   4.091  50.109  1.00  0.00     0.202 C 
ENDBRANCH   1  18
BRANCH  17  20
HETATM   20  O2  UNL     1      21.569   2.105  50.059  1.00  0.00    -0.377 OA
HETATM   21  C16 UNL     1      21.396   1.577  48.763  1.00  0.00     0.202 C 
ENDBRANCH  17  20
TORSDOF 2
ENDMDL
MODEL 3
REMARK VINA RESULT:      -7.2      1.740      2.229
REMARK  2 active torsions:
REMARK  status: ('A' for Active; 'I' for Inactive)
REMARK    1  A    between atoms: O1_2  and  C2_3 
REMARK    2  A    between atoms: C15_19  and  O2_20 
ROOT
HETATM    1  C2  UNL     1      24.988   3.370  50.985  1.00  0.00     0.088 A 
HETATM    2  C3  UNL     1      25.914   2.487  51.419  1.00  0.00     0.164 A 
HETATM    3  C4  UNL     1      25.720   1.281  52.273  1.00  0.00     0.046 A 
HETATM    4  C5  UNL     1      24.770   0.509  52.976  1.00  0.00     0.059 A 
HETATM    5  C6  UNL     1      24.910  -0.613  53.706  1.00  0.00     0.059 A 
HETATM    6  N1  UNL     1      26.164  -1.039  53.751  1.00  0.00    -0.242 NA
HETATM    7  C7  UNL     1      27.152  -0.383  53.117  1.00  0.00     0.233 A 
HETATM    8  N2  UNL     1      26.965   0.754  52.386  1.00  0.00    -0.246 NA
HETATM    9  C8  UNL     1      23.573  -0.849  54.122  1.00  0.00     0.028 A 
HETATM   10  C9  UNL     1      22.317  -0.500  54.119  1.00  0.00    -0.019 A 
HETATM   11  C10 UNL     1      21.909   0.735  53.345  1.00  0.00     0.022 A 
HETATM   12  C11 UNL     1      20.702   1.345  53.152  1.00  0.00     0.018 A 
HETATM   13  C12 UNL     1      20.221   2.503  52.447  1.00  0.00     0.122 A 
HETATM   14  N3  UNL     1      21.128   3.337  51.701  1.00  0.00    -0.407 N 
HETATM   15  C13 UNL     1      20.382   4.431  51.068  1.00  0.00     0.143 C 
HETATM   16  C14 UNL     1      22.370   3.750  51.196  1.00  0.00     0.145 A 
HETATM   17  C15 UNL     1      23.605   3.903  50.869  1.00  0.00     0.145 A 
ENDROOT
BRANCH   1  18
HETATM   18  O1  UNL     1      25.795   4.223  50.263  1.00  0.00    -0.386 OA
HETATM   19  C1  UNL     1      26.799   3.848  49.362  1.00  0.00     0.202 C 
ENDBRANCH   1  18
BRANCH  17  20
HETATM   20  O2  UNL     1      23.202   5.011  50.186  1.00  0.00    -0.377 OA
HETATM   21  C16 UNL     1      23.033   5.087  48.788  1.00  0.00     0.202 C 
ENDBRANCH  17  20
TORSDOF 2
ENDMDL
MODEL 4
REMARK VINA RESULT:      -7.1      1.616      5.164
REMARK  2 active torsions:
REMARK  status: ('A' for Active; 'I' for Inactive)
REMARK    1  A    between atoms: O1_2  and  C2_3 
REMARK    2  A    between atoms: C15_19  and  O2_20 
ROOT
HETATM    1  C2  UNL     1      26.098   2.732  50.846  1.00  0.00     0.088 A 
HETATM    2  C3  UNL     1      25.084   3.144  50.055  1.00  0.00     0.164 A 
HETATM    3  C4  UNL     1      23.654   2.726  50.083  1.00  0.00     0.046 A 
HETATM    4  C5  UNL     1      22.710   1.895  50.724  1.00  0.00     0.059 A 
HETATM    5  C6  UNL     1      21.392   1.728  50.510  1.00  0.00     0.059 A 
HETATM    6  N1  UNL     1      20.935   2.486  49.525  1.00  0.00    -0.242 NA
HETATM    7  C7  UNL     1      21.744   3.317  48.844  1.00  0.00     0.233 A 
HETATM    8  N2  UNL     1      23.079   3.456  49.095  1.00  0.00    -0.246 NA
HETATM    9  C8  UNL     1      21.066   0.758  51.495  1.00  0.00     0.028 A 
HETATM   10  C9  UNL     1      21.436  -0.012  52.480  1.00  0.00    -0.019 A 
HETATM   11  C10 UNL     1      22.885   0.015  52.916  1.00  0.00     0.022 A 
HETATM   12  C11 UNL     1      23.567  -0.657  53.891  1.00  0.00     0.018 A 
HETATM   13  C12 UNL     1      24.922  -0.701  54.373  1.00  0.00     0.122 A 
HETATM   14  N3  UNL     1      25.940   0.122  53.776  1.00  0.00    -0.407 N 
HETATM   15  C13 UNL     1      27.218  -0.100  54.462  1.00  0.00     0.143 C 
HETATM   16  C14 UNL     1      26.467   1.059  52.873  1.00  0.00     0.145 A 
HETATM   17  C15 UNL     1      26.686   1.928  51.950  1.00  0.00     0.145 A 
ENDROOT
BRANCH   1  18
HETATM   18  O1  UNL     1      27.130   3.477  50.317  1.00  0.00    -0.386 OA
HETATM   19  C1  UNL     1      27.070   4.274  49.166  1.00  0.00     0.202 C 
ENDBRANCH   1  18
BRANCH  17  20
HETATM   20  O2  UNL     1      27.983   1.924  52.368  1.00  0.00    -0.377 OA
HETATM   21  C16 UNL     1      28.488   2.656  53.462  1.00  0.00     0.202 C 
ENDBRANCH  17  20
TORSDOF 2
ENDMDL
MODEL 5
REMARK VINA RESULT:      -7.1      2.184      3.900
REMARK  2 active torsions:
REMARK  status: ('A' for Active; 'I' for Inactive)
REMARK    1  A    between atoms: O1_2  and  C2_3 
REMARK    2  A    between atoms: C15_19  and  O2_20 
ROOT
HETATM    1  C2  UNL     1      24.296   1.553  51.553  1.00  0.00     0.088 A 
HETATM    2  C3  UNL     1      24.609   0.836  52.655  1.00  0.00     0.164 A 
HETATM    3  C4  UNL     1      23.714   0.002  53.506  1.00  0.00     0.046 A 
HETATM    4  C5  UNL     1      22.388  -0.445  53.690  1.00  0.00     0.059 A 
HETATM    5  C6  UNL     1      21.850  -1.254  54.620  1.00  0.00     0.059 A 
HETATM    6  N1  UNL     1      22.743  -1.688  55.497  1.00  0.00    -0.242 NA
HETATM    7  C7  UNL     1      24.037  -1.328  55.419  1.00  0.00     0.233 A 
HETATM    8  N2  UNL     1      24.541  -0.502  54.457  1.00  0.00    -0.246 NA
HETATM    9  C8  UNL     1      20.488  -1.282  54.218  1.00  0.00     0.028 A 
HETATM   10  C9  UNL     1      19.552  -0.906  53.392  1.00  0.00    -0.019 A 
HETATM   11  C10 UNL     1      19.923   0.006  52.243  1.00  0.00     0.022 A 
HETATM   12  C11 UNL     1      19.190   0.561  51.232  1.00  0.00     0.018 A 
HETATM   13  C12 UNL     1      19.447   1.426  50.112  1.00  0.00     0.122 A 
HETATM   14  N3  UNL     1      20.775   1.918  49.855  1.00  0.00    -0.407 N 
HETATM   15  C13 UNL     1      20.764   2.758  48.652  1.00  0.00     0.143 C 
HETATM   16  C14 UNL     1      22.148   2.085  50.087  1.00  0.00     0.145 A 
HETATM   17  C15 UNL     1      23.361   2.068  50.519  1.00  0.00     0.145 A 
ENDROOT
BRANCH   1  18
HETATM   18  O1  UNL     1      25.535   2.076  51.251  1.00  0.00    -0.386 OA
HETATM   19  C1  UNL     1      26.763   1.647  51.769  1.00  0.00     0.202 C 
ENDBRANCH   1  18
BRANCH  17  20
HETATM   20  O2  UNL     1      23.657   2.891  49.474  1.00  0.00    -0.377 OA
HETATM   21  C16 UNL     1      23.808   4.290  49.557  1.00  0.00     0.202 C 
ENDBRANCH  17  20
TORSDOF 2
ENDMDL
MODEL 6
REMARK VINA RESULT:      -7.1      2.588      5.025
REMARK  2 active torsions:
REMARK  status: ('A' for Active; 'I' for Inactive)
REMARK    1  A    between atoms: O1_2  and  C2_3 
REMARK    2  A    between atoms: C15_19  and  O2_20 
ROOT
HETATM    1  C2  UNL     1      26.170   0.521  53.294  1.00  0.00     0.088 A 
HETATM    2  C3  UNL     1      26.687   1.418  52.425  1.00  0.00     0.164 A 
HETATM    3  C4  UNL     1      25.984   2.199  51.368  1.00  0.00     0.046 A 
HETATM    4  C5  UNL     1      24.736   2.445  50.756  1.00  0.00     0.059 A 
HETATM    5  C6  UNL     1      24.393   3.271  49.751  1.00  0.00     0.059 A 
HETATM    6  N1  UNL     1      25.425   3.956  49.279  1.00  0.00    -0.242 NA
HETATM    7  C7  UNL     1      26.661   3.804  49.787  1.00  0.00     0.233 A 
HETATM    8  N2  UNL     1      26.965   2.952  50.809  1.00  0.00    -0.246 NA
HETATM    9  C8  UNL     1      22.999   3.023  49.643  1.00  0.00     0.028 A 
HETATM   10  C9  UNL     1      21.934   2.394  50.056  1.00  0.00    -0.019 A 
HETATM   11  C10 UNL     1      22.070   1.413  51.199  1.00  0.00     0.022 A 
HETATM   12  C11 UNL     1      21.165   0.618  51.844  1.00  0.00     0.018 A 
HETATM   13  C12 UNL     1      21.196  -0.334  52.923  1.00  0.00     0.122 A 
HETATM   14  N3  UNL     1      22.430  -0.633  53.602  1.00  0.00    -0.407 N 
HETATM   15  C13 UNL     1      22.182  -1.614  54.664  1.00  0.00     0.143 C 
HETATM   16  C14 UNL     1      23.806  -0.541  53.862  1.00  0.00     0.145 A 
HETATM   17  C15 UNL     1      25.064  -0.271  53.891  1.00  0.00     0.145 A 
ENDROOT
BRANCH   1  18
HETATM   18  O1  UNL     1      27.313   0.172  53.981  1.00  0.00    -0.386 OA
HETATM   19  C1  UNL     1      28.370  -0.604  53.489  1.00  0.00     0.202 C 
ENDBRANCH   1  18
BRANCH  17  20
HETATM   20  O2  UNL     1      25.148  -1.165  54.917  1.00  0.00    -0.377 OA
HETATM   21  C16 UNL     1      25.141  -0.833  56.287  1.00  0.00     0.202 C 
ENDBRANCH  17  20
TORSDOF 2
ENDMDL
MODEL 7
REMARK VINA RESULT:      -7.1      2.124      4.573
REMARK  2 active torsions:
REMARK  status: ('A' for Active; 'I' for Inactive)
REMARK    1  A    between atoms: O1_2  and  C2_3 
REMARK    2  A    between atoms: C15_19  and  O2_20 
ROOT
HETATM    1  C2  UNL     1      22.252  -0.153  52.733  1.00  0.00     0.088 A 
HETATM    2  C3  UNL     1      23.343  -0.338  53.507  1.00  0.00     0.164 A 
HETATM    3  C4  UNL     1      24.692   0.282  53.375  1.00  0.00     0.046 A 
HETATM    4  C5  UNL     1      25.483   1.168  52.612  1.00  0.00     0.059 A 
HETATM    5  C6  UNL     1      26.763   1.555  52.755  1.00  0.00     0.059 A 
HETATM    6  N1  UNL     1      27.353   0.991  53.798  1.00  0.00    -0.242 NA
HETATM    7  C7  UNL     1      26.696   0.131  54.597  1.00  0.00     0.233 A 
HETATM    8  N2  UNL     1      25.394  -0.235  54.415  1.00  0.00    -0.246 NA
HETATM    9  C8  UNL     1      26.913   2.447  51.660  1.00  0.00     0.028 A 
HETATM   10  C9  UNL     1      26.402   3.048  50.622  1.00  0.00    -0.019 A 
HETATM   11  C10 UNL     1      24.956   2.779  50.267  1.00  0.00     0.022 A 
HETATM   12  C11 UNL     1      24.151   3.243  49.266  1.00  0.00     0.018 A 
HETATM   13  C12 UNL     1      22.787   3.049  48.851  1.00  0.00     0.122 A 
HETATM   14  N3  UNL     1      21.917   2.166  49.582  1.00  0.00    -0.407 N 
HETATM   15  C13 UNL     1      20.586   2.163  48.964  1.00  0.00     0.143 C 
HETATM   16  C14 UNL     1      21.567   1.252  50.588  1.00  0.00     0.145 A 
HETATM   17  C15 UNL     1      21.512   0.451  51.593  1.00  0.00     0.145 A 
ENDROOT
BRANCH   1  18
HETATM   18  O1  UNL     1      21.364  -0.992  53.371  1.00  0.00    -0.386 OA
HETATM   19  C1  UNL     1      21.578  -1.655  54.586  1.00  0.00     0.202 C 
ENDBRANCH   1  18
BRANCH  17  20
HETATM   20  O2  UNL     1      20.214   0.231  51.242  1.00  0.00    -0.377 OA
HETATM   21  C16 UNL     1      19.090   0.764  51.906  1.00  0.00     0.202 C 
ENDBRANCH  17  20
TORSDOF 2
ENDMDL
MODEL 8
REMARK VINA RESULT:      -7.1      1.990      4.427
REMARK  2 active torsions:
REMARK  status: ('A' for Active; 'I' for Inactive)
REMARK    1  A    between atoms: O1_2  and  C2_3 
REMARK    2  A    between atoms: C15_19  and  O2_20 
ROOT
HETATM    1  C2  UNL     1      22.115   0.664  51.857  1.00  0.00     0.088 A 
HETATM    2  C3  UNL     1      22.529  -0.046  52.929  1.00  0.00     0.164 A 
HETATM    3  C4  UNL     1      23.877  -0.068  53.565  1.00  0.00     0.046 A 
HETATM    4  C5  UNL     1      25.190   0.448  53.499  1.00  0.00     0.059 A 
HETATM    5  C6  UNL     1      26.266   0.224  54.275  1.00  0.00     0.059 A 
HETATM    6  N1  UNL     1      26.018  -0.631  55.257  1.00  0.00    -0.242 NA
HETATM    7  C7  UNL     1      24.802  -1.184  55.417  1.00  0.00     0.233 A 
HETATM    8  N2  UNL     1      23.736  -0.928  54.605  1.00  0.00    -0.246 NA
HETATM    9  C8  UNL     1      27.239   1.052  53.656  1.00  0.00     0.028 A 
HETATM   10  C9  UNL     1      27.560   1.905  52.723  1.00  0.00    -0.019 A 
HETATM   11  C10 UNL     1      26.499   2.325  51.730  1.00  0.00     0.022 A 
HETATM   12  C11 UNL     1      26.521   3.180  50.664  1.00  0.00     0.018 A 
HETATM   13  C12 UNL     1      25.581   3.638  49.676  1.00  0.00     0.122 A 
HETATM   14  N3  UNL     1      24.222   3.163  49.680  1.00  0.00    -0.407 N 
HETATM   15  C13 UNL     1      23.476   3.795  48.586  1.00  0.00     0.143 C 
HETATM   16  C14 UNL     1      23.128   2.409  50.132  1.00  0.00     0.145 A 
HETATM   17  C15 UNL     1      22.306   1.627  50.740  1.00  0.00     0.145 A 
ENDROOT
BRANCH   1  18
HETATM   18  O1  UNL     1      20.804   0.244  51.787  1.00  0.00    -0.386 OA
HETATM   19  C1  UNL     1      19.792   0.532  52.712  1.00  0.00     0.202 C 
ENDBRANCH   1  18
BRANCH  17  20
HETATM   20  O2  UNL     1      21.377   2.027  49.827  1.00  0.00    -0.377 OA
HETATM   21  C16 UNL     1      21.073   1.352  48.628  1.00  0.00     0.202 C 
ENDBRANCH  17  20
TORSDOF 2
ENDMDL
MODEL 9
REMARK VINA RESULT:      -7.1      2.464      6.739
REMARK  2 active torsions:
REMARK  status: ('A' for Active; 'I' for Inactive)
REMARK    1  A    between atoms: O1_2  and  C2_3 
REMARK    2  A    between atoms: C15_19  and  O2_20 
ROOT
HETATM    1  C2  UNL     1      23.171  -0.556  53.564  1.00  0.00     0.088 A 
HETATM    2  C3  UNL     1      22.160  -0.206  52.740  1.00  0.00     0.164 A 
HETATM    3  C4  UNL     1      22.178   0.764  51.607  1.00  0.00     0.046 A 
HETATM    4  C5  UNL     1      22.978   1.672  50.881  1.00  0.00     0.059 A 
HETATM    5  C6  UNL     1      22.688   2.459  49.830  1.00  0.00     0.059 A 
HETATM    6  N1  UNL     1      21.430   2.336  49.432  1.00  0.00    -0.242 NA
HETATM    7  C7  UNL     1      20.577   1.500  50.050  1.00  0.00     0.233 A 
HETATM    8  N2  UNL     1      20.914   0.718  51.116  1.00  0.00    -0.246 NA
HETATM    9  C8  UNL     1      23.934   3.102  49.605  1.00  0.00     0.028 A 
HETATM   10  C9  UNL     1      25.185   3.273  49.929  1.00  0.00    -0.019 A 
HETATM   11  C10 UNL     1      25.750   2.477  51.085  1.00  0.00     0.022 A 
HETATM   12  C11 UNL     1      26.991   2.431  51.654  1.00  0.00     0.018 A 
HETATM   13  C12 UNL     1      27.615   1.720  52.738  1.00  0.00     0.122 A 
HETATM   14  N3  UNL     1      26.866   0.772  53.521  1.00  0.00    -0.407 N 
HETATM   15  C13 UNL     1      27.737   0.180  54.543  1.00  0.00     0.143 C 
HETATM   16  C14 UNL     1      25.733   0.042  53.912  1.00  0.00     0.145 A 
HETATM   17  C15 UNL     1      24.571  -0.491  54.060  1.00  0.00     0.145 A 
ENDROOT
BRANCH   1  18
HETATM   18  O1  UNL     1      22.517  -1.466  54.367  1.00  0.00    -0.386 OA
HETATM   19  C1  UNL     1      21.139  -1.716  54.382  1.00  0.00     0.202 C 
ENDBRANCH   1  18
BRANCH  17  20
HETATM   20  O2  UNL     1      25.113  -1.189  55.097  1.00  0.00    -0.377 OA
HETATM   21  C16 UNL     1      24.918  -0.899  56.462  1.00  0.00     0.202 C 
ENDBRANCH  17  20
TORSDOF 2
ENDMDL
