MODEL 1
REMARK VINA RESULT:      -7.7      0.000      0.000
REMARK  6 active torsions:
REMARK  status: ('A' for Active; 'I' for Inactive)
REMARK    1  A    between atoms: N1_1  and  C1_2 
REMARK    2  A    between atoms: C3_5  and  N3_6 
REMARK    3  A    between atoms: N3_6  and  C4_7 
REMARK    4  A    between atoms: C7_10  and  O1_11 
REMARK    5  A    between atoms: O1_11  and  C8_12 
REMARK    6  A    between atoms: C8_12  and  C9_13 
ROOT
HETATM    1  C4  UNL     1      26.496   2.152  53.094  1.00  0.00     0.035 A 
HETATM    2  C5  UNL     1      25.190   2.369  53.458  1.00  0.00     0.032 A 
HETATM    3  C6  UNL     1      24.303   2.910  52.564  1.00  0.00     0.041 A 
HETATM    4  C7  UNL     1      24.695   3.245  51.293  1.00  0.00     0.091 A 
HETATM    5  C15 UNL     1      26.021   3.032  50.903  1.00  0.00     0.069 A 
HETATM    6 CL1  UNL     1      26.695   3.403  49.314  1.00  0.00    -0.081 Cl
HETATM    7  C16 UNL     1      26.924   2.480  51.818  1.00  0.00     0.056 A 
ENDROOT
BRANCH   1   8
HETATM    8  N3  UNL     1      27.460   1.595  53.980  1.00  0.00    -0.344 N 
HETATM    9  H4  UNL     1      27.575   2.192  54.836  1.00  0.00     0.167 HD
BRANCH   8  10
HETATM   10  C3  UNL     1      28.193   0.399  53.785  1.00  0.00     0.109 A 
HETATM   11  N2  UNL     1      29.490   0.345  53.885  1.00  0.00    -0.245 NA
HETATM   12  C2  UNL     1      29.867  -1.014  53.624  1.00  0.00     0.143 A 
HETATM   13  C1  UNL     1      28.833  -1.786  53.370  1.00  0.00     0.027 A 
HETATM   14  C17 UNL     1      27.617  -0.921  53.453  1.00  0.00     0.136 A 
BRANCH  13  15
HETATM   15  N1  UNL     1      28.626  -3.161  53.058  1.00  0.00    -0.401 N 
HETATM   16  H1  UNL     1      29.271  -3.560  52.316  1.00  0.00     0.156 HD
HETATM   17  H2  UNL     1      27.902  -3.764  53.507  1.00  0.00     0.156 HD
ENDBRANCH  13  15
ENDBRANCH   8  10
ENDBRANCH   1   8
BRANCH   4  18
HETATM   18  O1  UNL     1      23.975   3.795  50.243  1.00  0.00    -0.345 OA
BRANCH  18  19
HETATM   19  C8  UNL     1      23.443   5.078  50.277  1.00  0.00     0.214 C 
BRANCH  19  20
HETATM   20  C9  UNL     1      24.319   6.101  49.648  1.00  0.00    -0.031 A 
HETATM   21  C10 UNL     1      24.279   6.405  48.285  1.00  0.00     0.009 A 
HETATM   22  C11 UNL     1      25.090   7.349  47.696  1.00  0.00     0.004 A 
HETATM   23  C12 UNL     1      25.983   8.021  48.505  1.00  0.00     0.042 A 
HETATM   24  C13 UNL     1      26.036   7.733  49.851  1.00  0.00     0.117 A 
HETATM   25  F1  UNL     1      26.916   8.389  50.665  1.00  0.00    -0.206 F 
HETATM   26  C14 UNL     1      25.219   6.776  50.469  1.00  0.00     0.051 A 
ENDBRANCH  19  20
ENDBRANCH  18  19
ENDBRANCH   4  18
TORSDOF 6
ENDMDL
MODEL 2
REMARK VINA RESULT:      -7.6      5.707      7.350
REMARK  6 active torsions:
REMARK  status: ('A' for Active; 'I' for Inactive)
REMARK    1  A    between atoms: N1_1  and  C1_2 
REMARK    2  A    between atoms: C3_5  and  N3_6 
REMARK    3  A    between atoms: N3_6  and  C4_7 
REMARK    4  A    between atoms: C7_10  and  O1_11 
REMARK    5  A    between atoms: O1_11  and  C8_12 
REMARK    6  A    between atoms: C8_12  and  C9_13 
ROOT
HETATM    1  C4  UNL     1      25.068   1.032  52.515  1.00  0.00     0.035 A 
HETATM    2  C5  UNL     1      24.252   1.727  51.658  1.00  0.00     0.032 A 
HETATM    3  C6  UNL     1      22.889   1.597  51.741  1.00  0.00     0.041 A 
HETATM    4  C7  UNL     1      22.313   0.775  52.675  1.00  0.00     0.091 A 
HETATM    5  C15 UNL     1      23.127   0.057  53.557  1.00  0.00     0.069 A 
HETATM    6 CL1  UNL     1      22.558  -1.042  54.816  1.00  0.00    -0.081 Cl
HETATM    7  C16 UNL     1      24.517   0.192  53.470  1.00  0.00     0.056 A 
ENDROOT
BRANCH   1   8
HETATM    8  N3  UNL     1      26.487   1.127  52.475  1.00  0.00    -0.344 N 
HETATM    9  H4  UNL     1      26.791   2.073  52.136  1.00  0.00     0.167 HD
BRANCH   8  10
HETATM   10  C3  UNL     1      27.412   0.116  52.833  1.00  0.00     0.109 A 
HETATM   11  N2  UNL     1      28.561   0.377  53.384  1.00  0.00    -0.245 NA
HETATM   12  C2  UNL     1      29.212  -0.882  53.599  1.00  0.00     0.143 A 
HETATM   13  C1  UNL     1      28.486  -1.902  53.193  1.00  0.00     0.027 A 
HETATM   14  C17 UNL     1      27.216  -1.337  52.644  1.00  0.00     0.136 A 
BRANCH  13  15
HETATM   15  N1  UNL     1      28.628  -3.319  53.162  1.00  0.00    -0.401 N 
HETATM   16  H1  UNL     1      28.655  -3.752  52.194  1.00  0.00     0.156 HD
HETATM   17  H2  UNL     1      28.703  -3.921  54.012  1.00  0.00     0.156 HD
ENDBRANCH  13  15
ENDBRANCH   8  10
ENDBRANCH   1   8
BRANCH   4  18
HETATM   18  O1  UNL     1      20.978   0.498  52.932  1.00  0.00    -0.345 OA
BRANCH  18  19
HETATM   19  C8  UNL     1      19.967   0.703  52.001  1.00  0.00     0.214 C 
BRANCH  19  20
HETATM   20  C9  UNL     1      18.785  -0.174  52.207  1.00  0.00    -0.031 A 
HETATM   21  C10 UNL     1      17.609  -0.055  51.463  1.00  0.00     0.009 A 
HETATM   22  C11 UNL     1      16.509  -0.863  51.651  1.00  0.00     0.004 A 
HETATM   23  C12 UNL     1      16.587  -1.834  52.628  1.00  0.00     0.042 A 
HETATM   24  C13 UNL     1      17.739  -1.964  53.372  1.00  0.00     0.117 A 
HETATM   25  F1  UNL     1      17.831  -2.920  54.344  1.00  0.00    -0.206 F 
HETATM   26  C14 UNL     1      18.869  -1.152  53.195  1.00  0.00     0.051 A 
ENDBRANCH  19  20
ENDBRANCH  18  19
ENDBRANCH   4  18
TORSDOF 6
ENDMDL
MODEL 3
REMARK VINA RESULT:      -7.6      5.827      8.576
REMARK  6 active torsions:
REMARK  status: ('A' for Active; 'I' for Inactive)
REMARK    1  A    between atoms: N1_1  and  C1_2 
REMARK    2  A    between atoms: C3_5  and  N3_6 
REMARK    3  A    between atoms: N3_6  and  C4_7 
REMARK    4  A    between atoms: C7_10  and  O1_11 
REMARK    5  A    between atoms: O1_11  and  C8_12 
REMARK    6  A    between atoms: C8_12  and  C9_13 
ROOT
HETATM    1  C4  UNL     1      21.228  -0.332  53.744  1.00  0.00     0.035 A 
HETATM    2  C5  UNL     1      22.302  -1.129  54.056  1.00  0.00     0.032 A 
HETATM    3  C6  UNL     1      23.581  -0.683  53.844  1.00  0.00     0.041 A 
HETATM    4  C7  UNL     1      23.818   0.562  53.320  1.00  0.00     0.091 A 
HETATM    5  C15 UNL     1      22.738   1.389  52.995  1.00  0.00     0.069 A 
HETATM    6 CL1  UNL     1      22.859   3.014  52.314  1.00  0.00    -0.081 Cl
HETATM    7  C16 UNL     1      21.434   0.931  53.212  1.00  0.00     0.056 A 
ENDROOT
BRANCH   1   8
HETATM    8  N3  UNL     1      19.881  -0.742  53.942  1.00  0.00    -0.344 N 
HETATM    9  H4  UNL     1      19.752  -1.168  54.893  1.00  0.00     0.167 HD
BRANCH   8  10
HETATM   10  C3  UNL     1      18.816  -0.617  53.016  1.00  0.00     0.109 A 
HETATM   11  N2  UNL     1      17.577  -0.861  53.332  1.00  0.00    -0.245 NA
HETATM   12  C2  UNL     1      16.797  -0.627  52.152  1.00  0.00     0.143 A 
HETATM   13  C1  UNL     1      17.530  -0.246  51.128  1.00  0.00     0.027 A 
HETATM   14  C17 UNL     1      18.946  -0.201  51.604  1.00  0.00     0.136 A 
BRANCH  13  15
HETATM   15  N1  UNL     1      17.294   0.108  49.768  1.00  0.00    -0.401 N 
HETATM   16  H1  UNL     1      17.532   1.110  49.513  1.00  0.00     0.156 HD
HETATM   17  H2  UNL     1      16.917  -0.545  49.047  1.00  0.00     0.156 HD
ENDBRANCH  13  15
ENDBRANCH   8  10
ENDBRANCH   1   8
BRANCH   4  18
HETATM   18  O1  UNL     1      25.012   1.205  53.027  1.00  0.00    -0.345 OA
BRANCH  18  19
HETATM   19  C8  UNL     1      25.904   0.748  52.065  1.00  0.00     0.214 C 
BRANCH  19  20
HETATM   20  C9  UNL     1      27.166   0.207  52.635  1.00  0.00    -0.031 A 
HETATM   21  C10 UNL     1      28.176   1.017  53.156  1.00  0.00     0.009 A 
HETATM   22  C11 UNL     1      29.348   0.521  53.683  1.00  0.00     0.004 A 
HETATM   23  C12 UNL     1      29.519  -0.848  53.689  1.00  0.00     0.042 A 
HETATM   24  C13 UNL     1      28.531  -1.662  53.180  1.00  0.00     0.117 A 
HETATM   25  F1  UNL     1      28.686  -3.020  53.178  1.00  0.00    -0.206 F 
HETATM   26  C14 UNL     1      27.332  -1.176  52.639  1.00  0.00     0.051 A 
ENDBRANCH  19  20
ENDBRANCH  18  19
ENDBRANCH   4  18
TORSDOF 6
ENDMDL
MODEL 4
REMARK VINA RESULT:      -7.5      3.062      4.290
REMARK  6 active torsions:
REMARK  status: ('A' for Active; 'I' for Inactive)
REMARK    1  A    between atoms: N1_1  and  C1_2 
REMARK    2  A    between atoms: C3_5  and  N3_6 
REMARK    3  A    between atoms: N3_6  and  C4_7 
REMARK    4  A    between atoms: C7_10  and  O1_11 
REMARK    5  A    between atoms: O1_11  and  C8_12 
REMARK    6  A    between atoms: C8_12  and  C9_13 
ROOT
HETATM    1  C4  UNL     1      26.533   2.146  53.159  1.00  0.00     0.035 A 
HETATM    2  C5  UNL     1      25.257   2.437  53.574  1.00  0.00     0.032 A 
HETATM    3  C6  UNL     1      24.350   2.976  52.700  1.00  0.00     0.041 A 
HETATM    4  C7  UNL     1      24.692   3.238  51.398  1.00  0.00     0.091 A 
HETATM    5  C15 UNL     1      25.987   2.950  50.954  1.00  0.00     0.069 A 
HETATM    6 CL1  UNL     1      26.596   3.221  49.319  1.00  0.00    -0.081 Cl
HETATM    7  C16 UNL     1      26.910   2.399  51.849  1.00  0.00     0.056 A 
ENDROOT
BRANCH   1   8
HETATM    8  N3  UNL     1      27.515   1.586  54.022  1.00  0.00    -0.344 N 
HETATM    9  H4  UNL     1      27.639   2.173  54.883  1.00  0.00     0.167 HD
BRANCH   8  10
HETATM   10  C3  UNL     1      28.256   0.399  53.799  1.00  0.00     0.109 A 
HETATM   11  N2  UNL     1      29.557   0.365  53.836  1.00  0.00    -0.245 NA
HETATM   12  C2  UNL     1      29.941  -0.990  53.567  1.00  0.00     0.143 A 
HETATM   13  C1  UNL     1      28.907  -1.779  53.369  1.00  0.00     0.027 A 
HETATM   14  C17 UNL     1      27.684  -0.931  53.505  1.00  0.00     0.136 A 
BRANCH  13  15
HETATM   15  N1  UNL     1      28.706  -3.159  53.077  1.00  0.00    -0.401 N 
HETATM   16  H1  UNL     1      27.811  -3.387  52.555  1.00  0.00     0.156 HD
HETATM   17  H2  UNL     1      29.371  -3.919  53.341  1.00  0.00     0.156 HD
ENDBRANCH  13  15
ENDBRANCH   8  10
ENDBRANCH   1   8
BRANCH   4  18
HETATM   18  O1  UNL     1      23.944   3.773  50.359  1.00  0.00    -0.345 OA
BRANCH  18  19
HETATM   19  C8  UNL     1      23.113   3.009  49.549  1.00  0.00     0.214 C 
BRANCH  19  20
HETATM   20  C9  UNL     1      21.997   2.362  50.288  1.00  0.00    -0.031 A 
HETATM   21  C10 UNL     1      21.889   0.980  50.448  1.00  0.00     0.009 A 
HETATM   22  C11 UNL     1      20.855   0.375  51.129  1.00  0.00     0.004 A 
HETATM   23  C12 UNL     1      19.884   1.189  51.674  1.00  0.00     0.042 A 
HETATM   24  C13 UNL     1      19.975   2.556  51.525  1.00  0.00     0.117 A 
HETATM   25  F1  UNL     1      19.021   3.376  52.059  1.00  0.00    -0.206 F 
HETATM   26  C14 UNL     1      21.019   3.189  50.836  1.00  0.00     0.051 A 
ENDBRANCH  19  20
ENDBRANCH  18  19
ENDBRANCH   4  18
TORSDOF 6
ENDMDL
MODEL 5
REMARK VINA RESULT:      -7.5      5.406      7.015
REMARK  6 active torsions:
REMARK  status: ('A' for Active; 'I' for Inactive)
REMARK    1  A    between atoms: N1_1  and  C1_2 
REMARK    2  A    between atoms: C3_5  and  N3_6 
REMARK    3  A    between atoms: N3_6  and  C4_7 
REMARK    4  A    between atoms: C7_10  and  O1_11 
REMARK    5  A    between atoms: O1_11  and  C8_12 
REMARK    6  A    between atoms: C8_12  and  C9_13 
ROOT
HETATM    1  C4  UNL     1      24.933  -0.427  53.414  1.00  0.00     0.035 A 
HETATM    2  C5  UNL     1      24.849   0.493  52.398  1.00  0.00     0.032 A 
HETATM    3  C6  UNL     1      23.649   1.084  52.097  1.00  0.00     0.041 A 
HETATM    4  C7  UNL     1      22.512   0.774  52.799  1.00  0.00     0.091 A 
HETATM    5  C15 UNL     1      22.577  -0.161  53.837  1.00  0.00     0.069 A 
HETATM    6 CL1  UNL     1      21.218  -0.678  54.839  1.00  0.00    -0.081 Cl
HETATM    7  C16 UNL     1      23.802  -0.763  54.141  1.00  0.00     0.056 A 
ENDROOT
BRANCH   1   8
HETATM    8  N3  UNL     1      26.150  -1.072  53.769  1.00  0.00    -0.344 N 
HETATM    9  H4  UNL     1      25.995  -2.094  53.953  1.00  0.00     0.167 HD
BRANCH   8  10
HETATM   10  C3  UNL     1      27.427  -0.467  53.874  1.00  0.00     0.109 A 
HETATM   11  N2  UNL     1      28.530  -1.100  53.600  1.00  0.00    -0.245 NA
HETATM   12  C2  UNL     1      29.603  -0.175  53.819  1.00  0.00     0.143 A 
HETATM   13  C1  UNL     1      29.179   1.005  54.219  1.00  0.00     0.027 A 
HETATM   14  C17 UNL     1      27.688   0.926  54.294  1.00  0.00     0.136 A 
BRANCH  13  15
HETATM   15  N1  UNL     1      29.777   2.249  54.570  1.00  0.00    -0.401 N 
HETATM   16  H1  UNL     1      29.253   2.816  55.297  1.00  0.00     0.156 HD
HETATM   17  H2  UNL     1      30.667   2.610  54.161  1.00  0.00     0.156 HD
ENDBRANCH  13  15
ENDBRANCH   8  10
ENDBRANCH   1   8
BRANCH   4  18
HETATM   18  O1  UNL     1      21.214   1.244  52.666  1.00  0.00    -0.345 OA
BRANCH  18  19
HETATM   19  C8  UNL     1      20.558   1.327  51.443  1.00  0.00     0.214 C 
BRANCH  19  20
HETATM   20  C9  UNL     1      19.273   0.581  51.408  1.00  0.00    -0.031 A 
HETATM   21  C10 UNL     1      18.821  -0.209  52.467  1.00  0.00     0.009 A 
HETATM   22  C11 UNL     1      17.632  -0.905  52.438  1.00  0.00     0.004 A 
HETATM   23  C12 UNL     1      16.860  -0.808  51.298  1.00  0.00     0.042 A 
HETATM   24  C13 UNL     1      17.292  -0.033  50.245  1.00  0.00     0.117 A 
HETATM   25  F1  UNL     1      16.539   0.072  49.109  1.00  0.00    -0.206 F 
HETATM   26  C14 UNL     1      18.498   0.682  50.255  1.00  0.00     0.051 A 
ENDBRANCH  19  20
ENDBRANCH  18  19
ENDBRANCH   4  18
TORSDOF 6
ENDMDL
MODEL 6
REMARK VINA RESULT:      -7.5      5.689      8.460
REMARK  6 active torsions:
REMARK  status: ('A' for Active; 'I' for Inactive)
REMARK    1  A    between atoms: N1_1  and  C1_2 
REMARK    2  A    between atoms: C3_5  and  N3_6 
REMARK    3  A    between atoms: N3_6  and  C4_7 
REMARK    4  A    between atoms: C7_10  and  O1_11 
REMARK    5  A    between atoms: O1_11  and  C8_12 
REMARK    6  A    between atoms: C8_12  and  C9_13 
ROOT
HETATM    1  C4  UNL     1      21.384   1.177  52.860  1.00  0.00     0.035 A 
HETATM    2  C5  UNL     1      22.456   1.573  52.099  1.00  0.00     0.032 A 
HETATM    3  C6  UNL     1      23.702   1.049  52.332  1.00  0.00     0.041 A 
HETATM    4  C7  UNL     1      23.906   0.124  53.324  1.00  0.00     0.091 A 
HETATM    5  C15 UNL     1      22.827  -0.291  54.111  1.00  0.00     0.069 A 
HETATM    6 CL1  UNL     1      22.908  -1.468  55.425  1.00  0.00    -0.081 Cl
HETATM    7  C16 UNL     1      21.557   0.244  53.871  1.00  0.00     0.056 A 
ENDROOT
BRANCH   1   8
HETATM    8  N3  UNL     1      20.071   1.687  52.664  1.00  0.00    -0.344 N 
HETATM    9  H4  UNL     1      19.758   2.251  53.492  1.00  0.00     0.167 HD
BRANCH   8  10
HETATM   10  C3  UNL     1      19.251   1.491  51.525  1.00  0.00     0.109 A 
HETATM   11  N2  UNL     1      19.137   2.379  50.580  1.00  0.00    -0.245 NA
HETATM   12  C2  UNL     1      18.235   1.834  49.609  1.00  0.00     0.143 A 
HETATM   13  C1  UNL     1      17.799   0.637  49.939  1.00  0.00     0.027 A 
HETATM   14  C17 UNL     1      18.434   0.292  51.247  1.00  0.00     0.136 A 
BRANCH  13  15
HETATM   15  N1  UNL     1      16.923  -0.333  49.371  1.00  0.00    -0.401 N 
HETATM   16  H1  UNL     1      15.989   0.041  49.035  1.00  0.00     0.156 HD
HETATM   17  H2  UNL     1      17.151  -1.347  49.276  1.00  0.00     0.156 HD
ENDBRANCH  13  15
ENDBRANCH   8  10
ENDBRANCH   1   8
BRANCH   4  18
HETATM   18  O1  UNL     1      25.063  -0.526  53.727  1.00  0.00    -0.345 OA
BRANCH  18  19
HETATM   19  C8  UNL     1      26.015  -1.003  52.835  1.00  0.00     0.214 C 
BRANCH  19  20
HETATM   20  C9  UNL     1      27.391  -0.516  53.118  1.00  0.00    -0.031 A 
HETATM   21  C10 UNL     1      28.497  -1.364  53.209  1.00  0.00     0.009 A 
HETATM   22  C11 UNL     1      29.773  -0.918  53.474  1.00  0.00     0.004 A 
HETATM   23  C12 UNL     1      29.953   0.437  53.659  1.00  0.00     0.042 A 
HETATM   24  C13 UNL     1      28.873   1.287  53.574  1.00  0.00     0.117 A 
HETATM   25  F1  UNL     1      29.035   2.632  53.755  1.00  0.00    -0.206 F 
HETATM   26  C14 UNL     1      27.567   0.853  53.304  1.00  0.00     0.051 A 
ENDBRANCH  19  20
ENDBRANCH  18  19
ENDBRANCH   4  18
TORSDOF 6
ENDMDL
MODEL 7
REMARK VINA RESULT:      -7.3      4.135      5.570
REMARK  6 active torsions:
REMARK  status: ('A' for Active; 'I' for Inactive)
REMARK    1  A    between atoms: N1_1  and  C1_2 
REMARK    2  A    between atoms: C3_5  and  N3_6 
REMARK    3  A    between atoms: N3_6  and  C4_7 
REMARK    4  A    between atoms: C7_10  and  O1_11 
REMARK    5  A    between atoms: O1_11  and  C8_12 
REMARK    6  A    between atoms: C8_12  and  C9_13 
ROOT
HETATM    1  C4  UNL     1      26.201   1.842  52.473  1.00  0.00     0.035 A 
HETATM    2  C5  UNL     1      25.149   1.395  53.233  1.00  0.00     0.032 A 
HETATM    3  C6  UNL     1      23.861   1.532  52.783  1.00  0.00     0.041 A 
HETATM    4  C7  UNL     1      23.595   2.115  51.571  1.00  0.00     0.091 A 
HETATM    5  C15 UNL     1      24.652   2.578  50.782  1.00  0.00     0.069 A 
HETATM    6 CL1  UNL     1      24.492   3.351  49.202  1.00  0.00    -0.081 Cl
HETATM    7  C16 UNL     1      25.965   2.436  51.244  1.00  0.00     0.056 A 
ENDROOT
BRANCH   1   8
HETATM    8  N3  UNL     1      27.556   1.726  52.890  1.00  0.00    -0.344 N 
HETATM    9  H4  UNL     1      27.992   2.673  53.022  1.00  0.00     0.167 HD
BRANCH   8  10
HETATM   10  C3  UNL     1      28.271   0.524  53.114  1.00  0.00     0.109 A 
HETATM   11  N2  UNL     1      29.515   0.506  53.494  1.00  0.00    -0.245 NA
HETATM   12  C2  UNL     1      29.890  -0.873  53.615  1.00  0.00     0.143 A 
HETATM   13  C1  UNL     1      28.904  -1.692  53.319  1.00  0.00     0.027 A 
HETATM   14  C17 UNL     1      27.729  -0.842  52.957  1.00  0.00     0.136 A 
BRANCH  13  15
HETATM   15  N1  UNL     1      28.718  -3.104  53.271  1.00  0.00    -0.401 N 
HETATM   16  H1  UNL     1      29.172  -3.594  52.447  1.00  0.00     0.156 HD
HETATM   17  H2  UNL     1      28.179  -3.651  53.978  1.00  0.00     0.156 HD
ENDBRANCH  13  15
ENDBRANCH   8  10
ENDBRANCH   1   8
BRANCH   4  18
HETATM   18  O1  UNL     1      22.387   2.353  50.930  1.00  0.00    -0.345 OA
BRANCH  18  19
HETATM   19  C8  UNL     1      21.777   1.426  50.093  1.00  0.00     0.214 C 
BRANCH  19  20
HETATM   20  C9  UNL     1      20.509   0.877  50.641  1.00  0.00    -0.031 A 
HETATM   21  C10 UNL     1      19.281   1.001  49.989  1.00  0.00     0.009 A 
HETATM   22  C11 UNL     1      18.102   0.496  50.494  1.00  0.00     0.004 A 
HETATM   23  C12 UNL     1      18.153  -0.162  51.705  1.00  0.00     0.042 A 
HETATM   24  C13 UNL     1      19.357  -0.293  52.361  1.00  0.00     0.117 A 
HETATM   25  F1  UNL     1      19.424  -0.941  53.563  1.00  0.00    -0.206 F 
HETATM   26  C14 UNL     1      20.567   0.214  51.864  1.00  0.00     0.051 A 
ENDBRANCH  19  20
ENDBRANCH  18  19
ENDBRANCH   4  18
TORSDOF 6
ENDMDL
MODEL 8
REMARK VINA RESULT:      -7.3      4.344      7.771
REMARK  6 active torsions:
REMARK  status: ('A' for Active; 'I' for Inactive)
REMARK    1  A    between atoms: N1_1  and  C1_2 
REMARK    2  A    between atoms: C3_5  and  N3_6 
REMARK    3  A    between atoms: N3_6  and  C4_7 
REMARK    4  A    between atoms: C7_10  and  O1_11 
REMARK    5  A    between atoms: O1_11  and  C8_12 
REMARK    6  A    between atoms: C8_12  and  C9_13 
ROOT
HETATM    1  C4  UNL     1      26.610   5.664  48.902  1.00  0.00     0.035 A 
HETATM    2  C5  UNL     1      27.157   4.405  48.936  1.00  0.00     0.032 A 
HETATM    3  C6  UNL     1      26.564   3.413  49.673  1.00  0.00     0.041 A 
HETATM    4  C7  UNL     1      25.418   3.651  50.389  1.00  0.00     0.091 A 
HETATM    5  C15 UNL     1      24.846   4.927  50.368  1.00  0.00     0.069 A 
HETATM    6 CL1  UNL     1      23.380   5.409  51.226  1.00  0.00    -0.081 Cl
HETATM    7  C16 UNL     1      25.453   5.938  49.615  1.00  0.00     0.056 A 
ENDROOT
BRANCH   1   8
HETATM    8  N3  UNL     1      27.182   6.732  48.156  1.00  0.00    -0.344 N 
HETATM    9  H4  UNL     1      26.613   6.939  47.298  1.00  0.00     0.167 HD
BRANCH   8  10
HETATM   10  C3  UNL     1      28.357   7.454  48.480  1.00  0.00     0.109 A 
HETATM   11  N2  UNL     1      29.545   7.059  48.126  1.00  0.00    -0.245 NA
HETATM   12  C2  UNL     1      30.470   8.034  48.627  1.00  0.00     0.143 A 
HETATM   13  C1  UNL     1      29.873   9.011  49.275  1.00  0.00     0.027 A 
HETATM   14  C17 UNL     1      28.407   8.721  49.240  1.00  0.00     0.136 A 
BRANCH  13  15
HETATM   15  N1  UNL     1      30.279  10.197  49.953  1.00  0.00    -0.401 N 
HETATM   16  H1  UNL     1      30.585  10.996  49.325  1.00  0.00     0.156 HD
HETATM   17  H2  UNL     1      30.288  10.308  50.990  1.00  0.00     0.156 HD
ENDBRANCH  13  15
ENDBRANCH   8  10
ENDBRANCH   1   8
BRANCH   4  18
HETATM   18  O1  UNL     1      24.663   2.808  51.190  1.00  0.00    -0.345 OA
BRANCH  18  19
HETATM   19  C8  UNL     1      24.948   2.576  52.530  1.00  0.00     0.214 C 
BRANCH  19  20
HETATM   20  C9  UNL     1      26.056   1.607  52.742  1.00  0.00    -0.031 A 
HETATM   21  C10 UNL     1      27.290   1.968  53.286  1.00  0.00     0.009 A 
HETATM   22  C11 UNL     1      28.321   1.074  53.482  1.00  0.00     0.004 A 
HETATM   23  C12 UNL     1      28.109  -0.239  53.115  1.00  0.00     0.042 A 
HETATM   24  C13 UNL     1      26.898  -0.611  52.576  1.00  0.00     0.117 A 
HETATM   25  F1  UNL     1      26.673  -1.908  52.208  1.00  0.00    -0.206 F 
HETATM   26  C14 UNL     1      25.837   0.283  52.370  1.00  0.00     0.051 A 
ENDBRANCH  19  20
ENDBRANCH  18  19
ENDBRANCH   4  18
TORSDOF 6
ENDMDL
MODEL 9
REMARK VINA RESULT:      -7.2      4.564      8.490
REMARK  6 active torsions:
REMARK  status: ('A' for Active; 'I' for Inactive)
REMARK    1  A    between atoms: N1_1  and  C1_2 
REMARK    2  A    between atoms: C3_5  and  N3_6 
REMARK    3  A    between atoms: N3_6  and  C4_7 
REMARK    4  A    between atoms: C7_10  and  O1_11 
REMARK    5  A    between atoms: O1_11  and  C8_12 
REMARK    6  A    between atoms: C8_12  and  C9_13 
ROOT
HETATM    1  C4  UNL     1      23.672   5.133  51.673  1.00  0.00     0.035 A 
HETATM    2  C5  UNL     1      23.463   4.219  52.676  1.00  0.00     0.032 A 
HETATM    3  C6  UNL     1      24.167   3.042  52.697  1.00  0.00     0.041 A 
HETATM    4  C7  UNL     1      25.089   2.752  51.724  1.00  0.00     0.091 A 
HETATM    5  C15 UNL     1      25.316   3.670  50.694  1.00  0.00     0.069 A 
HETATM    6 CL1  UNL     1      26.461   3.461  49.366  1.00  0.00    -0.081 Cl
HETATM    7  C16 UNL     1      24.597   4.870  50.675  1.00  0.00     0.056 A 
ENDROOT
BRANCH   1   8
HETATM    8  N3  UNL     1      22.971   6.369  51.600  1.00  0.00    -0.344 N 
HETATM    9  H4  UNL     1      23.414   7.090  52.221  1.00  0.00     0.167 HD
BRANCH   8  10
HETATM   10  C3  UNL     1      21.827   6.645  50.812  1.00  0.00     0.109 A 
HETATM   11  N2  UNL     1      21.626   7.799  50.245  1.00  0.00    -0.245 NA
HETATM   12  C2  UNL     1      20.380   7.701  49.541  1.00  0.00     0.143 A 
HETATM   13  C1  UNL     1      19.820   6.517  49.667  1.00  0.00     0.027 A 
HETATM   14  C17 UNL     1      20.729   5.698  50.525  1.00  0.00     0.136 A 
BRANCH  13  15
HETATM   15  N1  UNL     1      18.630   5.886  49.202  1.00  0.00    -0.401 N 
HETATM   16  H1  UNL     1      17.974   6.508  48.647  1.00  0.00     0.156 HD
HETATM   17  H2  UNL     1      18.388   4.886  49.376  1.00  0.00     0.156 HD
ENDBRANCH  13  15
ENDBRANCH   8  10
ENDBRANCH   1   8
BRANCH   4  18
HETATM   18  O1  UNL     1      25.900   1.639  51.554  1.00  0.00    -0.345 OA
BRANCH  18  19
HETATM   19  C8  UNL     1      25.872   0.541  52.405  1.00  0.00     0.214 C 
BRANCH  19  20
HETATM   20  C9  UNL     1      27.221   0.102  52.851  1.00  0.00    -0.031 A 
HETATM   21  C10 UNL     1      28.206   0.991  53.287  1.00  0.00     0.009 A 
HETATM   22  C11 UNL     1      29.458   0.589  53.699  1.00  0.00     0.004 A 
HETATM   23  C12 UNL     1      29.739  -0.761  53.671  1.00  0.00     0.042 A 
HETATM   24  C13 UNL     1      28.779  -1.651  53.243  1.00  0.00     0.117 A 
HETATM   25  F1  UNL     1      29.043  -2.991  53.210  1.00  0.00    -0.206 F 
HETATM   26  C14 UNL     1      27.499  -1.262  52.821  1.00  0.00     0.051 A 
ENDBRANCH  19  20
ENDBRANCH  18  19
ENDBRANCH   4  18
TORSDOF 6
ENDMDL
