MODEL 1
REMARK VINA RESULT:      -9.1      0.000      0.000
REMARK  4 active torsions:
REMARK  status: ('A' for Active; 'I' for Inactive)
REMARK    1  A    between atoms: C5_6  and  C6_7 
REMARK    2  A    between atoms: C10_13  and  C11_14 
REMARK    3  A    between atoms: C11_14  and  C12_15 
REMARK    4  A    between atoms: C12_15  and  C13_16 
ROOT
HETATM    1  C6  UNL     1      21.735   1.365  50.021  1.00  0.00     0.100 A 
HETATM    2  N1  UNL     1      21.589   0.984  48.824  1.00  0.00    -0.268 NA
HETATM    3  C7  UNL     1      22.251   1.854  47.878  1.00  0.00     0.279 A 
HETATM    4  N2  UNL     1      22.851   2.882  48.663  1.00  0.00    -0.308 N 
HETATM    5  C8  UNL     1      23.572   4.057  49.174  1.00  0.00     0.105 C 
HETATM    6  C9  UNL     1      24.893   4.010  49.517  1.00  0.00     0.055 C 
HETATM    7  C10 UNL     1      25.102   2.900  50.450  1.00  0.00    -0.053 C 
HETATM    8  C17 UNL     1      23.903   2.321  50.641  1.00  0.00     0.048 C 
HETATM    9  C18 UNL     1      22.552   2.604  50.081  1.00  0.00     0.207 A 
HETATM   10  O2  UNL     1      21.871   3.647  50.669  1.00  0.00    -0.332 OA
HETATM   11  C19 UNL     1      21.499   4.687  49.776  1.00  0.00     0.295 C 
HETATM   12  N4  UNL     1      22.789   5.300  49.331  1.00  0.00    -0.355 N 
HETATM   13  H22 UNL     1      23.389   6.150  49.087  1.00  0.00     0.163 HD
ENDROOT
BRANCH   7  14
HETATM   14  C11 UNL     1      26.407   2.626  51.004  1.00  0.00     0.040 C 
BRANCH  14  15
HETATM   15  C12 UNL     1      26.509   1.628  52.105  1.00  0.00     0.042 C 
BRANCH  15  16
HETATM   16  C13 UNL     1      27.056   2.082  53.406  1.00  0.00     0.244 C 
HETATM   17  C14 UNL     1      28.579   1.978  53.340  1.00  0.00     0.203 C 
HETATM   18  O1  UNL     1      29.046   0.704  53.557  1.00  0.00    -0.387 OA
HETATM   19  C15 UNL     1      28.714   0.368  54.870  1.00  0.00     0.197 C 
HETATM   20  C16 UNL     1      27.211   0.158  54.871  1.00  0.00     0.296 C 
HETATM   21  N3  UNL     1      26.517   1.374  54.522  1.00  0.00     0.092 N 
HETATM   22  H18 UNL     1      26.308   1.979  55.337  1.00  0.00     0.316 HD
ENDBRANCH  15  16
ENDBRANCH  14  15
ENDBRANCH   7  14
BRANCH   1  23
HETATM   23  C5  UNL     1      21.187   0.697  51.195  1.00  0.00    -0.005 A 
HETATM   24  C4  UNL     1      19.813   0.574  51.276  1.00  0.00     0.014 A 
HETATM   25  C3  UNL     1      19.195  -0.039  52.341  1.00  0.00     0.002 A 
HETATM   26  C2  UNL     1      20.050  -0.526  53.332  1.00  0.00     0.019 A 
HETATM   27  C1  UNL     1      21.441  -0.424  53.292  1.00  0.00     0.011 A 
HETATM   28 BR1  UNL     1      22.430  -1.145  54.729  1.00  0.00    -0.051 Br
HETATM   29  C20 UNL     1      21.991   0.199  52.200  1.00  0.00     0.032 A 
ENDBRANCH   1  23
TORSDOF 4
ENDMDL
MODEL 2
REMARK VINA RESULT:      -9.0      2.743      5.084
REMARK  4 active torsions:
REMARK  status: ('A' for Active; 'I' for Inactive)
REMARK    1  A    between atoms: C5_6  and  C6_7 
REMARK    2  A    between atoms: C10_13  and  C11_14 
REMARK    3  A    between atoms: C11_14  and  C12_15 
REMARK    4  A    between atoms: C12_15  and  C13_16 
ROOT
HETATM    1  C6  UNL     1      23.322   3.720  50.915  1.00  0.00     0.100 A 
HETATM    2  N1  UNL     1      22.554   4.519  51.523  1.00  0.00    -0.268 NA
HETATM    3  C7  UNL     1      21.410   3.855  52.108  1.00  0.00     0.279 A 
HETATM    4  N2  UNL     1      21.556   2.478  51.770  1.00  0.00    -0.308 N 
HETATM    5  C8  UNL     1      21.417   1.025  51.591  1.00  0.00     0.105 C 
HETATM    6  C9  UNL     1      21.945   0.128  52.474  1.00  0.00     0.055 C 
HETATM    7  C10 UNL     1      23.364   0.435  52.672  1.00  0.00    -0.053 C 
HETATM    8  C17 UNL     1      23.644   1.499  51.899  1.00  0.00     0.048 C 
HETATM    9  C18 UNL     1      22.801   2.329  50.993  1.00  0.00     0.207 A 
HETATM   10  O2  UNL     1      22.561   1.794  49.747  1.00  0.00    -0.332 OA
HETATM   11  C19 UNL     1      21.186   1.622  49.434  1.00  0.00     0.295 C 
HETATM   12  N4  UNL     1      20.699   0.571  50.381  1.00  0.00    -0.355 N 
HETATM   13  H22 UNL     1      20.120  -0.301  50.600  1.00  0.00     0.163 HD
ENDROOT
BRANCH   7  14
HETATM   14  C11 UNL     1      24.188  -0.372  53.540  1.00  0.00     0.040 C 
BRANCH  14  15
HETATM   15  C12 UNL     1      25.667  -0.289  53.384  1.00  0.00     0.042 C 
BRANCH  15  16
HETATM   16  C13 UNL     1      26.425   0.519  54.371  1.00  0.00     0.244 C 
HETATM   17  C14 UNL     1      26.927   1.777  53.664  1.00  0.00     0.203 C 
HETATM   18  O1  UNL     1      28.065   1.565  52.922  1.00  0.00    -0.387 OA
HETATM   19  C15 UNL     1      29.077   1.223  53.818  1.00  0.00     0.197 C 
HETATM   20  C16 UNL     1      28.744  -0.180  54.294  1.00  0.00     0.296 C 
HETATM   21  N3  UNL     1      27.484  -0.204  54.997  1.00  0.00     0.092 N 
HETATM   22  H18 UNL     1      27.574  -0.016  56.012  1.00  0.00     0.316 HD
ENDBRANCH  15  16
ENDBRANCH  14  15
ENDBRANCH   7  14
BRANCH   1  23
HETATM   23  C5  UNL     1      24.552   4.086  50.225  1.00  0.00    -0.005 A 
HETATM   24  C4  UNL     1      25.580   3.162  50.219  1.00  0.00     0.014 A 
HETATM   25  C3  UNL     1      26.782   3.409  49.598  1.00  0.00     0.002 A 
HETATM   26  C2  UNL     1      26.891   4.654  48.975  1.00  0.00     0.019 A 
HETATM   27  C1  UNL     1      25.881   5.616  48.955  1.00  0.00     0.011 A 
HETATM   28 BR1  UNL     1      26.217   7.243  48.059  1.00  0.00    -0.051 Br
HETATM   29  C20 UNL     1      24.707   5.304  49.595  1.00  0.00     0.032 A 
ENDBRANCH   1  23
TORSDOF 4
ENDMDL
MODEL 3
REMARK VINA RESULT:      -8.9      1.733      2.091
REMARK  4 active torsions:
REMARK  status: ('A' for Active; 'I' for Inactive)
REMARK    1  A    between atoms: C5_6  and  C6_7 
REMARK    2  A    between atoms: C10_13  and  C11_14 
REMARK    3  A    between atoms: C11_14  and  C12_15 
REMARK    4  A    between atoms: C12_15  and  C13_16 
ROOT
HETATM    1  C6  UNL     1      21.881   1.122  50.919  1.00  0.00     0.100 A 
HETATM    2  N1  UNL     1      21.635   1.045  49.682  1.00  0.00    -0.268 NA
HETATM    3  C7  UNL     1      22.376   2.015  48.906  1.00  0.00     0.279 A 
HETATM    4  N2  UNL     1      23.146   2.751  49.853  1.00  0.00    -0.308 N 
HETATM    5  C8  UNL     1      24.047   3.676  50.556  1.00  0.00     0.105 C 
HETATM    6  C9  UNL     1      25.359   3.382  50.787  1.00  0.00     0.055 C 
HETATM    7  C10 UNL     1      25.446   2.071  51.436  1.00  0.00    -0.053 C 
HETATM    8  C17 UNL     1      24.186   1.624  51.579  1.00  0.00     0.048 C 
HETATM    9  C18 UNL     1      22.868   2.200  51.192  1.00  0.00     0.207 A 
HETATM   10  O2  UNL     1      22.366   3.161  52.041  1.00  0.00    -0.332 OA
HETATM   11  C19 UNL     1      22.109   4.415  51.427  1.00  0.00     0.295 C 
HETATM   12  N4  UNL     1      23.454   4.942  51.038  1.00  0.00    -0.355 N 
HETATM   13  H22 UNL     1      24.159   5.740  50.944  1.00  0.00     0.163 HD
ENDROOT
BRANCH   7  14
HETATM   14  C11 UNL     1      26.720   1.513  51.823  1.00  0.00     0.040 C 
BRANCH  14  15
HETATM   15  C12 UNL     1      26.795   0.050  52.091  1.00  0.00     0.042 C 
BRANCH  15  16
HETATM   16  C13 UNL     1      27.254  -0.388  53.432  1.00  0.00     0.244 C 
HETATM   17  C14 UNL     1      28.315   0.601  53.913  1.00  0.00     0.203 C 
HETATM   18  O1  UNL     1      29.560   0.365  53.379  1.00  0.00    -0.387 OA
HETATM   19  C15 UNL     1      29.977  -0.878  53.855  1.00  0.00     0.197 C 
HETATM   20  C16 UNL     1      29.122  -1.902  53.130  1.00  0.00     0.296 C 
HETATM   21  N3  UNL     1      27.726  -1.735  53.454  1.00  0.00     0.092 N 
HETATM   22  H18 UNL     1      27.430  -2.266  54.293  1.00  0.00     0.316 HD
ENDBRANCH  15  16
ENDBRANCH  14  15
ENDBRANCH   7  14
BRANCH   1  23
HETATM   23  C5  UNL     1      21.292   0.282  51.954  1.00  0.00    -0.005 A 
HETATM   24  C4  UNL     1      22.145  -0.264  52.894  1.00  0.00     0.014 A 
HETATM   25  C3  UNL     1      21.691  -1.071  53.912  1.00  0.00     0.002 A 
HETATM   26  C2  UNL     1      20.314  -1.299  53.929  1.00  0.00     0.019 A 
HETATM   27  C1  UNL     1      19.416  -0.770  53.001  1.00  0.00     0.011 A 
HETATM   28 BR1  UNL     1      17.586  -1.192  53.189  1.00  0.00    -0.051 Br
HETATM   29  C20 UNL     1      19.937   0.028  52.012  1.00  0.00     0.032 A 
ENDBRANCH   1  23
TORSDOF 4
ENDMDL
MODEL 4
REMARK VINA RESULT:      -8.5      3.714      5.148
REMARK  4 active torsions:
REMARK  status: ('A' for Active; 'I' for Inactive)
REMARK    1  A    between atoms: C5_6  and  C6_7 
REMARK    2  A    between atoms: C10_13  and  C11_14 
REMARK    3  A    between atoms: C11_14  and  C12_15 
REMARK    4  A    between atoms: C12_15  and  C13_16 
ROOT
HETATM    1  C6  UNL     1      23.994   2.107  51.076  1.00  0.00     0.100 A 
HETATM    2  N1  UNL     1      23.085   1.700  50.299  1.00  0.00    -0.268 NA
HETATM    3  C7  UNL     1      22.589   2.744  49.428  1.00  0.00     0.279 A 
HETATM    4  N2  UNL     1      23.328   3.912  49.777  1.00  0.00    -0.308 N 
HETATM    5  C8  UNL     1      23.902   5.260  49.897  1.00  0.00     0.105 C 
HETATM    6  C9  UNL     1      24.987   5.657  49.171  1.00  0.00     0.055 C 
HETATM    7  C10 UNL     1      26.064   4.681  49.353  1.00  0.00    -0.053 C 
HETATM    8  C17 UNL     1      25.594   3.734  50.184  1.00  0.00     0.048 C 
HETATM    9  C18 UNL     1      24.274   3.549  50.849  1.00  0.00     0.207 A 
HETATM   10  O2  UNL     1      24.069   4.303  51.983  1.00  0.00    -0.332 OA
HETATM   11  C19 UNL     1      22.936   5.158  51.926  1.00  0.00     0.295 C 
HETATM   12  N4  UNL     1      23.264   6.169  50.872  1.00  0.00    -0.355 N 
HETATM   13  H22 UNL     1      23.265   7.171  50.500  1.00  0.00     0.163 HD
ENDROOT
BRANCH   7  14
HETATM   14  C11 UNL     1      27.349   4.859  48.719  1.00  0.00     0.040 C 
BRANCH  14  15
HETATM   15  C12 UNL     1      27.862   6.248  48.547  1.00  0.00     0.042 C 
BRANCH  15  16
HETATM   16  C13 UNL     1      29.052   6.446  47.684  1.00  0.00     0.244 C 
HETATM   17  C14 UNL     1      30.037   5.315  47.971  1.00  0.00     0.203 C 
HETATM   18  O1  UNL     1      30.789   5.524  49.103  1.00  0.00    -0.387 OA
HETATM   19  C15 UNL     1      31.582   6.646  48.863  1.00  0.00     0.197 C 
HETATM   20  C16 UNL     1      30.633   7.831  48.890  1.00  0.00     0.296 C 
HETATM   21  N3  UNL     1      29.651   7.733  47.837  1.00  0.00     0.092 N 
HETATM   22  H18 UNL     1      29.958   8.158  46.944  1.00  0.00     0.316 HD
ENDBRANCH  15  16
ENDBRANCH  14  15
ENDBRANCH   7  14
BRANCH   1  23
HETATM   23  C5  UNL     1      24.689   1.293  52.067  1.00  0.00    -0.005 A 
HETATM   24  C4  UNL     1      23.922   0.459  52.858  1.00  0.00     0.014 A 
HETATM   25  C3  UNL     1      24.477  -0.350  53.822  1.00  0.00     0.002 A 
HETATM   26  C2  UNL     1      25.866  -0.269  53.945  1.00  0.00     0.019 A 
HETATM   27  C1  UNL     1      26.679   0.558  53.170  1.00  0.00     0.011 A 
HETATM   28 BR1  UNL     1      28.540   0.527  53.484  1.00  0.00    -0.051 Br
HETATM   29  C20 UNL     1      26.059   1.338  52.226  1.00  0.00     0.032 A 
ENDBRANCH   1  23
TORSDOF 4
ENDMDL
MODEL 5
REMARK VINA RESULT:      -8.4      3.995      5.280
REMARK  4 active torsions:
REMARK  status: ('A' for Active; 'I' for Inactive)
REMARK    1  A    between atoms: C5_6  and  C6_7 
REMARK    2  A    between atoms: C10_13  and  C11_14 
REMARK    3  A    between atoms: C11_14  and  C12_15 
REMARK    4  A    between atoms: C12_15  and  C13_16 
ROOT
HETATM    1  C6  UNL     1      23.967   2.949  50.215  1.00  0.00     0.100 A 
HETATM    2  N1  UNL     1      23.122   2.752  49.295  1.00  0.00    -0.268 NA
HETATM    3  C7  UNL     1      22.957   3.903  48.435  1.00  0.00     0.279 A 
HETATM    4  N2  UNL     1      23.837   4.896  48.957  1.00  0.00    -0.308 N 
HETATM    5  C8  UNL     1      24.623   6.105  49.241  1.00  0.00     0.105 C 
HETATM    6  C9  UNL     1      25.857   6.317  48.698  1.00  0.00     0.055 C 
HETATM    7  C10 UNL     1      26.700   5.148  48.960  1.00  0.00    -0.053 C 
HETATM    8  C17 UNL     1      25.949   4.276  49.656  1.00  0.00     0.048 C 
HETATM    9  C18 UNL     1      24.535   4.319  50.122  1.00  0.00     0.207 A 
HETATM   10  O2  UNL     1      24.306   5.054  51.264  1.00  0.00    -0.332 OA
HETATM   11  C19 UNL     1      23.370   6.110  51.108  1.00  0.00     0.295 C 
HETATM   12  N4  UNL     1      24.026   7.081  50.177  1.00  0.00    -0.355 N 
HETATM   13  H22 UNL     1      24.264   8.078  49.875  1.00  0.00     0.163 HD
ENDROOT
BRANCH   7  14
HETATM   14  C11 UNL     1      28.074   5.104  48.521  1.00  0.00     0.040 C 
BRANCH  14  15
HETATM   15  C12 UNL     1      28.629   6.299  47.826  1.00  0.00     0.042 C 
BRANCH  15  16
HETATM   16  C13 UNL     1      29.699   7.066  48.510  1.00  0.00     0.244 C 
HETATM   17  C14 UNL     1      30.510   7.800  47.443  1.00  0.00     0.203 C 
HETATM   18  O1  UNL     1      31.441   7.000  46.823  1.00  0.00    -0.387 OA
HETATM   19  C15 UNL     1      32.369   6.629  47.796  1.00  0.00     0.197 C 
HETATM   20  C16 UNL     1      31.649   5.639  48.693  1.00  0.00     0.296 C 
HETATM   21  N3  UNL     1      30.523   6.258  49.350  1.00  0.00     0.092 N 
HETATM   22  H18 UNL     1      30.766   6.707  50.251  1.00  0.00     0.316 HD
ENDBRANCH  15  16
ENDBRANCH  14  15
ENDBRANCH   7  14
BRANCH   1  23
HETATM   23  C5  UNL     1      24.349   1.980  51.235  1.00  0.00    -0.005 A 
HETATM   24  C4  UNL     1      25.700   1.779  51.449  1.00  0.00     0.014 A 
HETATM   25  C3  UNL     1      26.167   0.889  52.388  1.00  0.00     0.002 A 
HETATM   26  C2  UNL     1      25.185   0.205  53.107  1.00  0.00     0.019 A 
HETATM   27  C1  UNL     1      23.812   0.375  52.925  1.00  0.00     0.011 A 
HETATM   28 BR1  UNL     1      22.636  -0.642  53.995  1.00  0.00    -0.051 Br
HETATM   29  C20 UNL     1      23.416   1.280  51.972  1.00  0.00     0.032 A 
ENDBRANCH   1  23
TORSDOF 4
ENDMDL
MODEL 6
REMARK VINA RESULT:      -8.3      2.955      7.137
REMARK  4 active torsions:
REMARK  status: ('A' for Active; 'I' for Inactive)
REMARK    1  A    between atoms: C5_6  and  C6_7 
REMARK    2  A    between atoms: C10_13  and  C11_14 
REMARK    3  A    between atoms: C11_14  and  C12_15 
REMARK    4  A    between atoms: C12_15  and  C13_16 
ROOT
HETATM    1  C6  UNL     1      25.944   0.825  51.965  1.00  0.00     0.100 A 
HETATM    2  N1  UNL     1      26.597  -0.131  51.458  1.00  0.00    -0.268 NA
HETATM    3  C7  UNL     1      26.621  -1.301  52.307  1.00  0.00     0.279 A 
HETATM    4  N2  UNL     1      25.875  -0.943  53.468  1.00  0.00    -0.308 N 
HETATM    5  C8  UNL     1      25.181  -0.887  54.763  1.00  0.00     0.105 C 
HETATM    6  C9  UNL     1      23.872  -1.245  54.905  1.00  0.00     0.055 C 
HETATM    7  C10 UNL     1      23.070  -0.514  53.920  1.00  0.00    -0.053 C 
HETATM    8  C17 UNL     1      23.920   0.262  53.225  1.00  0.00     0.048 C 
HETATM    9  C18 UNL     1      25.397   0.441  53.293  1.00  0.00     0.207 A 
HETATM   10  O2  UNL     1      25.851   1.265  54.299  1.00  0.00    -0.332 OA
HETATM   11  C19 UNL     1      26.763   0.651  55.198  1.00  0.00     0.295 C 
HETATM   12  N4  UNL     1      25.964  -0.391  55.915  1.00  0.00    -0.355 N 
HETATM   13  H22 UNL     1      25.693  -0.922  56.802  1.00  0.00     0.163 HD
ENDROOT
BRANCH   7  14
HETATM   14  C11 UNL     1      21.637  -0.676  53.857  1.00  0.00     0.040 C 
BRANCH  14  15
HETATM   15  C12 UNL     1      20.803   0.530  53.595  1.00  0.00     0.042 C 
BRANCH  15  16
HETATM   16  C13 UNL     1      20.763   1.061  52.211  1.00  0.00     0.244 C 
HETATM   17  C14 UNL     1      20.935   2.577  52.281  1.00  0.00     0.203 C 
HETATM   18  O1  UNL     1      19.774   3.241  52.598  1.00  0.00    -0.387 OA
HETATM   19  C15 UNL     1      18.882   3.024  51.548  1.00  0.00     0.197 C 
HETATM   20  C16 UNL     1      18.457   1.571  51.666  1.00  0.00     0.296 C 
HETATM   21  N3  UNL     1      19.584   0.686  51.497  1.00  0.00     0.092 N 
HETATM   22  H18 UNL     1      19.761   0.425  50.510  1.00  0.00     0.316 HD
ENDBRANCH  15  16
ENDBRANCH  14  15
ENDBRANCH   7  14
BRANCH   1  23
HETATM   23  C5  UNL     1      25.741   2.132  51.352  1.00  0.00    -0.005 A 
HETATM   24  C4  UNL     1      26.625   2.516  50.362  1.00  0.00     0.014 A 
HETATM   25  C3  UNL     1      26.522   3.728  49.719  1.00  0.00     0.002 A 
HETATM   26  C2  UNL     1      25.465   4.541  50.136  1.00  0.00     0.019 A 
HETATM   27  C1  UNL     1      24.550   4.194  51.130  1.00  0.00     0.011 A 
HETATM   28 BR1  UNL     1      23.186   5.428  51.556  1.00  0.00    -0.051 Br
HETATM   29  C20 UNL     1      24.711   2.970  51.729  1.00  0.00     0.032 A 
ENDBRANCH   1  23
TORSDOF 4
ENDMDL
MODEL 7
REMARK VINA RESULT:      -8.2      2.545      6.024
REMARK  4 active torsions:
REMARK  status: ('A' for Active; 'I' for Inactive)
REMARK    1  A    between atoms: C5_6  and  C6_7 
REMARK    2  A    between atoms: C10_13  and  C11_14 
REMARK    3  A    between atoms: C11_14  and  C12_15 
REMARK    4  A    between atoms: C12_15  and  C13_16 
ROOT
HETATM    1  C6  UNL     1      24.308   3.008  52.439  1.00  0.00     0.100 A 
HETATM    2  N1  UNL     1      23.801   3.983  53.063  1.00  0.00    -0.268 NA
HETATM    3  C7  UNL     1      23.384   5.051  52.181  1.00  0.00     0.279 A 
HETATM    4  N2  UNL     1      23.714   4.609  50.867  1.00  0.00    -0.308 N 
HETATM    5  C8  UNL     1      23.925   4.451  49.420  1.00  0.00     0.105 C 
HETATM    6  C9  UNL     1      22.988   3.886  48.604  1.00  0.00     0.055 C 
HETATM    7  C10 UNL     1      22.596   2.587  49.157  1.00  0.00    -0.053 C 
HETATM    8  C17 UNL     1      23.312   2.411  50.282  1.00  0.00     0.048 C 
HETATM    9  C18 UNL     1      24.315   3.266  50.976  1.00  0.00     0.207 A 
HETATM   10  O2  UNL     1      25.588   3.237  50.450  1.00  0.00    -0.332 OA
HETATM   11  C19 UNL     1      26.086   4.502  50.040  1.00  0.00     0.295 C 
HETATM   12  N4  UNL     1      25.226   4.906  48.885  1.00  0.00    -0.355 N 
HETATM   13  H22 UNL     1      25.097   5.337  47.915  1.00  0.00     0.163 HD
ENDROOT
BRANCH   7  14
HETATM   14  C11 UNL     1      21.632   1.749  48.484  1.00  0.00     0.040 C 
BRANCH  14  15
HETATM   15  C12 UNL     1      20.710   0.928  49.317  1.00  0.00     0.042 C 
BRANCH  15  16
HETATM   16  C13 UNL     1      19.578   1.616  49.984  1.00  0.00     0.244 C 
HETATM   17  C14 UNL     1      19.732   1.426  51.492  1.00  0.00     0.203 C 
HETATM   18  O1  UNL     1      19.285   0.203  51.934  1.00  0.00    -0.387 OA
HETATM   19  C15 UNL     1      17.911   0.164  51.700  1.00  0.00     0.197 C 
HETATM   20  C16 UNL     1      17.755   0.033  50.196  1.00  0.00     0.296 C 
HETATM   21  N3  UNL     1      18.300   1.183  49.515  1.00  0.00     0.092 N 
HETATM   22  H18 UNL     1      17.618   1.953  49.394  1.00  0.00     0.316 HD
ENDBRANCH  15  16
ENDBRANCH  14  15
ENDBRANCH   7  14
BRANCH   1  23
HETATM   23  C5  UNL     1      24.820   1.786  53.049  1.00  0.00    -0.005 A 
HETATM   24  C4  UNL     1      23.948   0.723  53.175  1.00  0.00     0.014 A 
HETATM   25  C3  UNL     1      24.329  -0.474  53.736  1.00  0.00     0.002 A 
HETATM   26  C2  UNL     1      25.656  -0.538  54.167  1.00  0.00     0.019 A 
HETATM   27  C1  UNL     1      26.571   0.509  54.060  1.00  0.00     0.011 A 
HETATM   28 BR1  UNL     1      28.325   0.232  54.701  1.00  0.00    -0.051 Br
HETATM   29  C20 UNL     1      26.123   1.675  53.490  1.00  0.00     0.032 A 
ENDBRANCH   1  23
TORSDOF 4
ENDMDL
MODEL 8
REMARK VINA RESULT:      -8.2      2.631      5.145
REMARK  4 active torsions:
REMARK  status: ('A' for Active; 'I' for Inactive)
REMARK    1  A    between atoms: C5_6  and  C6_7 
REMARK    2  A    between atoms: C10_13  and  C11_14 
REMARK    3  A    between atoms: C11_14  and  C12_15 
REMARK    4  A    between atoms: C12_15  and  C13_16 
ROOT
HETATM    1  C6  UNL     1      23.034   4.916  49.593  1.00  0.00     0.100 A 
HETATM    2  N1  UNL     1      21.996   5.444  50.085  1.00  0.00    -0.268 NA
HETATM    3  C7  UNL     1      21.038   4.463  50.546  1.00  0.00     0.279 A 
HETATM    4  N2  UNL     1      21.626   3.196  50.263  1.00  0.00    -0.308 N 
HETATM    5  C8  UNL     1      21.948   1.770  50.106  1.00  0.00     0.105 C 
HETATM    6  C9  UNL     1      22.606   1.061  51.068  1.00  0.00     0.055 C 
HETATM    7  C10 UNL     1      23.835   1.773  51.427  1.00  0.00    -0.053 C 
HETATM    8  C17 UNL     1      23.878   2.882  50.666  1.00  0.00     0.048 C 
HETATM    9  C18 UNL     1      22.945   3.433  49.645  1.00  0.00     0.207 A 
HETATM   10  O2  UNL     1      23.027   2.864  48.393  1.00  0.00    -0.332 OA
HETATM   11  C19 UNL     1      21.815   2.294  47.923  1.00  0.00     0.295 C 
HETATM   12  N4  UNL     1      21.549   1.135  48.831  1.00  0.00    -0.355 N 
HETATM   13  H22 UNL     1      21.233   0.129  49.001  1.00  0.00     0.163 HD
ENDROOT
BRANCH   7  14
HETATM   14  C11 UNL     1      24.749   1.238  52.408  1.00  0.00     0.040 C 
BRANCH  14  15
HETATM   15  C12 UNL     1      26.171   1.681  52.360  1.00  0.00     0.042 C 
BRANCH  15  16
HETATM   16  C13 UNL     1      26.812   2.096  53.631  1.00  0.00     0.244 C 
HETATM   17  C14 UNL     1      28.301   2.308  53.363  1.00  0.00     0.203 C 
HETATM   18  O1  UNL     1      29.022   1.138  53.349  1.00  0.00    -0.387 OA
HETATM   19  C15 UNL     1      28.957   0.606  54.636  1.00  0.00     0.197 C 
HETATM   20  C16 UNL     1      27.535   0.099  54.798  1.00  0.00     0.296 C 
HETATM   21  N3  UNL     1      26.584   1.181  54.703  1.00  0.00     0.092 N 
HETATM   22  H18 UNL     1      26.391   1.642  55.610  1.00  0.00     0.316 HD
ENDBRANCH  15  16
ENDBRANCH  14  15
ENDBRANCH   7  14
BRANCH   1  23
HETATM   23  C5  UNL     1      24.175   5.640  49.046  1.00  0.00    -0.005 A 
HETATM   24  C4  UNL     1      23.935   6.883  48.491  1.00  0.00     0.014 A 
HETATM   25  C3  UNL     1      24.941   7.648  47.948  1.00  0.00     0.002 A 
HETATM   26  C2  UNL     1      26.217   7.083  47.997  1.00  0.00     0.019 A 
HETATM   27  C1  UNL     1      26.506   5.834  48.547  1.00  0.00     0.011 A 
HETATM   28 BR1  UNL     1      28.298   5.241  48.522  1.00  0.00    -0.051 Br
HETATM   29  C20 UNL     1      25.455   5.124  49.072  1.00  0.00     0.032 A 
ENDBRANCH   1  23
TORSDOF 4
ENDMDL
MODEL 9
REMARK VINA RESULT:      -8.2      6.779     10.299
REMARK  4 active torsions:
REMARK  status: ('A' for Active; 'I' for Inactive)
REMARK    1  A    between atoms: C5_6  and  C6_7 
REMARK    2  A    between atoms: C10_13  and  C11_14 
REMARK    3  A    between atoms: C11_14  and  C12_15 
REMARK    4  A    between atoms: C12_15  and  C13_16 
ROOT
HETATM    1  C6  UNL     1      32.003   6.485  48.445  1.00  0.00     0.100 A 
HETATM    2  N1  UNL     1      32.293   7.385  49.284  1.00  0.00    -0.268 NA
HETATM    3  C7  UNL     1      31.326   8.460  49.303  1.00  0.00     0.279 A 
HETATM    4  N2  UNL     1      30.353   8.114  48.321  1.00  0.00    -0.308 N 
HETATM    5  C8  UNL     1      29.208   8.047  47.401  1.00  0.00     0.105 C 
HETATM    6  C9  UNL     1      28.029   7.454  47.747  1.00  0.00     0.055 C 
HETATM    7  C10 UNL     1      28.303   6.101  48.239  1.00  0.00    -0.053 C 
HETATM    8  C17 UNL     1      29.635   5.924  48.168  1.00  0.00     0.048 C 
HETATM    9  C18 UNL     1      30.743   6.819  47.731  1.00  0.00     0.207 A 
HETATM   10  O2  UNL     1      30.927   6.917  46.370  1.00  0.00    -0.332 OA
HETATM   11  C19 UNL     1      30.830   8.237  45.855  1.00  0.00     0.295 C 
HETATM   12  N4  UNL     1      29.401   8.631  46.057  1.00  0.00    -0.355 N 
HETATM   13  H22 UNL     1      28.500   9.100  45.723  1.00  0.00     0.163 HD
ENDROOT
BRANCH   7  14
HETATM   14  C11 UNL     1      27.233   5.226  48.653  1.00  0.00     0.040 C 
BRANCH  14  15
HETATM   15  C12 UNL     1      25.889   5.823  48.896  1.00  0.00     0.042 C 
BRANCH  15  16
HETATM   16  C13 UNL     1      25.329   5.739  50.266  1.00  0.00     0.244 C 
HETATM   17  C14 UNL     1      23.973   5.041  50.181  1.00  0.00     0.203 C 
HETATM   18  O1  UNL     1      22.956   5.877  49.786  1.00  0.00    -0.387 OA
HETATM   19  C15 UNL     1      22.808   6.838  50.786  1.00  0.00     0.197 C 
HETATM   20  C16 UNL     1      24.023   7.741  50.669  1.00  0.00     0.296 C 
HETATM   21  N3  UNL     1      25.241   7.007  50.917  1.00  0.00     0.092 N 
HETATM   22  H18 UNL     1      25.511   6.982  51.917  1.00  0.00     0.316 HD
ENDBRANCH  15  16
ENDBRANCH  14  15
ENDBRANCH   7  14
BRANCH   1  23
HETATM   23  C5  UNL     1      32.782   5.278  48.194  1.00  0.00    -0.005 A 
HETATM   24  C4  UNL     1      34.140   5.334  48.439  1.00  0.00     0.014 A 
HETATM   25  C3  UNL     1      34.965   4.252  48.235  1.00  0.00     0.002 A 
HETATM   26  C2  UNL     1      34.335   3.098  47.764  1.00  0.00     0.019 A 
HETATM   27  C1  UNL     1      32.969   2.997  47.503  1.00  0.00     0.011 A 
HETATM   28 BR1  UNL     1      32.301   1.348  46.870  1.00  0.00    -0.051 Br
HETATM   29  C20 UNL     1      32.204   4.114  47.729  1.00  0.00     0.032 A 
ENDBRANCH   1  23
TORSDOF 4
ENDMDL
