MODEL 1
REMARK VINA RESULT:      -8.7      0.000      0.000
REMARK  5 active torsions:
REMARK  status: ('A' for Active; 'I' for Inactive)
REMARK    1  A    between atoms: O1_2  and  C2_3 
REMARK    2  A    between atoms: C6_9  and  N3_10 
REMARK    3  A    between atoms: N3_10  and  C7_11 
REMARK    4  A    between atoms: C15_21  and  O2_22 
REMARK    5  A    between atoms: O2_22  and  C16_23 
ROOT
HETATM    1  C2  UNL     1      20.086   0.330  52.577  1.00  0.00     0.104 A 
HETATM    2  C3  UNL     1      20.443  -0.328  53.717  1.00  0.00     0.072 A 
HETATM    3  C4  UNL     1      21.742  -0.556  54.088  1.00  0.00     0.075 A 
HETATM    4  N1  UNL     1      22.006  -1.216  55.234  1.00  0.00    -0.241 NA
HETATM    5  C5  UNL     1      23.281  -1.451  55.620  1.00  0.00     0.236 A 
HETATM    6  N2  UNL     1      24.299  -1.016  54.839  1.00  0.00    -0.224 NA
HETATM    7  C6  UNL     1      24.072  -0.351  53.684  1.00  0.00     0.142 A 
HETATM    8  C13 UNL     1      22.770  -0.094  53.260  1.00  0.00     0.042 A 
HETATM    9  C14 UNL     1      22.436   0.574  52.102  1.00  0.00     0.057 A 
HETATM   10  C15 UNL     1      21.112   0.785  51.760  1.00  0.00     0.109 A 
ENDROOT
BRANCH   7  11
HETATM   11  N3  UNL     1      25.109   0.123  52.835  1.00  0.00    -0.340 N 
HETATM   12  H6  UNL     1      24.891   0.655  51.981  1.00  0.00     0.167 HD
BRANCH  11  13
HETATM   13  C7  UNL     1      26.494  -0.089  53.079  1.00  0.00     0.035 A 
HETATM   14  C8  UNL     1      27.160  -1.288  52.841  1.00  0.00     0.032 A 
HETATM   15  C9  UNL     1      28.492  -1.460  53.084  1.00  0.00     0.046 A 
HETATM   16  C10 UNL     1      29.250  -0.430  53.587  1.00  0.00     0.138 A 
HETATM   17  F1  UNL     1      30.565  -0.578  53.834  1.00  0.00    -0.204 F 
HETATM   18  C11 UNL     1      28.626   0.756  53.830  1.00  0.00     0.074 A 
HETATM   19 CL1  UNL     1      29.587   2.092  54.477  1.00  0.00    -0.081 Cl
HETATM   20  C12 UNL     1      27.272   0.923  53.580  1.00  0.00     0.056 A 
ENDBRANCH  11  13
ENDBRANCH   7  11
BRANCH  10  21
HETATM   21  O2  UNL     1      20.835   1.475  50.562  1.00  0.00    -0.320 OA
BRANCH  21  22
HETATM   22  C16 UNL     1      21.190   0.852  49.379  1.00  0.00     0.149 C 
HETATM   23  C17 UNL     1      21.826   1.832  48.741  1.00  0.00    -0.011 C 
HETATM   24  C18 UNL     1      22.143   3.248  49.076  1.00  0.00     0.206 C 
HETATM   25  C19 UNL     1      22.545   2.190  47.490  1.00  0.00     0.206 C 
HETATM   26  O3  UNL     1      22.123   3.520  47.710  1.00  0.00    -0.383 OA
ENDBRANCH  21  22
ENDBRANCH  10  21
BRANCH   1  27
HETATM   27  O1  UNL     1      18.806   0.604  52.124  1.00  0.00    -0.353 OA
HETATM   28  C1  UNL     1      17.974  -0.418  51.621  1.00  0.00     0.210 C 
ENDBRANCH   1  27
TORSDOF 5
ENDMDL
MODEL 2
REMARK VINA RESULT:      -8.6      2.425      4.772
REMARK  5 active torsions:
REMARK  status: ('A' for Active; 'I' for Inactive)
REMARK    1  A    between atoms: O1_2  and  C2_3 
REMARK    2  A    between atoms: C6_9  and  N3_10 
REMARK    3  A    between atoms: N3_10  and  C7_11 
REMARK    4  A    between atoms: C15_21  and  O2_22 
REMARK    5  A    between atoms: O2_22  and  C16_23 
ROOT
HETATM    1  C2  UNL     1      21.998   2.390  50.133  1.00  0.00     0.104 A 
HETATM    2  C3  UNL     1      23.042   2.950  49.457  1.00  0.00     0.072 A 
HETATM    3  C4  UNL     1      24.325   2.988  49.936  1.00  0.00     0.075 A 
HETATM    4  N1  UNL     1      25.298   3.562  49.200  1.00  0.00    -0.241 NA
HETATM    5  C5  UNL     1      26.572   3.610  49.654  1.00  0.00     0.236 A 
HETATM    6  N2  UNL     1      26.864   3.073  50.863  1.00  0.00    -0.224 NA
HETATM    7  C6  UNL     1      25.914   2.490  51.627  1.00  0.00     0.142 A 
HETATM    8  C13 UNL     1      24.594   2.425  51.188  1.00  0.00     0.042 A 
HETATM    9  C14 UNL     1      23.556   1.853  51.892  1.00  0.00     0.057 A 
HETATM   10  C15 UNL     1      22.272   1.835  51.375  1.00  0.00     0.109 A 
ENDROOT
BRANCH   7  11
HETATM   11  N3  UNL     1      26.175   1.915  52.901  1.00  0.00    -0.340 N 
HETATM   12  H6  UNL     1      25.535   2.068  53.692  1.00  0.00     0.167 HD
BRANCH  11  13
HETATM   13  C7  UNL     1      27.308   1.105  53.188  1.00  0.00     0.035 A 
HETATM   14  C8  UNL     1      28.499   1.582  53.730  1.00  0.00     0.032 A 
HETATM   15  C9  UNL     1      29.570   0.778  53.997  1.00  0.00     0.046 A 
HETATM   16  C10 UNL     1      29.515  -0.570  53.734  1.00  0.00     0.138 A 
HETATM   17  F1  UNL     1      30.559  -1.380  53.988  1.00  0.00    -0.204 F 
HETATM   18  C11 UNL     1      28.362  -1.066  53.203  1.00  0.00     0.074 A 
HETATM   19 CL1  UNL     1      28.276  -2.797  52.859  1.00  0.00    -0.081 Cl
HETATM   20  C12 UNL     1      27.279  -0.242  52.935  1.00  0.00     0.056 A 
ENDBRANCH  11  13
ENDBRANCH   7  11
BRANCH  10  21
HETATM   21  O2  UNL     1      21.254   1.235  52.144  1.00  0.00    -0.320 OA
BRANCH  21  22
HETATM   22  C16 UNL     1      21.110  -0.137  52.040  1.00  0.00     0.149 C 
HETATM   23  C17 UNL     1      21.050  -0.498  53.319  1.00  0.00    -0.011 C 
HETATM   24  C18 UNL     1      21.109   0.247  54.608  1.00  0.00     0.206 C 
HETATM   25  C19 UNL     1      20.911  -1.657  54.241  1.00  0.00     0.206 C 
HETATM   26  O3  UNL     1      21.641  -0.902  55.188  1.00  0.00    -0.383 OA
ENDBRANCH  21  22
ENDBRANCH  10  21
BRANCH   1  27
HETATM   27  O1  UNL     1      20.675   2.306  49.729  1.00  0.00    -0.353 OA
HETATM   28  C1  UNL     1      20.317   2.440  48.372  1.00  0.00     0.210 C 
ENDBRANCH   1  27
TORSDOF 5
ENDMDL
MODEL 3
REMARK VINA RESULT:      -8.4      4.705      6.828
REMARK  5 active torsions:
REMARK  status: ('A' for Active; 'I' for Inactive)
REMARK    1  A    between atoms: O1_2  and  C2_3 
REMARK    2  A    between atoms: C6_9  and  N3_10 
REMARK    3  A    between atoms: N3_10  and  C7_11 
REMARK    4  A    between atoms: C15_21  and  O2_22 
REMARK    5  A    between atoms: O2_22  and  C16_23 
ROOT
HETATM    1  C2  UNL     1      23.699  -0.024  53.492  1.00  0.00     0.104 A 
HETATM    2  C3  UNL     1      22.690   0.593  52.811  1.00  0.00     0.072 A 
HETATM    3  C4  UNL     1      22.894   1.496  51.802  1.00  0.00     0.075 A 
HETATM    4  N1  UNL     1      21.837   2.059  51.182  1.00  0.00    -0.241 NA
HETATM    5  C5  UNL     1      22.016   2.953  50.183  1.00  0.00     0.236 A 
HETATM    6  N2  UNL     1      23.276   3.282  49.808  1.00  0.00    -0.224 NA
HETATM    7  C6  UNL     1      24.358   2.739  50.407  1.00  0.00     0.142 A 
HETATM    8  C13 UNL     1      24.207   1.815  51.439  1.00  0.00     0.042 A 
HETATM    9  C14 UNL     1      25.245   1.206  52.111  1.00  0.00     0.057 A 
HETATM   10  C15 UNL     1      24.998   0.298  53.126  1.00  0.00     0.109 A 
ENDROOT
BRANCH   7  11
HETATM   11  N3  UNL     1      25.697   3.054  50.046  1.00  0.00    -0.340 N 
HETATM   12  H6  UNL     1      26.433   2.335  50.061  1.00  0.00     0.167 HD
BRANCH  11  13
HETATM   13  C7  UNL     1      26.126   4.351  49.650  1.00  0.00     0.035 A 
HETATM   14  C8  UNL     1      27.230   4.601  48.839  1.00  0.00     0.032 A 
HETATM   15  C9  UNL     1      27.616   5.859  48.473  1.00  0.00     0.046 A 
HETATM   16  C10 UNL     1      26.911   6.958  48.901  1.00  0.00     0.138 A 
HETATM   17  F1  UNL     1      27.275   8.207  48.553  1.00  0.00    -0.204 F 
HETATM   18  C11 UNL     1      25.825   6.745  49.696  1.00  0.00     0.074 A 
HETATM   19 CL1  UNL     1      24.908   8.149  50.254  1.00  0.00    -0.081 Cl
HETATM   20  C12 UNL     1      25.440   5.465  50.063  1.00  0.00     0.056 A 
ENDBRANCH  11  13
ENDBRANCH   7  11
BRANCH  10  21
HETATM   21  O2  UNL     1      26.103  -0.290  53.775  1.00  0.00    -0.320 OA
BRANCH  21  22
HETATM   22  C16 UNL     1      26.914  -1.115  53.017  1.00  0.00     0.149 C 
HETATM   23  C17 UNL     1      28.123  -0.795  53.474  1.00  0.00    -0.011 C 
HETATM   24  C18 UNL     1      28.619   0.159  54.504  1.00  0.00     0.206 C 
HETATM   25  C19 UNL     1      29.577  -1.077  53.341  1.00  0.00     0.206 C 
HETATM   26  O3  UNL     1      29.803   0.248  53.775  1.00  0.00    -0.383 OA
ENDBRANCH  21  22
ENDBRANCH  10  21
BRANCH   1  27
HETATM   27  O1  UNL     1      23.587  -0.945  54.520  1.00  0.00    -0.353 OA
HETATM   28  C1  UNL     1      22.326  -1.391  54.967  1.00  0.00     0.210 C 
ENDBRANCH   1  27
TORSDOF 5
ENDMDL
MODEL 4
REMARK VINA RESULT:      -8.3      4.655      6.837
REMARK  5 active torsions:
REMARK  status: ('A' for Active; 'I' for Inactive)
REMARK    1  A    between atoms: O1_2  and  C2_3 
REMARK    2  A    between atoms: C6_9  and  N3_10 
REMARK    3  A    between atoms: N3_10  and  C7_11 
REMARK    4  A    between atoms: C15_21  and  O2_22 
REMARK    5  A    between atoms: O2_22  and  C16_23 
ROOT
HETATM    1  C2  UNL     1      23.539   0.074  53.268  1.00  0.00     0.104 A 
HETATM    2  C3  UNL     1      22.531   0.658  52.559  1.00  0.00     0.072 A 
HETATM    3  C4  UNL     1      22.735   1.559  51.548  1.00  0.00     0.075 A 
HETATM    4  N1  UNL     1      21.679   2.088  50.898  1.00  0.00    -0.241 NA
HETATM    5  C5  UNL     1      21.858   2.980  49.897  1.00  0.00     0.236 A 
HETATM    6  N2  UNL     1      23.117   3.342  49.550  1.00  0.00    -0.224 NA
HETATM    7  C6  UNL     1      24.199   2.833  50.180  1.00  0.00     0.142 A 
HETATM    8  C13 UNL     1      24.047   1.912  51.215  1.00  0.00     0.042 A 
HETATM    9  C14 UNL     1      25.085   1.337  51.917  1.00  0.00     0.057 A 
HETATM   10  C15 UNL     1      24.838   0.430  52.932  1.00  0.00     0.109 A 
ENDROOT
BRANCH   7  11
HETATM   11  N3  UNL     1      25.537   3.183  49.850  1.00  0.00    -0.340 N 
HETATM   12  H6  UNL     1      26.270   2.464  49.780  1.00  0.00     0.167 HD
BRANCH  11  13
HETATM   13  C7  UNL     1      25.968   4.515  49.598  1.00  0.00     0.035 A 
HETATM   14  C8  UNL     1      25.311   5.654  50.055  1.00  0.00     0.032 A 
HETATM   15  C9  UNL     1      25.753   6.921  49.798  1.00  0.00     0.046 A 
HETATM   16  C10 UNL     1      26.893   7.128  49.059  1.00  0.00     0.138 A 
HETATM   17  F1  UNL     1      27.345   8.368  48.794  1.00  0.00    -0.204 F 
HETATM   18  C11 UNL     1      27.557   6.031  48.599  1.00  0.00     0.074 A 
HETATM   19 CL1  UNL     1      29.026   6.281  47.647  1.00  0.00    -0.081 Cl
HETATM   20  C12 UNL     1      27.102   4.748  48.864  1.00  0.00     0.056 A 
ENDBRANCH  11  13
ENDBRANCH   7  11
BRANCH  10  21
HETATM   21  O2  UNL     1      25.943  -0.124  53.612  1.00  0.00    -0.320 OA
BRANCH  21  22
HETATM   22  C16 UNL     1      26.854  -0.840  52.858  1.00  0.00     0.149 C 
HETATM   23  C17 UNL     1      27.993  -0.576  53.493  1.00  0.00    -0.011 C 
HETATM   24  C18 UNL     1      28.345   0.240  54.688  1.00  0.00     0.206 C 
HETATM   25  C19 UNL     1      29.458  -0.832  53.500  1.00  0.00     0.206 C 
HETATM   26  O3  UNL     1      29.605   0.428  54.123  1.00  0.00    -0.383 OA
ENDBRANCH  21  22
ENDBRANCH  10  21
BRANCH   1  27
HETATM   27  O1  UNL     1      23.428  -0.843  54.300  1.00  0.00    -0.353 OA
HETATM   28  C1  UNL     1      22.166  -1.287  54.749  1.00  0.00     0.210 C 
ENDBRANCH   1  27
TORSDOF 5
ENDMDL
MODEL 5
REMARK VINA RESULT:      -8.1      4.770      6.863
REMARK  5 active torsions:
REMARK  status: ('A' for Active; 'I' for Inactive)
REMARK    1  A    between atoms: O1_2  and  C2_3 
REMARK    2  A    between atoms: C6_9  and  N3_10 
REMARK    3  A    between atoms: N3_10  and  C7_11 
REMARK    4  A    between atoms: C15_21  and  O2_22 
REMARK    5  A    between atoms: O2_22  and  C16_23 
ROOT
HETATM    1  C2  UNL     1      22.921   0.681  53.035  1.00  0.00     0.104 A 
HETATM    2  C3  UNL     1      21.811   1.317  52.562  1.00  0.00     0.072 A 
HETATM    3  C4  UNL     1      21.795   2.629  52.172  1.00  0.00     0.075 A 
HETATM    4  N1  UNL     1      20.651   3.179  51.715  1.00  0.00    -0.241 NA
HETATM    5  C5  UNL     1      20.613   4.474  51.324  1.00  0.00     0.236 A 
HETATM    6  N2  UNL     1      21.742   5.220  51.396  1.00  0.00    -0.224 NA
HETATM    7  C6  UNL     1      22.906   4.702  51.848  1.00  0.00     0.142 A 
HETATM    8  C13 UNL     1      22.977   3.373  52.259  1.00  0.00     0.042 A 
HETATM    9  C14 UNL     1      24.113   2.754  52.734  1.00  0.00     0.057 A 
HETATM   10  C15 UNL     1      24.090   1.425  53.119  1.00  0.00     0.109 A 
ENDROOT
BRANCH   7  11
HETATM   11  N3  UNL     1      24.113   5.447  51.941  1.00  0.00    -0.340 N 
HETATM   12  H6  UNL     1      24.452   5.794  52.848  1.00  0.00     0.167 HD
BRANCH  11  13
HETATM   13  C7  UNL     1      24.932   5.771  50.824  1.00  0.00     0.035 A 
HETATM   14  C8  UNL     1      25.534   4.832  49.991  1.00  0.00     0.032 A 
HETATM   15  C9  UNL     1      26.314   5.176  48.924  1.00  0.00     0.046 A 
HETATM   16  C10 UNL     1      26.543   6.496  48.621  1.00  0.00     0.138 A 
HETATM   17  F1  UNL     1      27.309   6.856  47.574  1.00  0.00    -0.204 F 
HETATM   18  C11 UNL     1      25.967   7.438  49.419  1.00  0.00     0.074 A 
HETATM   19 CL1  UNL     1      26.251   9.142  49.043  1.00  0.00    -0.081 Cl
HETATM   20  C12 UNL     1      25.176   7.082  50.501  1.00  0.00     0.056 A 
ENDBRANCH  11  13
ENDBRANCH   7  11
BRANCH  10  21
HETATM   21  O2  UNL     1      25.286   0.850  53.597  1.00  0.00    -0.320 OA
BRANCH  21  22
HETATM   22  C16 UNL     1      26.267   1.716  54.044  1.00  0.00     0.149 C 
HETATM   23  C17 UNL     1      27.341   0.929  54.039  1.00  0.00    -0.011 C 
HETATM   24  C18 UNL     1      27.575  -0.498  53.680  1.00  0.00     0.206 C 
HETATM   25  C19 UNL     1      28.800   0.876  54.321  1.00  0.00     0.206 C 
HETATM   26  O3  UNL     1      28.626  -0.500  54.593  1.00  0.00    -0.383 OA
ENDBRANCH  21  22
ENDBRANCH  10  21
BRANCH   1  27
HETATM   27  O1  UNL     1      23.030  -0.636  53.451  1.00  0.00    -0.353 OA
HETATM   28  C1  UNL     1      22.393  -1.086  54.626  1.00  0.00     0.210 C 
ENDBRANCH   1  27
TORSDOF 5
ENDMDL
MODEL 6
REMARK VINA RESULT:      -8.1      3.984      6.498
REMARK  5 active torsions:
REMARK  status: ('A' for Active; 'I' for Inactive)
REMARK    1  A    between atoms: O1_2  and  C2_3 
REMARK    2  A    between atoms: C6_9  and  N3_10 
REMARK    3  A    between atoms: N3_10  and  C7_11 
REMARK    4  A    between atoms: C15_21  and  O2_22 
REMARK    5  A    between atoms: O2_22  and  C16_23 
ROOT
HETATM    1  C2  UNL     1      24.281  -0.834  54.546  1.00  0.00     0.104 A 
HETATM    2  C3  UNL     1      22.920  -0.922  54.518  1.00  0.00     0.072 A 
HETATM    3  C4  UNL     1      22.143  -0.372  53.534  1.00  0.00     0.075 A 
HETATM    4  N1  UNL     1      20.802  -0.508  53.584  1.00  0.00    -0.241 NA
HETATM    5  C5  UNL     1      20.016   0.027  52.622  1.00  0.00     0.236 A 
HETATM    6  N2  UNL     1      20.590   0.707  51.600  1.00  0.00    -0.224 NA
HETATM    7  C6  UNL     1      21.930   0.863  51.518  1.00  0.00     0.142 A 
HETATM    8  C13 UNL     1      22.766   0.324  52.492  1.00  0.00     0.042 A 
HETATM    9  C14 UNL     1      24.141   0.429  52.498  1.00  0.00     0.057 A 
HETATM   10  C15 UNL     1      24.893  -0.141  53.510  1.00  0.00     0.109 A 
ENDROOT
BRANCH   7  11
HETATM   11  N3  UNL     1      22.575   1.568  50.465  1.00  0.00    -0.340 N 
HETATM   12  H6  UNL     1      22.665   1.153  49.527  1.00  0.00     0.167 HD
BRANCH  11  13
HETATM   13  C7  UNL     1      23.139   2.866  50.609  1.00  0.00     0.035 A 
HETATM   14  C8  UNL     1      22.608   3.869  51.414  1.00  0.00     0.032 A 
HETATM   15  C9  UNL     1      23.174   5.106  51.533  1.00  0.00     0.046 A 
HETATM   16  C10 UNL     1      24.321   5.420  50.844  1.00  0.00     0.138 A 
HETATM   17  F1  UNL     1      24.895   6.633  50.947  1.00  0.00    -0.204 F 
HETATM   18  C11 UNL     1      24.864   4.457  50.047  1.00  0.00     0.074 A 
HETATM   19 CL1  UNL     1      26.340   4.844  49.154  1.00  0.00    -0.081 Cl
HETATM   20  C12 UNL     1      24.283   3.203  49.932  1.00  0.00     0.056 A 
ENDBRANCH  11  13
ENDBRANCH   7  11
BRANCH  10  21
HETATM   21  O2  UNL     1      26.295   0.001  53.458  1.00  0.00    -0.320 OA
BRANCH  21  22
HETATM   22  C16 UNL     1      26.996  -0.934  52.719  1.00  0.00     0.149 C 
HETATM   23  C17 UNL     1      28.188  -0.904  53.312  1.00  0.00    -0.011 C 
HETATM   24  C18 UNL     1      28.755  -0.134  54.454  1.00  0.00     0.206 C 
HETATM   25  C19 UNL     1      29.559  -1.480  53.296  1.00  0.00     0.206 C 
HETATM   26  O3  UNL     1      30.004  -0.259  53.849  1.00  0.00    -0.383 OA
ENDBRANCH  21  22
ENDBRANCH  10  21
BRANCH   1  27
HETATM   27  O1  UNL     1      25.144  -1.356  55.496  1.00  0.00    -0.353 OA
HETATM   28  C1  UNL     1      25.072  -0.955  56.847  1.00  0.00     0.210 C 
ENDBRANCH   1  27
TORSDOF 5
ENDMDL
MODEL 7
REMARK VINA RESULT:      -8.0      2.112      3.048
REMARK  5 active torsions:
REMARK  status: ('A' for Active; 'I' for Inactive)
REMARK    1  A    between atoms: O1_2  and  C2_3 
REMARK    2  A    between atoms: C6_9  and  N3_10 
REMARK    3  A    between atoms: N3_10  and  C7_11 
REMARK    4  A    between atoms: C15_21  and  O2_22 
REMARK    5  A    between atoms: O2_22  and  C16_23 
ROOT
HETATM    1  C2  UNL     1      21.881   1.501  49.813  1.00  0.00     0.104 A 
HETATM    2  C3  UNL     1      21.535   0.573  50.752  1.00  0.00     0.072 A 
HETATM    3  C4  UNL     1      22.276   0.314  51.874  1.00  0.00     0.075 A 
HETATM    4  N1  UNL     1      21.859  -0.621  52.752  1.00  0.00    -0.241 NA
HETATM    5  C5  UNL     1      22.576  -0.892  53.867  1.00  0.00     0.236 A 
HETATM    6  N2  UNL     1      23.725  -0.211  54.097  1.00  0.00    -0.224 NA
HETATM    7  C6  UNL     1      24.172   0.733  53.240  1.00  0.00     0.142 A 
HETATM    8  C13 UNL     1      23.458   1.034  52.083  1.00  0.00     0.042 A 
HETATM    9  C14 UNL     1      23.830   1.977  51.149  1.00  0.00     0.057 A 
HETATM   10  C15 UNL     1      23.055   2.210  50.027  1.00  0.00     0.109 A 
ENDROOT
BRANCH   7  11
HETATM   11  N3  UNL     1      25.371   1.471  53.441  1.00  0.00    -0.340 N 
HETATM   12  H6  UNL     1      25.348   2.491  53.575  1.00  0.00     0.167 HD
BRANCH  11  13
HETATM   13  C7  UNL     1      26.667   0.885  53.471  1.00  0.00     0.035 A 
HETATM   14  C8  UNL     1      27.836   1.578  53.773  1.00  0.00     0.032 A 
HETATM   15  C9  UNL     1      29.067   0.986  53.796  1.00  0.00     0.046 A 
HETATM   16  C10 UNL     1      29.205  -0.352  53.516  1.00  0.00     0.138 A 
HETATM   17  F1  UNL     1      30.408  -0.955  53.533  1.00  0.00    -0.204 F 
HETATM   18  C11 UNL     1      28.077  -1.056  53.217  1.00  0.00     0.074 A 
HETATM   19 CL1  UNL     1      28.238  -2.779  52.854  1.00  0.00    -0.081 Cl
HETATM   20  C12 UNL     1      26.831  -0.448  53.195  1.00  0.00     0.056 A 
ENDBRANCH  11  13
ENDBRANCH   7  11
BRANCH  10  21
HETATM   21  O2  UNL     1      23.490   3.189  49.109  1.00  0.00    -0.320 OA
BRANCH  21  22
HETATM   22  C16 UNL     1      24.653   3.870  49.418  1.00  0.00     0.149 C 
HETATM   23  C17 UNL     1      24.369   5.095  48.983  1.00  0.00    -0.011 C 
HETATM   24  C18 UNL     1      23.181   5.710  48.328  1.00  0.00     0.206 C 
HETATM   25  C19 UNL     1      24.895   6.480  48.845  1.00  0.00     0.206 C 
HETATM   26  O3  UNL     1      24.049   6.615  47.722  1.00  0.00    -0.383 OA
ENDBRANCH  21  22
ENDBRANCH  10  21
BRANCH   1  27
HETATM   27  O1  UNL     1      21.197   1.828  48.654  1.00  0.00    -0.353 OA
HETATM   28  C1  UNL     1      19.965   2.513  48.702  1.00  0.00     0.210 C 
ENDBRANCH   1  27
TORSDOF 5
ENDMDL
MODEL 8
REMARK VINA RESULT:      -7.8      4.525      6.917
REMARK  5 active torsions:
REMARK  status: ('A' for Active; 'I' for Inactive)
REMARK    1  A    between atoms: O1_2  and  C2_3 
REMARK    2  A    between atoms: C6_9  and  N3_10 
REMARK    3  A    between atoms: N3_10  and  C7_11 
REMARK    4  A    between atoms: C15_21  and  O2_22 
REMARK    5  A    between atoms: O2_22  and  C16_23 
ROOT
HETATM    1  C2  UNL     1      22.948   0.155  53.114  1.00  0.00     0.104 A 
HETATM    2  C3  UNL     1      21.890   0.115  52.255  1.00  0.00     0.072 A 
HETATM    3  C4  UNL     1      21.834   0.824  51.085  1.00  0.00     0.075 A 
HETATM    4  N1  UNL     1      20.746   0.725  50.292  1.00  0.00    -0.241 NA
HETATM    5  C5  UNL     1      20.671   1.417  49.132  1.00  0.00     0.236 A 
HETATM    6  N2  UNL     1      21.703   2.216  48.769  1.00  0.00    -0.224 NA
HETATM    7  C6  UNL     1      22.807   2.339  49.538  1.00  0.00     0.142 A 
HETATM    8  C13 UNL     1      22.916   1.640  50.738  1.00  0.00     0.042 A 
HETATM    9  C14 UNL     1      23.998   1.699  51.590  1.00  0.00     0.057 A 
HETATM   10  C15 UNL     1      24.018   0.967  52.765  1.00  0.00     0.109 A 
ENDROOT
BRANCH   7  11
HETATM   11  N3  UNL     1      23.913   3.165  49.197  1.00  0.00    -0.340 N 
HETATM   12  H6  UNL     1      24.681   2.807  48.613  1.00  0.00     0.167 HD
BRANCH  11  13
HETATM   13  C7  UNL     1      24.054   4.515  49.620  1.00  0.00     0.035 A 
HETATM   14  C8  UNL     1      25.269   5.189  49.709  1.00  0.00     0.032 A 
HETATM   15  C9  UNL     1      25.371   6.488  50.118  1.00  0.00     0.046 A 
HETATM   16  C10 UNL     1      24.250   7.202  50.467  1.00  0.00     0.138 A 
HETATM   17  F1  UNL     1      24.328   8.483  50.872  1.00  0.00    -0.204 F 
HETATM   18  C11 UNL     1      23.046   6.569  50.389  1.00  0.00     0.074 A 
HETATM   19 CL1  UNL     1      21.594   7.473  50.835  1.00  0.00    -0.081 Cl
HETATM   20  C12 UNL     1      22.951   5.249  49.974  1.00  0.00     0.056 A 
ENDBRANCH  11  13
ENDBRANCH   7  11
BRANCH  10  21
HETATM   21  O2  UNL     1      25.154   1.070  53.593  1.00  0.00    -0.320 OA
BRANCH  21  22
HETATM   22  C16 UNL     1      26.050   2.086  53.312  1.00  0.00     0.149 C 
HETATM   23  C17 UNL     1      27.193   1.564  53.750  1.00  0.00    -0.011 C 
HETATM   24  C18 UNL     1      27.561   0.268  54.386  1.00  0.00     0.206 C 
HETATM   25  C19 UNL     1      28.651   1.811  53.908  1.00  0.00     0.206 C 
HETATM   26  O3  UNL     1      28.609   0.935  55.016  1.00  0.00    -0.383 OA
ENDBRANCH  21  22
ENDBRANCH  10  21
BRANCH   1  27
HETATM   27  O1  UNL     1      23.092  -0.525  54.313  1.00  0.00    -0.353 OA
HETATM   28  C1  UNL     1      22.076  -1.377  54.795  1.00  0.00     0.210 C 
ENDBRANCH   1  27
TORSDOF 5
ENDMDL
MODEL 9
REMARK VINA RESULT:      -7.7      4.140      5.572
REMARK  5 active torsions:
REMARK  status: ('A' for Active; 'I' for Inactive)
REMARK    1  A    between atoms: O1_2  and  C2_3 
REMARK    2  A    between atoms: C6_9  and  N3_10 
REMARK    3  A    between atoms: N3_10  and  C7_11 
REMARK    4  A    between atoms: C15_21  and  O2_22 
REMARK    5  A    between atoms: O2_22  and  C16_23 
ROOT
HETATM    1  C2  UNL     1      22.974   0.491  53.022  1.00  0.00     0.104 A 
HETATM    2  C3  UNL     1      24.240   0.591  53.519  1.00  0.00     0.072 A 
HETATM    3  C4  UNL     1      25.256   1.252  52.882  1.00  0.00     0.075 A 
HETATM    4  N1  UNL     1      26.481   1.302  53.447  1.00  0.00    -0.241 NA
HETATM    5  C5  UNL     1      27.498   1.951  52.835  1.00  0.00     0.236 A 
HETATM    6  N2  UNL     1      27.277   2.553  51.642  1.00  0.00    -0.224 NA
HETATM    7  C6  UNL     1      26.064   2.524  51.047  1.00  0.00     0.142 A 
HETATM    8  C13 UNL     1      24.996   1.864  51.651  1.00  0.00     0.042 A 
HETATM    9  C14 UNL     1      23.724   1.777  51.127  1.00  0.00     0.057 A 
HETATM   10  C15 UNL     1      22.723   1.099  51.800  1.00  0.00     0.109 A 
ENDROOT
BRANCH   7  11
HETATM   11  N3  UNL     1      25.787   3.141  49.797  1.00  0.00    -0.340 N 
HETATM   12  H6  UNL     1      25.182   2.683  49.103  1.00  0.00     0.167 HD
BRANCH  11  13
HETATM   13  C7  UNL     1      26.306   4.406  49.406  1.00  0.00     0.035 A 
HETATM   14  C8  UNL     1      25.625   5.613  49.544  1.00  0.00     0.032 A 
HETATM   15  C9  UNL     1      26.152   6.813  49.160  1.00  0.00     0.046 A 
HETATM   16  C10 UNL     1      27.408   6.881  48.608  1.00  0.00     0.138 A 
HETATM   17  F1  UNL     1      27.946   8.053  48.222  1.00  0.00    -0.204 F 
HETATM   18  C11 UNL     1      28.099   5.716  48.460  1.00  0.00     0.074 A 
HETATM   19 CL1  UNL     1      29.717   5.786  47.752  1.00  0.00    -0.081 Cl
HETATM   20  C12 UNL     1      27.557   4.501  48.853  1.00  0.00     0.056 A 
ENDBRANCH  11  13
ENDBRANCH   7  11
BRANCH  10  21
HETATM   21  O2  UNL     1      21.443   1.047  51.210  1.00  0.00    -0.320 OA
BRANCH  21  22
HETATM   22  C16 UNL     1      21.131   2.032  50.291  1.00  0.00     0.149 C 
HETATM   23  C17 UNL     1      20.389   2.858  51.024  1.00  0.00    -0.011 C 
HETATM   24  C18 UNL     1      19.937   2.856  52.444  1.00  0.00     0.206 C 
HETATM   25  C19 UNL     1      19.617   4.128  51.002  1.00  0.00     0.206 C 
HETATM   26  O3  UNL     1      18.820   3.581  52.033  1.00  0.00    -0.383 OA
ENDBRANCH  21  22
ENDBRANCH  10  21
BRANCH   1  27
HETATM   27  O1  UNL     1      21.889  -0.154  53.592  1.00  0.00    -0.353 OA
HETATM   28  C1  UNL     1      21.941  -1.527  53.912  1.00  0.00     0.210 C 
ENDBRANCH   1  27
TORSDOF 5
ENDMDL
