MODEL 1
REMARK VINA RESULT:      -9.1      0.000      0.000
REMARK  8 active torsions:
REMARK  status: ('A' for Active; 'I' for Inactive)
REMARK    1  A    between atoms: C2_2  and  O1_3 
REMARK    2  A    between atoms: O1_3  and  C3_4 
REMARK    3  A    between atoms: C7_8  and  C8_9 
REMARK    4  A    between atoms: C8_9  and  C9_10 
REMARK    5  A    between atoms: C15_18  and  C16_19 
REMARK    6  A    between atoms: C16_19  and  C17_20 
REMARK    7  A    between atoms: C17_20  and  C18_21 
REMARK    8  A    between atoms: C18_21  and  O4_23 
ROOT
HETATM    1  C9  UNL     1      22.960   2.705  51.068  1.00  0.00     0.008 C 
HETATM    2  C10 UNL     1      23.227   3.928  50.647  1.00  0.00     0.042 A 
HETATM    3  N1  UNL     1      22.381   5.102  50.656  1.00  0.00    -0.322 N 
HETATM    4  C11 UNL     1      23.124   6.143  50.090  1.00  0.00     0.257 A 
HETATM    5  O2  UNL     1      22.581   7.277  49.993  1.00  0.00    -0.267 OA
HETATM    6  C12 UNL     1      24.447   5.756  49.683  1.00  0.00     0.046 A 
HETATM    7  C13 UNL     1      25.335   6.571  49.112  1.00  0.00     0.048 A 
HETATM    8  C14 UNL     1      26.686   6.265  48.671  1.00  0.00     0.042 A 
HETATM    9  C15 UNL     1      27.589   7.152  48.066  1.00  0.00    -0.024 A 
HETATM   10  C19 UNL     1      28.741   6.437  47.817  1.00  0.00    -0.038 A 
HETATM   11  C20 UNL     1      29.927   7.036  47.187  1.00  0.00     0.050 C 
HETATM   12  C21 UNL     1      28.540   5.125  48.267  1.00  0.00     0.099 A 
HETATM   13  N2  UNL     1      27.284   5.083  48.772  1.00  0.00    -0.352 N 
HETATM   14  C22 UNL     1      26.945   3.768  49.271  1.00  0.00     0.156 A 
HETATM   15  C23 UNL     1      25.600   3.645  49.819  1.00  0.00     0.008 A 
HETATM   16  C24 UNL     1      24.501   4.345  50.043  1.00  0.00     0.004 A 
HETATM   17  H12 UNL     1      21.393   5.130  51.031  1.00  0.00     0.169 HD
ENDROOT
BRANCH   1  18
HETATM   18  C8  UNL     1      23.251   1.315  51.324  1.00  0.00     0.068 C 
BRANCH  18  19
HETATM   19  C7  UNL     1      24.221   1.064  52.439  1.00  0.00    -0.052 A 
HETATM   20  C6  UNL     1      23.928  -0.082  53.140  1.00  0.00     0.007 A 
HETATM   21  C5  UNL     1      24.728  -0.443  54.210  1.00  0.00     0.003 A 
HETATM   22  C4  UNL     1      25.815   0.365  54.555  1.00  0.00     0.037 A 
HETATM   23  C3  UNL     1      26.084   1.526  53.820  1.00  0.00     0.069 A 
HETATM   24  C25 UNL     1      25.291   1.893  52.750  1.00  0.00     0.044 A 
BRANCH  23  25
HETATM   25  O1  UNL     1      27.146   2.340  54.132  1.00  0.00    -0.352 OA
BRANCH  25  26
HETATM   26  C2  UNL     1      28.398   2.377  53.513  1.00  0.00     0.171 C 
HETATM   27  C1  UNL     1      29.381   1.578  54.350  1.00  0.00     0.034 C 
ENDBRANCH  25  26
ENDBRANCH  23  25
ENDBRANCH  18  19
ENDBRANCH   1  18
BRANCH   9  28
HETATM   28  C16 UNL     1      27.152   8.526  47.834  1.00  0.00     0.052 C 
BRANCH  28  29
HETATM   29  C17 UNL     1      27.931   9.603  48.484  1.00  0.00     0.115 C 
BRANCH  29  30
HETATM   30  C18 UNL     1      27.488   9.616  49.928  1.00  0.00     0.139 C 
HETATM   31  O3  UNL     1      26.321   9.729  50.426  1.00  0.00    -0.650 OA
BRANCH  30  32
HETATM   32  O4  UNL     1      27.754   9.557  51.281  1.00  0.00    -0.776 OA
HETATM   33  H18 UNL     1      27.201  10.006  51.996  1.00  0.00     0.167 HD
ENDBRANCH  30  32
ENDBRANCH  29  30
ENDBRANCH  28  29
ENDBRANCH   9  28
TORSDOF 8
ENDMDL
MODEL 2
REMARK VINA RESULT:      -9.1      1.505      1.964
REMARK  8 active torsions:
REMARK  status: ('A' for Active; 'I' for Inactive)
REMARK    1  A    between atoms: C2_2  and  O1_3 
REMARK    2  A    between atoms: O1_3  and  C3_4 
REMARK    3  A    between atoms: C7_8  and  C8_9 
REMARK    4  A    between atoms: C8_9  and  C9_10 
REMARK    5  A    between atoms: C15_18  and  C16_19 
REMARK    6  A    between atoms: C16_19  and  C17_20 
REMARK    7  A    between atoms: C17_20  and  C18_21 
REMARK    8  A    between atoms: C18_21  and  O4_23 
ROOT
HETATM    1  C9  UNL     1      22.014   1.589  51.951  1.00  0.00     0.008 C 
HETATM    2  C10 UNL     1      22.255   2.857  51.680  1.00  0.00     0.042 A 
HETATM    3  N1  UNL     1      21.439   4.022  51.951  1.00  0.00    -0.322 N 
HETATM    4  C11 UNL     1      22.134   5.131  51.456  1.00  0.00     0.257 A 
HETATM    5  O2  UNL     1      21.606   6.268  51.583  1.00  0.00    -0.267 OA
HETATM    6  C12 UNL     1      23.395   4.800  50.850  1.00  0.00     0.046 A 
HETATM    7  C13 UNL     1      24.229   5.685  50.303  1.00  0.00     0.048 A 
HETATM    8  C14 UNL     1      25.516   5.441  49.673  1.00  0.00     0.042 A 
HETATM    9  C15 UNL     1      26.362   6.402  49.100  1.00  0.00    -0.024 A 
HETATM   10  C19 UNL     1      27.464   5.726  48.623  1.00  0.00    -0.038 A 
HETATM   11  C20 UNL     1      28.584   6.404  47.952  1.00  0.00     0.050 C 
HETATM   12  C21 UNL     1      27.290   4.364  48.903  1.00  0.00     0.099 A 
HETATM   13  N2  UNL     1      26.098   4.255  49.537  1.00  0.00    -0.352 N 
HETATM   14  C22 UNL     1      25.792   2.883  49.880  1.00  0.00     0.156 A 
HETATM   15  C23 UNL     1      24.514   2.688  50.555  1.00  0.00     0.008 A 
HETATM   16  C24 UNL     1      23.462   3.352  51.000  1.00  0.00     0.004 A 
HETATM   17  H12 UNL     1      20.500   3.999  52.436  1.00  0.00     0.169 HD
ENDROOT
BRANCH   1  18
HETATM   18  C8  UNL     1      22.304   0.175  51.974  1.00  0.00     0.068 C 
BRANCH  18  19
HETATM   19  C7  UNL     1      23.072  -0.297  53.171  1.00  0.00    -0.052 A 
HETATM   20  C6  UNL     1      22.252  -0.788  54.159  1.00  0.00     0.007 A 
HETATM   21  C5  UNL     1      22.814  -1.251  55.336  1.00  0.00     0.003 A 
HETATM   22  C4  UNL     1      24.202  -1.210  55.494  1.00  0.00     0.037 A 
HETATM   23  C3  UNL     1      25.008  -0.702  54.467  1.00  0.00     0.069 A 
HETATM   24  C25 UNL     1      24.454  -0.239  53.290  1.00  0.00     0.044 A 
BRANCH  23  25
HETATM   25  O1  UNL     1      26.375  -0.650  54.590  1.00  0.00    -0.352 OA
BRANCH  25  26
HETATM   26  C2  UNL     1      27.252   0.238  53.962  1.00  0.00     0.171 C 
HETATM   27  C1  UNL     1      28.526   0.330  54.782  1.00  0.00     0.034 C 
ENDBRANCH  25  26
ENDBRANCH  23  25
ENDBRANCH  18  19
ENDBRANCH   1  18
BRANCH   9  28
HETATM   28  C16 UNL     1      25.929   7.796  49.116  1.00  0.00     0.052 C 
BRANCH  28  29
HETATM   29  C17 UNL     1      26.168   8.566  50.358  1.00  0.00     0.115 C 
BRANCH  29  30
HETATM   30  C18 UNL     1      27.462   9.313  50.133  1.00  0.00     0.139 C 
HETATM   31  O3  UNL     1      27.663  10.484  49.676  1.00  0.00    -0.650 OA
BRANCH  30  32
HETATM   32  O4  UNL     1      28.840   9.397  50.174  1.00  0.00    -0.776 OA
HETATM   33  H18 UNL     1      29.453   8.649  50.463  1.00  0.00     0.167 HD
ENDBRANCH  30  32
ENDBRANCH  29  30
ENDBRANCH  28  29
ENDBRANCH   9  28
TORSDOF 8
ENDMDL
MODEL 3
REMARK VINA RESULT:      -9.0      5.429      9.217
REMARK  8 active torsions:
REMARK  status: ('A' for Active; 'I' for Inactive)
REMARK    1  A    between atoms: C2_2  and  O1_3 
REMARK    2  A    between atoms: O1_3  and  C3_4 
REMARK    3  A    between atoms: C7_8  and  C8_9 
REMARK    4  A    between atoms: C8_9  and  C9_10 
REMARK    5  A    between atoms: C15_18  and  C16_19 
REMARK    6  A    between atoms: C16_19  and  C17_20 
REMARK    7  A    between atoms: C17_20  and  C18_21 
REMARK    8  A    between atoms: C18_21  and  O4_23 
ROOT
HETATM    1  C9  UNL     1      18.096  -0.425  52.340  1.00  0.00     0.008 C 
HETATM    2  C10 UNL     1      19.293  -0.541  52.884  1.00  0.00     0.042 A 
HETATM    3  N1  UNL     1      19.702  -1.315  54.037  1.00  0.00    -0.322 N 
HETATM    4  C11 UNL     1      21.072  -1.090  54.214  1.00  0.00     0.257 A 
HETATM    5  O2  UNL     1      21.651  -1.670  55.171  1.00  0.00    -0.267 OA
HETATM    6  C12 UNL     1      21.641  -0.194  53.243  1.00  0.00     0.046 A 
HETATM    7  C13 UNL     1      22.921   0.177  53.213  1.00  0.00     0.048 A 
HETATM    8  C14 UNL     1      23.578   1.072  52.274  1.00  0.00     0.042 A 
HETATM    9  C15 UNL     1      24.931   1.445  52.281  1.00  0.00    -0.024 A 
HETATM   10  C19 UNL     1      25.111   2.303  51.219  1.00  0.00    -0.038 A 
HETATM   11  C20 UNL     1      26.413   2.908  50.897  1.00  0.00     0.050 C 
HETATM   12  C21 UNL     1      23.877   2.453  50.571  1.00  0.00     0.099 A 
HETATM   13  N2  UNL     1      22.993   1.686  51.252  1.00  0.00    -0.352 N 
HETATM   14  C22 UNL     1      21.664   1.756  50.683  1.00  0.00     0.156 A 
HETATM   15  C23 UNL     1      20.655   0.963  51.375  1.00  0.00     0.008 A 
HETATM   16  C24 UNL     1      20.501   0.147  52.403  1.00  0.00     0.004 A 
HETATM   17  H12 UNL     1      19.059  -1.926  54.611  1.00  0.00     0.169 HD
ENDROOT
BRANCH   1  18
HETATM   18  C8  UNL     1      17.134   0.063  51.381  1.00  0.00     0.068 C 
BRANCH  18  19
HETATM   19  C7  UNL     1      16.557   1.411  51.691  1.00  0.00    -0.052 A 
HETATM   20  C6  UNL     1      17.396   2.437  51.324  1.00  0.00     0.007 A 
HETATM   21  C5  UNL     1      17.007   3.744  51.557  1.00  0.00     0.003 A 
HETATM   22  C4  UNL     1      15.771   3.994  52.161  1.00  0.00     0.037 A 
HETATM   23  C3  UNL     1      14.942   2.924  52.522  1.00  0.00     0.069 A 
HETATM   24  C25 UNL     1      15.322   1.617  52.292  1.00  0.00     0.044 A 
BRANCH  23  25
HETATM   25  O1  UNL     1      13.720   3.136  53.114  1.00  0.00    -0.352 OA
BRANCH  25  26
HETATM   26  C2  UNL     1      13.111   4.363  53.390  1.00  0.00     0.171 C 
HETATM   27  C1  UNL     1      12.076   4.160  54.482  1.00  0.00     0.034 C 
ENDBRANCH  25  26
ENDBRANCH  23  25
ENDBRANCH  18  19
ENDBRANCH   1  18
BRANCH   9  28
HETATM   28  C16 UNL     1      25.788   0.901  53.331  1.00  0.00     0.052 C 
BRANCH  28  29
HETATM   29  C17 UNL     1      26.988   0.148  52.904  1.00  0.00     0.115 C 
BRANCH  29  30
HETATM   30  C18 UNL     1      27.984   0.292  54.030  1.00  0.00     0.139 C 
HETATM   31  O3  UNL     1      28.661  -0.595  54.643  1.00  0.00    -0.650 OA
BRANCH  30  32
HETATM   32  O4  UNL     1      28.692   1.057  54.936  1.00  0.00    -0.776 OA
HETATM   33  H18 UNL     1      29.673   0.942  55.142  1.00  0.00     0.167 HD
ENDBRANCH  30  32
ENDBRANCH  29  30
ENDBRANCH  28  29
ENDBRANCH   9  28
TORSDOF 8
ENDMDL
MODEL 4
REMARK VINA RESULT:      -8.8      5.933      9.319
REMARK  8 active torsions:
REMARK  status: ('A' for Active; 'I' for Inactive)
REMARK    1  A    between atoms: C2_2  and  O1_3 
REMARK    2  A    between atoms: O1_3  and  C3_4 
REMARK    3  A    between atoms: C7_8  and  C8_9 
REMARK    4  A    between atoms: C8_9  and  C9_10 
REMARK    5  A    between atoms: C15_18  and  C16_19 
REMARK    6  A    between atoms: C16_19  and  C17_20 
REMARK    7  A    between atoms: C17_20  and  C18_21 
REMARK    8  A    between atoms: C18_21  and  O4_23 
ROOT
HETATM    1  C9  UNL     1      19.175  -1.156  53.510  1.00  0.00     0.008 C 
HETATM    2  C10 UNL     1      20.452  -0.980  53.793  1.00  0.00     0.042 A 
HETATM    3  N1  UNL     1      21.229  -1.520  54.888  1.00  0.00    -0.322 N 
HETATM    4  C11 UNL     1      22.529  -1.024  54.748  1.00  0.00     0.257 A 
HETATM    5  O2  UNL     1      23.392  -1.367  55.602  1.00  0.00    -0.267 OA
HETATM    6  C12 UNL     1      22.702  -0.163  53.610  1.00  0.00     0.046 A 
HETATM    7  C13 UNL     1      23.847   0.433  53.275  1.00  0.00     0.048 A 
HETATM    8  C14 UNL     1      24.108   1.314  52.150  1.00  0.00     0.042 A 
HETATM    9  C15 UNL     1      25.330   1.930  51.836  1.00  0.00    -0.024 A 
HETATM   10  C19 UNL     1      25.118   2.672  50.694  1.00  0.00    -0.038 A 
HETATM   11  C20 UNL     1      26.179   3.464  50.053  1.00  0.00     0.050 C 
HETATM   12  C21 UNL     1      23.779   2.510  50.317  1.00  0.00     0.099 A 
HETATM   13  N2  UNL     1      23.222   1.681  51.231  1.00  0.00    -0.352 N 
HETATM   14  C22 UNL     1      21.822   1.433  50.957  1.00  0.00     0.156 A 
HETATM   15  C23 UNL     1      21.153   0.557  51.911  1.00  0.00     0.008 A 
HETATM   16  C24 UNL     1      21.374  -0.143  53.010  1.00  0.00     0.004 A 
HETATM   17  H12 UNL     1      20.850  -2.165  55.634  1.00  0.00     0.169 HD
ENDROOT
BRANCH   1  18
HETATM   18  C8  UNL     1      17.964  -0.974  52.745  1.00  0.00     0.068 C 
BRANCH  18  19
HETATM   19  C7  UNL     1      16.985  -2.105  52.829  1.00  0.00    -0.052 A 
HETATM   20  C6  UNL     1      17.475  -3.172  53.545  1.00  0.00     0.007 A 
HETATM   21  C5  UNL     1      16.691  -4.300  53.700  1.00  0.00     0.003 A 
HETATM   22  C4  UNL     1      15.416  -4.332  53.127  1.00  0.00     0.037 A 
HETATM   23  C3  UNL     1      14.948  -3.228  52.404  1.00  0.00     0.069 A 
HETATM   24  C25 UNL     1      15.725  -2.097  52.245  1.00  0.00     0.044 A 
BRANCH  23  25
HETATM   25  O1  UNL     1      13.699  -3.226  51.831  1.00  0.00    -0.352 OA
BRANCH  25  26
HETATM   26  C2  UNL     1      13.386  -3.095  50.475  1.00  0.00     0.171 C 
HETATM   27  C1  UNL     1      12.590  -1.818  50.278  1.00  0.00     0.034 C 
ENDBRANCH  25  26
ENDBRANCH  23  25
ENDBRANCH  18  19
ENDBRANCH   1  18
BRANCH   9  28
HETATM   28  C16 UNL     1      26.468   1.686  52.717  1.00  0.00     0.052 C 
BRANCH  28  29
HETATM   29  C17 UNL     1      27.236   0.439  52.502  1.00  0.00     0.115 C 
BRANCH  29  30
HETATM   30  C18 UNL     1      27.587  -0.069  53.882  1.00  0.00     0.139 C 
HETATM   31  O3  UNL     1      26.829  -0.414  54.844  1.00  0.00    -0.650 OA
BRANCH  30  32
HETATM   32  O4  UNL     1      28.507  -0.427  54.847  1.00  0.00    -0.776 OA
HETATM   33  H18 UNL     1      28.324  -1.064  55.607  1.00  0.00     0.167 HD
ENDBRANCH  30  32
ENDBRANCH  29  30
ENDBRANCH  28  29
ENDBRANCH   9  28
TORSDOF 8
ENDMDL
MODEL 5
REMARK VINA RESULT:      -8.8      2.867      8.883
REMARK  8 active torsions:
REMARK  status: ('A' for Active; 'I' for Inactive)
REMARK    1  A    between atoms: C2_2  and  O1_3 
REMARK    2  A    between atoms: O1_3  and  C3_4 
REMARK    3  A    between atoms: C7_8  and  C8_9 
REMARK    4  A    between atoms: C8_9  and  C9_10 
REMARK    5  A    between atoms: C15_18  and  C16_19 
REMARK    6  A    between atoms: C16_19  and  C17_20 
REMARK    7  A    between atoms: C17_20  and  C18_21 
REMARK    8  A    between atoms: C18_21  and  O4_23 
ROOT
HETATM    1  C9  UNL     1      26.765   3.525  50.231  1.00  0.00     0.008 C 
HETATM    2  C10 UNL     1      26.367   2.890  51.317  1.00  0.00     0.042 A 
HETATM    3  N1  UNL     1      27.105   2.600  52.529  1.00  0.00    -0.322 N 
HETATM    4  C11 UNL     1      26.240   1.894  53.372  1.00  0.00     0.257 A 
HETATM    5  O2  UNL     1      26.674   1.532  54.500  1.00  0.00    -0.267 OA
HETATM    6  C12 UNL     1      24.935   1.674  52.811  1.00  0.00     0.046 A 
HETATM    7  C13 UNL     1      23.947   1.020  53.422  1.00  0.00     0.048 A 
HETATM    8  C14 UNL     1      22.605   0.752  52.932  1.00  0.00     0.042 A 
HETATM    9  C15 UNL     1      21.593   0.051  53.605  1.00  0.00    -0.024 A 
HETATM   10  C19 UNL     1      20.497   0.038  52.770  1.00  0.00    -0.038 A 
HETATM   11  C20 UNL     1      19.227  -0.609  53.136  1.00  0.00     0.050 C 
HETATM   12  C21 UNL     1      20.839   0.725  51.598  1.00  0.00     0.099 A 
HETATM   13  N2  UNL     1      22.121   1.132  51.755  1.00  0.00    -0.352 N 
HETATM   14  C22 UNL     1      22.604   1.857  50.599  1.00  0.00     0.156 A 
HETATM   15  C23 UNL     1      23.985   2.316  50.693  1.00  0.00     0.008 A 
HETATM   16  C24 UNL     1      25.028   2.312  51.504  1.00  0.00     0.004 A 
HETATM   17  H12 UNL     1      28.106   2.886  52.707  1.00  0.00     0.169 HD
ENDROOT
BRANCH   1  18
HETATM   18  C8  UNL     1      26.615   4.076  48.905  1.00  0.00     0.068 C 
BRANCH  18  19
HETATM   19  C7  UNL     1      27.468   5.272  48.614  1.00  0.00    -0.052 A 
HETATM   20  C6  UNL     1      26.744   6.441  48.595  1.00  0.00     0.007 A 
HETATM   21  C5  UNL     1      27.391   7.634  48.326  1.00  0.00     0.003 A 
HETATM   22  C4  UNL     1      28.768   7.625  48.081  1.00  0.00     0.037 A 
HETATM   23  C3  UNL     1      29.475   6.416  48.108  1.00  0.00     0.069 A 
HETATM   24  C25 UNL     1      28.836   5.222  48.375  1.00  0.00     0.044 A 
BRANCH  23  25
HETATM   25  O1  UNL     1      30.828   6.375  47.874  1.00  0.00    -0.352 OA
BRANCH  25  26
HETATM   26  C2  UNL     1      31.857   6.574  48.798  1.00  0.00     0.171 C 
HETATM   27  C1  UNL     1      32.443   7.958  48.587  1.00  0.00     0.034 C 
ENDBRANCH  25  26
ENDBRANCH  23  25
ENDBRANCH  18  19
ENDBRANCH   1  18
BRANCH   9  28
HETATM   28  C16 UNL     1      21.892  -0.483  54.931  1.00  0.00     0.052 C 
BRANCH  28  29
HETATM   29  C17 UNL     1      22.562  -1.801  54.995  1.00  0.00     0.115 C 
BRANCH  29  30
HETATM   30  C18 UNL     1      23.913  -1.544  55.622  1.00  0.00     0.139 C 
HETATM   31  O3  UNL     1      25.061  -1.439  55.081  1.00  0.00    -0.650 OA
BRANCH  30  32
HETATM   32  O4  UNL     1      24.719  -1.316  56.719  1.00  0.00    -0.776 OA
HETATM   33  H18 UNL     1      25.728  -1.317  56.701  1.00  0.00     0.167 HD
ENDBRANCH  30  32
ENDBRANCH  29  30
ENDBRANCH  28  29
ENDBRANCH   9  28
TORSDOF 8
ENDMDL
MODEL 6
REMARK VINA RESULT:      -8.7      3.513      8.837
REMARK  8 active torsions:
REMARK  status: ('A' for Active; 'I' for Inactive)
REMARK    1  A    between atoms: C2_2  and  O1_3 
REMARK    2  A    between atoms: O1_3  and  C3_4 
REMARK    3  A    between atoms: C7_8  and  C8_9 
REMARK    4  A    between atoms: C8_9  and  C9_10 
REMARK    5  A    between atoms: C15_18  and  C16_19 
REMARK    6  A    between atoms: C16_19  and  C17_20 
REMARK    7  A    between atoms: C17_20  and  C18_21 
REMARK    8  A    between atoms: C18_21  and  O4_23 
ROOT
HETATM    1  C9  UNL     1      25.743   4.467  49.300  1.00  0.00     0.008 C 
HETATM    2  C10 UNL     1      24.545   4.175  49.771  1.00  0.00     0.042 A 
HETATM    3  N1  UNL     1      23.278   4.827  49.514  1.00  0.00    -0.322 N 
HETATM    4  C11 UNL     1      22.311   4.147  50.262  1.00  0.00     0.257 A 
HETATM    5  O2  UNL     1      21.117   4.545  50.192  1.00  0.00    -0.267 OA
HETATM    6  C12 UNL     1      22.838   3.052  51.031  1.00  0.00     0.046 A 
HETATM    7  C13 UNL     1      22.113   2.264  51.825  1.00  0.00     0.048 A 
HETATM    8  C14 UNL     1      22.560   1.142  52.634  1.00  0.00     0.042 A 
HETATM    9  C15 UNL     1      21.764   0.340  53.465  1.00  0.00    -0.024 A 
HETATM   10  C19 UNL     1      22.601  -0.593  54.036  1.00  0.00    -0.038 A 
HETATM   11  C20 UNL     1      22.124  -1.621  54.974  1.00  0.00     0.050 C 
HETATM   12  C21 UNL     1      23.897  -0.361  53.556  1.00  0.00     0.099 A 
HETATM   13  N2  UNL     1      23.809   0.696  52.715  1.00  0.00    -0.352 N 
HETATM   14  C22 UNL     1      25.094   1.046  52.149  1.00  0.00     0.156 A 
HETATM   15  C23 UNL     1      25.077   2.188  51.241  1.00  0.00     0.008 A 
HETATM   16  C24 UNL     1      24.259   3.080  50.710  1.00  0.00     0.004 A 
HETATM   17  H12 UNL     1      23.148   5.658  48.874  1.00  0.00     0.169 HD
ENDROOT
BRANCH   1  18
HETATM   18  C8  UNL     1      27.168   4.296  49.146  1.00  0.00     0.068 C 
BRANCH  18  19
HETATM   19  C7  UNL     1      27.877   5.439  48.486  1.00  0.00    -0.052 A 
HETATM   20  C6  UNL     1      27.030   6.482  48.193  1.00  0.00     0.007 A 
HETATM   21  C5  UNL     1      27.534   7.609  47.569  1.00  0.00     0.003 A 
HETATM   22  C4  UNL     1      28.895   7.663  47.250  1.00  0.00     0.037 A 
HETATM   23  C3  UNL     1      29.729   6.583  47.564  1.00  0.00     0.069 A 
HETATM   24  C25 UNL     1      29.233   5.455  48.187  1.00  0.00     0.044 A 
BRANCH  23  25
HETATM   25  O1  UNL     1      31.071   6.607  47.267  1.00  0.00    -0.352 OA
BRANCH  25  26
HETATM   26  C2  UNL     1      32.056   5.724  47.717  1.00  0.00     0.171 C 
HETATM   27  C1  UNL     1      32.457   4.813  46.571  1.00  0.00     0.034 C 
ENDBRANCH  25  26
ENDBRANCH  23  25
ENDBRANCH  18  19
ENDBRANCH   1  18
BRANCH   9  28
HETATM   28  C16 UNL     1      20.338   0.646  53.553  1.00  0.00     0.052 C 
BRANCH  28  29
HETATM   29  C17 UNL     1      19.448   0.020  52.550  1.00  0.00     0.115 C 
BRANCH  29  30
HETATM   30  C18 UNL     1      18.557  -0.922  53.325  1.00  0.00     0.139 C 
HETATM   31  O3  UNL     1      18.800  -2.081  53.793  1.00  0.00    -0.650 OA
BRANCH  30  32
HETATM   32  O4  UNL     1      17.351  -1.245  53.914  1.00  0.00    -0.776 OA
HETATM   33  H18 UNL     1      16.470  -1.303  53.426  1.00  0.00     0.167 HD
ENDBRANCH  30  32
ENDBRANCH  29  30
ENDBRANCH  28  29
ENDBRANCH   9  28
TORSDOF 8
ENDMDL
MODEL 7
REMARK VINA RESULT:      -8.7      2.042      3.563
REMARK  8 active torsions:
REMARK  status: ('A' for Active; 'I' for Inactive)
REMARK    1  A    between atoms: C2_2  and  O1_3 
REMARK    2  A    between atoms: O1_3  and  C3_4 
REMARK    3  A    between atoms: C7_8  and  C8_9 
REMARK    4  A    between atoms: C8_9  and  C9_10 
REMARK    5  A    between atoms: C15_18  and  C16_19 
REMARK    6  A    between atoms: C16_19  and  C17_20 
REMARK    7  A    between atoms: C17_20  and  C18_21 
REMARK    8  A    between atoms: C18_21  and  O4_23 
ROOT
HETATM    1  C9  UNL     1      22.966  -0.098  53.818  1.00  0.00     0.008 C 
HETATM    2  C10 UNL     1      22.601   0.846  52.971  1.00  0.00     0.042 A 
HETATM    3  N1  UNL     1      21.270   1.268  52.590  1.00  0.00    -0.322 N 
HETATM    4  C11 UNL     1      21.422   2.295  51.652  1.00  0.00     0.257 A 
HETATM    5  O2  UNL     1      20.381   2.822  51.174  1.00  0.00    -0.267 OA
HETATM    6  C12 UNL     1      22.793   2.611  51.355  1.00  0.00     0.046 A 
HETATM    7  C13 UNL     1      23.186   3.545  50.489  1.00  0.00     0.048 A 
HETATM    8  C14 UNL     1      24.542   3.928  50.129  1.00  0.00     0.042 A 
HETATM    9  C15 UNL     1      24.915   4.914  49.204  1.00  0.00    -0.024 A 
HETATM   10  C19 UNL     1      26.292   4.936  49.181  1.00  0.00    -0.038 A 
HETATM   11  C20 UNL     1      27.058   5.853  48.324  1.00  0.00     0.050 C 
HETATM   12  C21 UNL     1      26.754   3.970  50.085  1.00  0.00     0.099 A 
HETATM   13  N2  UNL     1      25.653   3.396  50.626  1.00  0.00    -0.352 N 
HETATM   14  C22 UNL     1      25.994   2.366  51.584  1.00  0.00     0.156 A 
HETATM   15  C23 UNL     1      24.855   1.695  52.198  1.00  0.00     0.008 A 
HETATM   16  C24 UNL     1      23.534   1.684  52.201  1.00  0.00     0.004 A 
HETATM   17  H12 UNL     1      20.376   0.856  52.973  1.00  0.00     0.169 HD
ENDROOT
BRANCH   1  18
HETATM   18  C8  UNL     1      23.909  -0.911  54.549  1.00  0.00     0.068 C 
BRANCH  18  19
HETATM   19  C7  UNL     1      25.342  -0.739  54.144  1.00  0.00    -0.052 A 
HETATM   20  C6  UNL     1      25.639  -1.399  52.975  1.00  0.00     0.007 A 
HETATM   21  C5  UNL     1      26.928  -1.346  52.477  1.00  0.00     0.003 A 
HETATM   22  C4  UNL     1      27.902  -0.622  53.173  1.00  0.00     0.037 A 
HETATM   23  C3  UNL     1      27.564   0.039  54.361  1.00  0.00     0.069 A 
HETATM   24  C25 UNL     1      26.279  -0.010  54.864  1.00  0.00     0.044 A 
BRANCH  23  25
HETATM   25  O1  UNL     1      28.497   0.761  55.066  1.00  0.00    -0.352 OA
BRANCH  25  26
HETATM   26  C2  UNL     1      29.432   1.666  54.559  1.00  0.00     0.171 C 
HETATM   27  C1  UNL     1      28.731   2.600  53.589  1.00  0.00     0.034 C 
ENDBRANCH  25  26
ENDBRANCH  23  25
ENDBRANCH  18  19
ENDBRANCH   1  18
BRANCH   9  28
HETATM   28  C16 UNL     1      23.855   5.639  48.509  1.00  0.00     0.052 C 
BRANCH  28  29
HETATM   29  C17 UNL     1      23.806   7.107  48.692  1.00  0.00     0.115 C 
BRANCH  29  30
HETATM   30  C18 UNL     1      23.477   7.327  50.150  1.00  0.00     0.139 C 
HETATM   31  O3  UNL     1      23.975   8.146  50.988  1.00  0.00    -0.650 OA
BRANCH  30  32
HETATM   32  O4  UNL     1      22.759   7.031  51.291  1.00  0.00    -0.776 OA
HETATM   33  H18 UNL     1      23.158   6.934  52.213  1.00  0.00     0.167 HD
ENDBRANCH  30  32
ENDBRANCH  29  30
ENDBRANCH  28  29
ENDBRANCH   9  28
TORSDOF 8
ENDMDL
MODEL 8
REMARK VINA RESULT:      -8.6      2.599      8.830
REMARK  8 active torsions:
REMARK  status: ('A' for Active; 'I' for Inactive)
REMARK    1  A    between atoms: C2_2  and  O1_3 
REMARK    2  A    between atoms: O1_3  and  C3_4 
REMARK    3  A    between atoms: C7_8  and  C8_9 
REMARK    4  A    between atoms: C8_9  and  C9_10 
REMARK    5  A    between atoms: C15_18  and  C16_19 
REMARK    6  A    between atoms: C16_19  and  C17_20 
REMARK    7  A    between atoms: C17_20  and  C18_21 
REMARK    8  A    between atoms: C18_21  and  O4_23 
ROOT
HETATM    1  C9  UNL     1      26.845   3.504  50.279  1.00  0.00     0.008 C 
HETATM    2  C10 UNL     1      26.228   2.918  51.288  1.00  0.00     0.042 A 
HETATM    3  N1  UNL     1      26.740   2.575  52.598  1.00  0.00    -0.322 N 
HETATM    4  C11 UNL     1      25.696   1.958  53.295  1.00  0.00     0.257 A 
HETATM    5  O2  UNL     1      25.915   1.570  54.474  1.00  0.00    -0.267 OA
HETATM    6  C12 UNL     1      24.479   1.849  52.537  1.00  0.00     0.046 A 
HETATM    7  C13 UNL     1      23.353   1.292  52.985  1.00  0.00     0.048 A 
HETATM    8  C14 UNL     1      22.085   1.140  52.292  1.00  0.00     0.042 A 
HETATM    9  C15 UNL     1      20.922   0.539  52.797  1.00  0.00    -0.024 A 
HETATM   10  C19 UNL     1      19.972   0.615  51.803  1.00  0.00    -0.038 A 
HETATM   11  C20 UNL     1      18.608   0.088  51.964  1.00  0.00     0.050 C 
HETATM   12  C21 UNL     1      20.551   1.257  50.700  1.00  0.00     0.099 A 
HETATM   13  N2  UNL     1      21.825   1.550  51.055  1.00  0.00    -0.352 N 
HETATM   14  C22 UNL     1      22.544   2.218  49.991  1.00  0.00     0.156 A 
HETATM   15  C23 UNL     1      23.929   2.552  50.300  1.00  0.00     0.008 A 
HETATM   16  C24 UNL     1      24.829   2.464  51.263  1.00  0.00     0.004 A 
HETATM   17  H12 UNL     1      27.724   2.773  52.930  1.00  0.00     0.169 HD
ENDROOT
BRANCH   1  18
HETATM   18  C8  UNL     1      26.951   4.053  48.948  1.00  0.00     0.068 C 
BRANCH  18  19
HETATM   19  C7  UNL     1      26.814   5.543  48.863  1.00  0.00    -0.052 A 
HETATM   20  C6  UNL     1      27.822   6.120  48.128  1.00  0.00     0.007 A 
HETATM   21  C5  UNL     1      27.841   7.494  47.968  1.00  0.00     0.003 A 
HETATM   22  C4  UNL     1      26.834   8.266  48.557  1.00  0.00     0.037 A 
HETATM   23  C3  UNL     1      25.823   7.644  49.300  1.00  0.00     0.069 A 
HETATM   24  C25 UNL     1      25.797   6.273  49.463  1.00  0.00     0.044 A 
BRANCH  23  25
HETATM   25  O1  UNL     1      24.818   8.373  49.889  1.00  0.00    -0.352 OA
BRANCH  25  26
HETATM   26  C2  UNL     1      23.516   8.562  49.417  1.00  0.00     0.171 C 
HETATM   27  C1  UNL     1      22.553   7.832  50.334  1.00  0.00     0.034 C 
ENDBRANCH  25  26
ENDBRANCH  23  25
ENDBRANCH  18  19
ENDBRANCH   1  18
BRANCH   9  28
HETATM   28  C16 UNL     1      20.964  -0.006  54.151  1.00  0.00     0.052 C 
BRANCH  28  29
HETATM   29  C17 UNL     1      21.257  -1.450  54.291  1.00  0.00     0.115 C 
BRANCH  29  30
HETATM   30  C18 UNL     1      22.536  -1.532  55.093  1.00  0.00     0.139 C 
HETATM   31  O3  UNL     1      23.713  -1.144  54.799  1.00  0.00    -0.650 OA
BRANCH  30  32
HETATM   32  O4  UNL     1      23.239  -1.890  56.226  1.00  0.00    -0.776 OA
HETATM   33  H18 UNL     1      22.894  -2.508  56.945  1.00  0.00     0.167 HD
ENDBRANCH  30  32
ENDBRANCH  29  30
ENDBRANCH  28  29
ENDBRANCH   9  28
TORSDOF 8
ENDMDL
MODEL 9
REMARK VINA RESULT:      -8.5      5.013      9.972
REMARK  8 active torsions:
REMARK  status: ('A' for Active; 'I' for Inactive)
REMARK    1  A    between atoms: C2_2  and  O1_3 
REMARK    2  A    between atoms: O1_3  and  C3_4 
REMARK    3  A    between atoms: C7_8  and  C8_9 
REMARK    4  A    between atoms: C8_9  and  C9_10 
REMARK    5  A    between atoms: C15_18  and  C16_19 
REMARK    6  A    between atoms: C16_19  and  C17_20 
REMARK    7  A    between atoms: C17_20  and  C18_21 
REMARK    8  A    between atoms: C18_21  and  O4_23 
ROOT
HETATM    1  C9  UNL     1      25.518   0.488  52.703  1.00  0.00     0.008 C 
HETATM    2  C10 UNL     1      24.429   0.012  53.276  1.00  0.00     0.042 A 
HETATM    3  N1  UNL     1      24.290  -0.700  54.528  1.00  0.00    -0.322 N 
HETATM    4  C11 UNL     1      22.931  -0.998  54.679  1.00  0.00     0.257 A 
HETATM    5  O2  UNL     1      22.571  -1.625  55.712  1.00  0.00    -0.267 OA
HETATM    6  C12 UNL     1      22.112  -0.532  53.594  1.00  0.00     0.046 A 
HETATM    7  C13 UNL     1      20.792  -0.704  53.510  1.00  0.00     0.048 A 
HETATM    8  C14 UNL     1      19.892  -0.270  52.456  1.00  0.00     0.042 A 
HETATM    9  C15 UNL     1      18.505  -0.479  52.401  1.00  0.00    -0.024 A 
HETATM   10  C19 UNL     1      18.063   0.098  51.231  1.00  0.00    -0.038 A 
HETATM   11  C20 UNL     1      16.650   0.086  50.823  1.00  0.00     0.050 C 
HETATM   12  C21 UNL     1      19.171   0.653  50.578  1.00  0.00     0.099 A 
HETATM   13  N2  UNL     1      20.244   0.400  51.364  1.00  0.00    -0.352 N 
HETATM   14  C22 UNL     1      21.468   0.922  50.795  1.00  0.00     0.156 A 
HETATM   15  C23 UNL     1      22.669   0.675  51.584  1.00  0.00     0.008 A 
HETATM   16  C24 UNL     1      23.075   0.110  52.708  1.00  0.00     0.004 A 
HETATM   17  H12 UNL     1      25.089  -0.931  55.180  1.00  0.00     0.169 HD
ENDROOT
BRANCH   1  18
HETATM   18  C8  UNL     1      26.269   1.167  51.674  1.00  0.00     0.068 C 
BRANCH  18  19
HETATM   19  C7  UNL     1      25.696   2.480  51.232  1.00  0.00    -0.052 A 
HETATM   20  C6  UNL     1      26.258   2.929  50.060  1.00  0.00     0.007 A 
HETATM   21  C5  UNL     1      25.840   4.137  49.530  1.00  0.00     0.003 A 
HETATM   22  C4  UNL     1      24.857   4.874  50.197  1.00  0.00     0.037 A 
HETATM   23  C3  UNL     1      24.306   4.386  51.388  1.00  0.00     0.069 A 
HETATM   24  C25 UNL     1      24.717   3.181  51.924  1.00  0.00     0.044 A 
BRANCH  23  25
HETATM   25  O1  UNL     1      23.336   5.085  52.066  1.00  0.00    -0.352 OA
BRANCH  25  26
HETATM   26  C2  UNL     1      22.041   4.659  52.374  1.00  0.00     0.171 C 
HETATM   27  C1  UNL     1      21.203   4.688  51.109  1.00  0.00     0.034 C 
ENDBRANCH  25  26
ENDBRANCH  23  25
ENDBRANCH  18  19
ENDBRANCH   1  18
BRANCH   9  28
HETATM   28  C16 UNL     1      17.878  -1.213  53.497  1.00  0.00     0.052 C 
BRANCH  28  29
HETATM   29  C17 UNL     1      18.145  -2.666  53.580  1.00  0.00     0.115 C 
BRANCH  29  30
HETATM   30  C18 UNL     1      16.816  -3.341  53.332  1.00  0.00     0.139 C 
HETATM   31  O3  UNL     1      16.547  -4.568  53.120  1.00  0.00    -0.650 OA
BRANCH  30  32
HETATM   32  O4  UNL     1      15.444  -3.305  53.184  1.00  0.00    -0.776 OA
HETATM   33  H18 UNL     1      14.910  -3.947  52.618  1.00  0.00     0.167 HD
ENDBRANCH  30  32
ENDBRANCH  29  30
ENDBRANCH  28  29
ENDBRANCH   9  28
TORSDOF 8
ENDMDL
