MODEL 1
REMARK VINA RESULT:      -9.2      0.000      0.000
REMARK  4 active torsions:
REMARK  status: ('A' for Active; 'I' for Inactive)
REMARK    1  A    between atoms: O1_2  and  C2_3 
REMARK    2  A    between atoms: C6_9  and  N3_10 
REMARK    3  A    between atoms: N3_10  and  C7_11 
REMARK    4  A    between atoms: C19_23  and  O2_24 
ROOT
HETATM    1  C2  UNL     1      20.029  -0.238  52.732  1.00  0.00     0.103 A 
HETATM    2  C3  UNL     1      20.547  -0.736  53.934  1.00  0.00     0.072 A 
HETATM    3  C4  UNL     1      21.909  -0.763  54.169  1.00  0.00     0.075 A 
HETATM    4  N1  UNL     1      22.397  -1.245  55.333  1.00  0.00    -0.241 NA
HETATM    5  C5  UNL     1      23.745  -1.267  55.555  1.00  0.00     0.236 A 
HETATM    6  N2  UNL     1      24.590  -0.797  54.590  1.00  0.00    -0.224 NA
HETATM    7  C6  UNL     1      24.081  -0.320  53.439  1.00  0.00     0.142 A 
HETATM    8  C17 UNL     1      22.730  -0.277  53.167  1.00  0.00     0.042 A 
HETATM    9  C18 UNL     1      22.241   0.217  51.976  1.00  0.00     0.057 A 
HETATM   10  C19 UNL     1      20.887   0.245  51.739  1.00  0.00     0.102 A 
ENDROOT
BRANCH   7  11
HETATM   11  N3  UNL     1      25.031   0.139  52.509  1.00  0.00    -0.339 N 
HETATM   12  H6  UNL     1      24.986   0.303  51.480  1.00  0.00     0.167 HD
BRANCH  11  13
HETATM   13  C7  UNL     1      26.346   0.483  52.923  1.00  0.00     0.057 C 
HETATM   14  C8  UNL     1      26.607   1.746  53.179  1.00  0.00     0.016 C 
HETATM   15  C9  UNL     1      27.648   2.109  53.832  1.00  0.00    -0.011 C 
HETATM   16  C10 UNL     1      28.627   1.270  54.081  1.00  0.00     0.025 C 
HETATM   17  C11 UNL     1      28.550  -0.131  53.658  1.00  0.00    -0.023 A 
HETATM   18  C12 UNL     1      29.578  -1.018  53.832  1.00  0.00     0.012 A 
HETATM   19  C16 UNL     1      27.368  -0.551  53.054  1.00  0.00     0.002 A 
HETATM   20  C13 UNL     1      29.417  -2.331  53.399  1.00  0.00     0.001 A 
HETATM   21  C14 UNL     1      28.220  -2.709  52.801  1.00  0.00     0.001 A 
HETATM   22  C15 UNL     1      27.178  -1.834  52.618  1.00  0.00     0.014 A 
ENDBRANCH  11  13
ENDBRANCH   7  11
BRANCH  10  23
HETATM   23  O2  UNL     1      20.330   0.728  50.563  1.00  0.00    -0.353 OA
HETATM   24  C20 UNL     1      21.151   0.984  49.459  1.00  0.00     0.210 C 
ENDBRANCH  10  23
BRANCH   1  25
HETATM   25  O1  UNL     1      18.646  -0.219  52.511  1.00  0.00    -0.353 OA
HETATM   26  C1  UNL     1      17.900  -1.278  53.094  1.00  0.00     0.210 C 
ENDBRANCH   1  25
TORSDOF 4
ENDMDL
MODEL 2
REMARK VINA RESULT:      -9.0      1.726      3.088
REMARK  4 active torsions:
REMARK  status: ('A' for Active; 'I' for Inactive)
REMARK    1  A    between atoms: O1_2  and  C2_3 
REMARK    2  A    between atoms: C6_9  and  N3_10 
REMARK    3  A    between atoms: N3_10  and  C7_11 
REMARK    4  A    between atoms: C19_23  and  O2_24 
ROOT
HETATM    1  C2  UNL     1      21.066   0.427  51.769  1.00  0.00     0.103 A 
HETATM    2  C3  UNL     1      21.695   1.221  50.802  1.00  0.00     0.072 A 
HETATM    3  C4  UNL     1      22.961   1.734  51.010  1.00  0.00     0.075 A 
HETATM    4  N1  UNL     1      23.558   2.498  50.069  1.00  0.00    -0.241 NA
HETATM    5  C5  UNL     1      24.810   3.000  50.285  1.00  0.00     0.236 A 
HETATM    6  N2  UNL     1      25.449   2.720  51.460  1.00  0.00    -0.224 NA
HETATM    7  C6  UNL     1      24.836   1.956  52.382  1.00  0.00     0.142 A 
HETATM    8  C17 UNL     1      23.574   1.427  52.212  1.00  0.00     0.042 A 
HETATM    9  C18 UNL     1      22.974   0.647  53.178  1.00  0.00     0.057 A 
HETATM   10  C19 UNL     1      21.714   0.136  52.973  1.00  0.00     0.102 A 
ENDROOT
BRANCH   7  11
HETATM   11  N3  UNL     1      25.575   1.726  53.556  1.00  0.00    -0.339 N 
HETATM   12  H6  UNL     1      25.322   1.772  54.567  1.00  0.00     0.167 HD
BRANCH  11  13
HETATM   13  C7  UNL     1      26.944   1.349  53.492  1.00  0.00     0.057 C 
HETATM   14  C8  UNL     1      27.854   2.280  53.671  1.00  0.00     0.016 C 
HETATM   15  C9  UNL     1      29.078   1.998  53.926  1.00  0.00    -0.011 C 
HETATM   16  C10 UNL     1      29.540   0.776  53.798  1.00  0.00     0.025 C 
HETATM   17  C11 UNL     1      28.664  -0.328  53.396  1.00  0.00    -0.023 A 
HETATM   18  C12 UNL     1      29.120  -1.600  53.179  1.00  0.00     0.012 A 
HETATM   19  C16 UNL     1      27.311  -0.040  53.234  1.00  0.00     0.002 A 
HETATM   20  C13 UNL     1      28.215  -2.586  52.799  1.00  0.00     0.001 A 
HETATM   21  C14 UNL     1      26.872  -2.256  52.648  1.00  0.00     0.001 A 
HETATM   22  C15 UNL     1      26.395  -0.987  52.861  1.00  0.00     0.014 A 
ENDBRANCH  11  13
ENDBRANCH   7  11
BRANCH  10  23
HETATM   23  O2  UNL     1      21.053  -0.654  53.904  1.00  0.00    -0.353 OA
HETATM   24  C20 UNL     1      21.737  -1.693  54.545  1.00  0.00     0.210 C 
ENDBRANCH  10  23
BRANCH   1  25
HETATM   25  O1  UNL     1      19.782  -0.084  51.541  1.00  0.00    -0.353 OA
HETATM   26  C1  UNL     1      18.741   0.872  51.393  1.00  0.00     0.210 C 
ENDBRANCH   1  25
TORSDOF 4
ENDMDL
MODEL 3
REMARK VINA RESULT:      -8.6      2.977      7.608
REMARK  4 active torsions:
REMARK  status: ('A' for Active; 'I' for Inactive)
REMARK    1  A    between atoms: O1_2  and  C2_3 
REMARK    2  A    between atoms: C6_9  and  N3_10 
REMARK    3  A    between atoms: N3_10  and  C7_11 
REMARK    4  A    between atoms: C19_23  and  O2_24 
ROOT
HETATM    1  C2  UNL     1      26.665   0.917  54.134  1.00  0.00     0.103 A 
HETATM    2  C3  UNL     1      26.130   2.206  54.028  1.00  0.00     0.072 A 
HETATM    3  C4  UNL     1      24.960   2.439  53.330  1.00  0.00     0.075 A 
HETATM    4  N1  UNL     1      24.452   3.687  53.234  1.00  0.00    -0.241 NA
HETATM    5  C5  UNL     1      23.295   3.906  52.542  1.00  0.00     0.236 A 
HETATM    6  N2  UNL     1      22.659   2.851  51.952  1.00  0.00    -0.224 NA
HETATM    7  C6  UNL     1      23.182   1.617  52.060  1.00  0.00     0.142 A 
HETATM    8  C17 UNL     1      24.347   1.344  52.746  1.00  0.00     0.042 A 
HETATM    9  C18 UNL     1      24.857   0.066  52.839  1.00  0.00     0.057 A 
HETATM   10  C19 UNL     1      26.021  -0.168  53.532  1.00  0.00     0.102 A 
ENDROOT
BRANCH   7  11
HETATM   11  N3  UNL     1      22.455   0.599  51.417  1.00  0.00    -0.339 N 
HETATM   12  H6  UNL     1      22.582   0.115  50.503  1.00  0.00     0.167 HD
BRANCH  11  13
HETATM   13  C7  UNL     1      21.302   0.034  52.025  1.00  0.00     0.057 C 
HETATM   14  C8  UNL     1      21.464  -0.705  53.100  1.00  0.00     0.016 C 
HETATM   15  C9  UNL     1      20.490  -1.002  53.877  1.00  0.00    -0.011 C 
HETATM   16  C10 UNL     1      19.243  -0.784  53.526  1.00  0.00     0.025 C 
HETATM   17  C11 UNL     1      18.916  -0.152  52.246  1.00  0.00    -0.023 A 
HETATM   18  C12 UNL     1      17.630   0.025  51.811  1.00  0.00     0.012 A 
HETATM   19  C16 UNL     1      19.979   0.277  51.457  1.00  0.00     0.002 A 
HETATM   20  C13 UNL     1      17.412   0.636  50.579  1.00  0.00     0.001 A 
HETATM   21  C14 UNL     1      18.503   1.050  49.822  1.00  0.00     0.001 A 
HETATM   22  C15 UNL     1      19.799   0.881  50.242  1.00  0.00     0.014 A 
ENDBRANCH  11  13
ENDBRANCH   7  11
BRANCH  10  23
HETATM   23  O2  UNL     1      26.588  -1.428  53.663  1.00  0.00    -0.353 OA
HETATM   24  C20 UNL     1      27.169  -2.049  52.551  1.00  0.00     0.210 C 
ENDBRANCH  10  23
BRANCH   1  25
HETATM   25  O1  UNL     1      27.853   0.700  54.845  1.00  0.00    -0.353 OA
HETATM   26  C1  UNL     1      29.056   1.081  54.192  1.00  0.00     0.210 C 
ENDBRANCH   1  25
TORSDOF 4
ENDMDL
MODEL 4
REMARK VINA RESULT:      -8.5      2.892      7.224
REMARK  4 active torsions:
REMARK  status: ('A' for Active; 'I' for Inactive)
REMARK    1  A    between atoms: O1_2  and  C2_3 
REMARK    2  A    between atoms: C6_9  and  N3_10 
REMARK    3  A    between atoms: N3_10  and  C7_11 
REMARK    4  A    between atoms: C19_23  and  O2_24 
ROOT
HETATM    1  C2  UNL     1      27.304  -0.013  53.695  1.00  0.00     0.103 A 
HETATM    2  C3  UNL     1      27.699   0.852  52.668  1.00  0.00     0.072 A 
HETATM    3  C4  UNL     1      26.809   1.746  52.103  1.00  0.00     0.075 A 
HETATM    4  N1  UNL     1      27.202   2.576  51.112  1.00  0.00    -0.241 NA
HETATM    5  C5  UNL     1      26.314   3.457  50.562  1.00  0.00     0.236 A 
HETATM    6  N2  UNL     1      25.029   3.488  51.024  1.00  0.00    -0.224 NA
HETATM    7  C6  UNL     1      24.660   2.652  52.012  1.00  0.00     0.142 A 
HETATM    8  C17 UNL     1      25.517   1.746  52.600  1.00  0.00     0.042 A 
HETATM    9  C18 UNL     1      25.106   0.902  53.610  1.00  0.00     0.057 A 
HETATM   10  C19 UNL     1      25.990   0.012  54.173  1.00  0.00     0.102 A 
ENDROOT
BRANCH   7  11
HETATM   11  N3  UNL     1      23.317   2.759  52.417  1.00  0.00    -0.339 N 
HETATM   12  H6  UNL     1      22.862   3.244  53.220  1.00  0.00     0.167 HD
BRANCH  11  13
HETATM   13  C7  UNL     1      22.281   2.134  51.674  1.00  0.00     0.057 C 
HETATM   14  C8  UNL     1      22.174   2.417  50.395  1.00  0.00     0.016 C 
HETATM   15  C9  UNL     1      21.483   1.697  49.592  1.00  0.00    -0.011 C 
HETATM   16  C10 UNL     1      20.661   0.774  50.034  1.00  0.00     0.025 C 
HETATM   17  C11 UNL     1      20.529   0.500  51.468  1.00  0.00    -0.023 A 
HETATM   18  C12 UNL     1      19.631  -0.400  51.974  1.00  0.00     0.012 A 
HETATM   19  C16 UNL     1      21.367   1.202  52.330  1.00  0.00     0.002 A 
HETATM   20  C13 UNL     1      19.575  -0.596  53.351  1.00  0.00     0.001 A 
HETATM   21  C14 UNL     1      20.430   0.127  54.177  1.00  0.00     0.001 A 
HETATM   22  C15 UNL     1      21.337   1.033  53.688  1.00  0.00     0.014 A 
ENDBRANCH  11  13
ENDBRANCH   7  11
BRANCH  10  23
HETATM   23  O2  UNL     1      25.641  -0.864  55.192  1.00  0.00    -0.353 OA
HETATM   24  C20 UNL     1      24.301  -1.223  55.373  1.00  0.00     0.210 C 
ENDBRANCH  10  23
BRANCH   1  25
HETATM   25  O1  UNL     1      28.220  -0.914  54.255  1.00  0.00    -0.353 OA
HETATM   26  C1  UNL     1      29.539  -0.878  53.728  1.00  0.00     0.210 C 
ENDBRANCH   1  25
TORSDOF 4
ENDMDL
MODEL 5
REMARK VINA RESULT:      -8.4      4.179      5.935
REMARK  4 active torsions:
REMARK  status: ('A' for Active; 'I' for Inactive)
REMARK    1  A    between atoms: O1_2  and  C2_3 
REMARK    2  A    between atoms: C6_9  and  N3_10 
REMARK    3  A    between atoms: N3_10  and  C7_11 
REMARK    4  A    between atoms: C19_23  and  O2_24 
ROOT
HETATM    1  C2  UNL     1      23.102   0.203  53.283  1.00  0.00     0.103 A 
HETATM    2  C3  UNL     1      24.436   0.333  53.686  1.00  0.00     0.072 A 
HETATM    3  C4  UNL     1      25.331   1.098  52.963  1.00  0.00     0.075 A 
HETATM    4  N1  UNL     1      26.616   1.216  53.361  1.00  0.00    -0.241 NA
HETATM    5  C5  UNL     1      27.493   1.975  52.639  1.00  0.00     0.236 A 
HETATM    6  N2  UNL     1      27.055   2.611  51.512  1.00  0.00    -0.224 NA
HETATM    7  C6  UNL     1      25.770   2.480  51.133  1.00  0.00     0.142 A 
HETATM    8  C17 UNL     1      24.848   1.726  51.827  1.00  0.00     0.042 A 
HETATM    9  C18 UNL     1      23.538   1.611  51.412  1.00  0.00     0.057 A 
HETATM   10  C19 UNL     1      22.646   0.851  52.130  1.00  0.00     0.102 A 
ENDROOT
BRANCH   7  11
HETATM   11  N3  UNL     1      25.418   3.172  49.960  1.00  0.00    -0.339 N 
HETATM   12  H6  UNL     1      25.207   2.850  48.991  1.00  0.00     0.167 HD
BRANCH  11  13
HETATM   13  C7  UNL     1      25.290   4.586  49.961  1.00  0.00     0.057 C 
HETATM   14  C8  UNL     1      24.210   5.113  50.496  1.00  0.00     0.016 C 
HETATM   15  C9  UNL     1      24.140   6.353  50.810  1.00  0.00    -0.011 C 
HETATM   16  C10 UNL     1      25.047   7.214  50.409  1.00  0.00     0.025 C 
HETATM   17  C11 UNL     1      26.203   6.783  49.619  1.00  0.00    -0.023 A 
HETATM   18  C12 UNL     1      27.131   7.658  49.119  1.00  0.00     0.012 A 
HETATM   19  C16 UNL     1      26.339   5.419  49.379  1.00  0.00     0.002 A 
HETATM   20  C13 UNL     1      28.198   7.159  48.378  1.00  0.00     0.001 A 
HETATM   21  C14 UNL     1      28.295   5.788  48.162  1.00  0.00     0.001 A 
HETATM   22  C15 UNL     1      27.376   4.896  48.655  1.00  0.00     0.014 A 
ENDBRANCH  11  13
ENDBRANCH   7  11
BRANCH  10  23
HETATM   23  O2  UNL     1      21.315   0.694  51.767  1.00  0.00    -0.353 OA
HETATM   24  C20 UNL     1      20.396   1.714  52.036  1.00  0.00     0.210 C 
ENDBRANCH  10  23
BRANCH   1  25
HETATM   25  O1  UNL     1      22.209  -0.577  54.029  1.00  0.00    -0.353 OA
HETATM   26  C1  UNL     1      22.757  -1.273  55.139  1.00  0.00     0.210 C 
ENDBRANCH   1  25
TORSDOF 4
ENDMDL
MODEL 6
REMARK VINA RESULT:      -8.2      3.168      6.752
REMARK  4 active torsions:
REMARK  status: ('A' for Active; 'I' for Inactive)
REMARK    1  A    between atoms: O1_2  and  C2_3 
REMARK    2  A    between atoms: C6_9  and  N3_10 
REMARK    3  A    between atoms: N3_10  and  C7_11 
REMARK    4  A    between atoms: C19_23  and  O2_24 
ROOT
HETATM    1  C2  UNL     1      26.585   0.091  53.214  1.00  0.00     0.103 A 
HETATM    2  C3  UNL     1      25.649  -0.652  53.941  1.00  0.00     0.072 A 
HETATM    3  C4  UNL     1      24.302  -0.345  53.899  1.00  0.00     0.075 A 
HETATM    4  N1  UNL     1      23.407  -1.070  54.605  1.00  0.00    -0.241 NA
HETATM    5  C5  UNL     1      22.078  -0.758  54.556  1.00  0.00     0.236 A 
HETATM    6  N2  UNL     1      21.667   0.293  53.786  1.00  0.00    -0.224 NA
HETATM    7  C6  UNL     1      22.575   1.001  53.090  1.00  0.00     0.142 A 
HETATM    8  C17 UNL     1      23.926   0.726  53.108  1.00  0.00     0.042 A 
HETATM    9  C18 UNL     1      24.832   1.473  52.383  1.00  0.00     0.057 A 
HETATM   10  C19 UNL     1      26.172   1.168  52.424  1.00  0.00     0.102 A 
ENDROOT
BRANCH   7  11
HETATM   11  N3  UNL     1      22.053   2.063  52.330  1.00  0.00    -0.339 N 
HETATM   12  H6  UNL     1      21.624   2.975  52.597  1.00  0.00     0.167 HD
BRANCH  11  13
HETATM   13  C7  UNL     1      22.049   2.007  50.910  1.00  0.00     0.057 C 
HETATM   14  C8  UNL     1      21.604   0.914  50.332  1.00  0.00     0.016 C 
HETATM   15  C9  UNL     1      21.284   0.880  49.091  1.00  0.00    -0.011 C 
HETATM   16  C10 UNL     1      21.597   1.861  48.277  1.00  0.00     0.025 C 
HETATM   17  C11 UNL     1      22.289   3.058  48.762  1.00  0.00    -0.023 A 
HETATM   18  C12 UNL     1      22.697   4.068  47.933  1.00  0.00     0.012 A 
HETATM   19  C16 UNL     1      22.529   3.144  50.130  1.00  0.00     0.002 A 
HETATM   20  C13 UNL     1      23.349   5.169  48.482  1.00  0.00     0.001 A 
HETATM   21  C14 UNL     1      23.569   5.215  49.855  1.00  0.00     0.001 A 
HETATM   22  C15 UNL     1      23.167   4.212  50.701  1.00  0.00     0.014 A 
ENDBRANCH  11  13
ENDBRANCH   7  11
BRANCH  10  23
HETATM   23  O2  UNL     1      27.135   1.879  51.720  1.00  0.00    -0.353 OA
HETATM   24  C20 UNL     1      26.744   2.880  50.824  1.00  0.00     0.210 C 
ENDBRANCH  10  23
BRANCH   1  25
HETATM   25  O1  UNL     1      27.947  -0.235  53.270  1.00  0.00    -0.353 OA
HETATM   26  C1  UNL     1      28.618   0.071  54.484  1.00  0.00     0.210 C 
ENDBRANCH   1  25
TORSDOF 4
ENDMDL
MODEL 7
REMARK VINA RESULT:      -8.2      5.654      8.214
REMARK  4 active torsions:
REMARK  status: ('A' for Active; 'I' for Inactive)
REMARK    1  A    between atoms: O1_2  and  C2_3 
REMARK    2  A    between atoms: C6_9  and  N3_10 
REMARK    3  A    between atoms: N3_10  and  C7_11 
REMARK    4  A    between atoms: C19_23  and  O2_24 
ROOT
HETATM    1  C2  UNL     1      27.284   7.793  48.918  1.00  0.00     0.103 A 
HETATM    2  C3  UNL     1      26.203   8.079  49.759  1.00  0.00     0.072 A 
HETATM    3  C4  UNL     1      25.360   7.080  50.206  1.00  0.00     0.075 A 
HETATM    4  N1  UNL     1      24.319   7.368  51.018  1.00  0.00    -0.241 NA
HETATM    5  C5  UNL     1      23.492   6.372  51.455  1.00  0.00     0.236 A 
HETATM    6  N2  UNL     1      23.730   5.085  51.062  1.00  0.00    -0.224 NA
HETATM    7  C6  UNL     1      24.773   4.821  50.253  1.00  0.00     0.142 A 
HETATM    8  C17 UNL     1      25.635   5.790  49.786  1.00  0.00     0.042 A 
HETATM    9  C18 UNL     1      26.694   5.486  48.957  1.00  0.00     0.057 A 
HETATM   10  C19 UNL     1      27.534   6.479  48.511  1.00  0.00     0.102 A 
ENDROOT
BRANCH   7  11
HETATM   11  N3  UNL     1      24.932   3.468  49.905  1.00  0.00    -0.339 N 
HETATM   12  H6  UNL     1      24.804   2.953  49.007  1.00  0.00     0.167 HD
BRANCH  11  13
HETATM   13  C7  UNL     1      25.346   2.512  50.871  1.00  0.00     0.057 C 
HETATM   14  C8  UNL     1      26.627   2.430  51.156  1.00  0.00     0.016 C 
HETATM   15  C9  UNL     1      27.056   1.828  52.203  1.00  0.00    -0.011 C 
HETATM   16  C10 UNL     1      26.268   1.066  52.925  1.00  0.00     0.025 C 
HETATM   17  C11 UNL     1      24.852   0.904  52.588  1.00  0.00    -0.023 A 
HETATM   18  C12 UNL     1      24.015   0.062  53.270  1.00  0.00     0.012 A 
HETATM   19  C16 UNL     1      24.362   1.651  51.520  1.00  0.00     0.002 A 
HETATM   20  C13 UNL     1      22.683  -0.029  52.878  1.00  0.00     0.001 A 
HETATM   21  C14 UNL     1      22.235   0.735  51.806  1.00  0.00     0.001 A 
HETATM   22  C15 UNL     1      23.057   1.585  51.110  1.00  0.00     0.014 A 
ENDBRANCH  11  13
ENDBRANCH   7  11
BRANCH  10  23
HETATM   23  O2  UNL     1      28.617   6.240  47.676  1.00  0.00    -0.353 OA
HETATM   24  C20 UNL     1      29.690   5.466  48.131  1.00  0.00     0.210 C 
ENDBRANCH  10  23
BRANCH   1  25
HETATM   25  O1  UNL     1      28.128   8.820  48.474  1.00  0.00    -0.353 OA
HETATM   26  C1  UNL     1      28.566   9.744  49.460  1.00  0.00     0.210 C 
ENDBRANCH   1  25
TORSDOF 4
ENDMDL
MODEL 8
REMARK VINA RESULT:      -8.2      4.569      6.703
REMARK  4 active torsions:
REMARK  status: ('A' for Active; 'I' for Inactive)
REMARK    1  A    between atoms: O1_2  and  C2_3 
REMARK    2  A    between atoms: C6_9  and  N3_10 
REMARK    3  A    between atoms: N3_10  and  C7_11 
REMARK    4  A    between atoms: C19_23  and  O2_24 
ROOT
HETATM    1  C2  UNL     1      25.603   0.079  53.550  1.00  0.00     0.103 A 
HETATM    2  C3  UNL     1      24.359  -0.088  52.931  1.00  0.00     0.072 A 
HETATM    3  C4  UNL     1      23.616   0.999  52.511  1.00  0.00     0.075 A 
HETATM    4  N1  UNL     1      22.416   0.826  51.915  1.00  0.00    -0.241 NA
HETATM    5  C5  UNL     1      21.691   1.909  51.504  1.00  0.00     0.236 A 
HETATM    6  N2  UNL     1      22.192   3.164  51.703  1.00  0.00    -0.224 NA
HETATM    7  C6  UNL     1      23.389   3.313  52.299  1.00  0.00     0.142 A 
HETATM    8  C17 UNL     1      24.159   2.254  52.731  1.00  0.00     0.042 A 
HETATM    9  C18 UNL     1      25.382   2.441  53.339  1.00  0.00     0.057 A 
HETATM   10  C19 UNL     1      26.122   1.360  53.757  1.00  0.00     0.102 A 
ENDROOT
BRANCH   7  11
HETATM   11  N3  UNL     1      23.817   4.643  52.459  1.00  0.00    -0.339 N 
HETATM   12  H6  UNL     1      24.095   5.196  53.298  1.00  0.00     0.167 HD
BRANCH  11  13
HETATM   13  C7  UNL     1      23.937   5.508  51.338  1.00  0.00     0.057 C 
HETATM   14  C8  UNL     1      23.041   6.458  51.187  1.00  0.00     0.016 C 
HETATM   15  C9  UNL     1      23.227   7.452  50.400  1.00  0.00    -0.011 C 
HETATM   16  C10 UNL     1      24.212   7.463  49.532  1.00  0.00     0.025 C 
HETATM   17  C11 UNL     1      25.167   6.355  49.455  1.00  0.00    -0.023 A 
HETATM   18  C12 UNL     1      26.161   6.294  48.516  1.00  0.00     0.012 A 
HETATM   19  C16 UNL     1      25.033   5.332  50.390  1.00  0.00     0.002 A 
HETATM   20  C13 UNL     1      27.024   5.201  48.517  1.00  0.00     0.001 A 
HETATM   21  C14 UNL     1      26.855   4.201  49.469  1.00  0.00     0.001 A 
HETATM   22  C15 UNL     1      25.864   4.245  50.418  1.00  0.00     0.014 A 
ENDBRANCH  11  13
ENDBRANCH   7  11
BRANCH  10  23
HETATM   23  O2  UNL     1      27.359   1.480  54.375  1.00  0.00    -0.353 OA
HETATM   24  C20 UNL     1      28.479   1.857  53.625  1.00  0.00     0.210 C 
ENDBRANCH  10  23
BRANCH   1  25
HETATM   25  O1  UNL     1      26.341  -1.036  53.968  1.00  0.00    -0.353 OA
HETATM   26  C1  UNL     1      27.053  -1.735  52.957  1.00  0.00     0.210 C 
ENDBRANCH   1  25
TORSDOF 4
ENDMDL
MODEL 9
REMARK VINA RESULT:      -8.0      3.337      7.861
REMARK  4 active torsions:
REMARK  status: ('A' for Active; 'I' for Inactive)
REMARK    1  A    between atoms: O1_2  and  C2_3 
REMARK    2  A    between atoms: C6_9  and  N3_10 
REMARK    3  A    between atoms: N3_10  and  C7_11 
REMARK    4  A    between atoms: C19_23  and  O2_24 
ROOT
HETATM    1  C2  UNL     1      27.458   0.292  53.947  1.00  0.00     0.103 A 
HETATM    2  C3  UNL     1      27.782   1.116  52.863  1.00  0.00     0.072 A 
HETATM    3  C4  UNL     1      26.825   1.904  52.252  1.00  0.00     0.075 A 
HETATM    4  N1  UNL     1      27.150   2.695  51.206  1.00  0.00    -0.241 NA
HETATM    5  C5  UNL     1      26.196   3.470  50.609  1.00  0.00     0.236 A 
HETATM    6  N2  UNL     1      24.914   3.436  51.082  1.00  0.00    -0.224 NA
HETATM    7  C6  UNL     1      24.614   2.640  52.124  1.00  0.00     0.142 A 
HETATM    8  C17 UNL     1      25.539   1.840  52.760  1.00  0.00     0.042 A 
HETATM    9  C18 UNL     1      25.198   1.035  53.827  1.00  0.00     0.057 A 
HETATM   10  C19 UNL     1      26.148   0.251  54.436  1.00  0.00     0.102 A 
ENDROOT
BRANCH   7  11
HETATM   11  N3  UNL     1      23.269   2.674  52.535  1.00  0.00    -0.339 N 
HETATM   12  H6  UNL     1      22.806   3.035  53.397  1.00  0.00     0.167 HD
BRANCH  11  13
HETATM   13  C7  UNL     1      22.242   2.148  51.707  1.00  0.00     0.057 C 
HETATM   14  C8  UNL     1      22.208   0.849  51.508  1.00  0.00     0.016 C 
HETATM   15  C9  UNL     1      21.173   0.257  51.037  1.00  0.00    -0.011 C 
HETATM   16  C10 UNL     1      20.177   0.933  50.513  1.00  0.00     0.025 C 
HETATM   17  C11 UNL     1      20.188   2.398  50.483  1.00  0.00    -0.023 A 
HETATM   18  C12 UNL     1      19.206   3.138  49.881  1.00  0.00     0.012 A 
HETATM   19  C16 UNL     1      21.258   3.040  51.101  1.00  0.00     0.002 A 
HETATM   20  C13 UNL     1      19.299   4.526  49.900  1.00  0.00     0.001 A 
HETATM   21  C14 UNL     1      20.385   5.127  50.528  1.00  0.00     0.001 A 
HETATM   22  C15 UNL     1      21.379   4.403  51.137  1.00  0.00     0.014 A 
ENDBRANCH  11  13
ENDBRANCH   7  11
BRANCH  10  23
HETATM   23  O2  UNL     1      25.871  -0.581  55.513  1.00  0.00    -0.353 OA
HETATM   24  C20 UNL     1      24.638  -1.238  55.585  1.00  0.00     0.210 C 
ENDBRANCH  10  23
BRANCH   1  25
HETATM   25  O1  UNL     1      28.441  -0.500  54.554  1.00  0.00    -0.353 OA
HETATM   26  C1  UNL     1      29.642  -0.686  53.818  1.00  0.00     0.210 C 
ENDBRANCH   1  25
TORSDOF 4
ENDMDL
