MODEL 1
REMARK VINA RESULT:      -7.9      0.000      0.000
REMARK  6 active torsions:
REMARK  status: ('A' for Active; 'I' for Inactive)
REMARK    1  A    between atoms: C2_2  and  C3_3 
REMARK    2  A    between atoms: C3_3  and  C4_4 
REMARK    3  A    between atoms: C4_4  and  C5_5 
REMARK    4  A    between atoms: N2_7  and  C6_8 
REMARK    5  A    between atoms: C7_10  and  O1_11 
REMARK    6  A    between atoms: C9_14  and  C10_15 
ROOT
HETATM    1  C5  UNL     1      23.549   0.027  53.571  1.00  0.00     0.035 C 
HETATM    2  N1  UNL     1      24.798  -0.390  53.541  1.00  0.00    -0.179 NA
HETATM    3  N2  UNL     1      25.589   0.572  52.911  1.00  0.00    -0.237 N 
HETATM    4  C9  UNL     1      24.680   1.186  51.984  1.00  0.00     0.151 C 
HETATM    5  C16 UNL     1      23.479   1.388  52.884  1.00  0.00     0.088 C 
ENDROOT
BRANCH   3   6
HETATM    6  C6  UNL     1      26.976   0.657  53.356  1.00  0.00     0.192 A 
HETATM    7  N3  UNL     1      27.644   1.518  53.831  1.00  0.00    -0.198 NA
HETATM    8  C7  UNL     1      28.923   1.343  54.133  1.00  0.00     0.171 A 
HETATM    9  C8  UNL     1      29.545   0.127  53.900  1.00  0.00     0.111 A 
HETATM   10  S1  UNL     1      28.126  -0.773  53.199  1.00  0.00    -0.058 SA
BRANCH   8  11
HETATM   11  O1  UNL     1      29.604   2.445  54.695  1.00  0.00    -0.344 OA
HETATM   12  H8  UNL     1      30.592   2.617  54.551  1.00  0.00     0.219 HD
ENDBRANCH   8  11
ENDBRANCH   3   6
BRANCH   4  13
HETATM   13  C10 UNL     1      25.139   2.315  51.228  1.00  0.00    -0.033 A 
HETATM   14  C11 UNL     1      26.292   2.469  50.487  1.00  0.00     0.011 A 
HETATM   15  C12 UNL     1      26.666   3.610  49.813  1.00  0.00     0.019 A 
HETATM   16  C13 UNL     1      25.805   4.682  49.894  1.00  0.00     0.011 A 
HETATM   17 BR1  UNL     1      26.340   6.268  48.948  1.00  0.00    -0.051 Br
HETATM   18  C14 UNL     1      24.636   4.592  50.618  1.00  0.00     0.019 A 
HETATM   19  C15 UNL     1      24.302   3.418  51.284  1.00  0.00     0.011 A 
ENDBRANCH   4  13
BRANCH   1  20
HETATM   20  C4  UNL     1      22.379  -0.680  54.148  1.00  0.00     0.057 C 
BRANCH  20  21
HETATM   21  C3  UNL     1      21.171   0.236  54.202  1.00  0.00     0.011 C 
BRANCH  21  22
HETATM   22  C2  UNL     1      20.042  -0.415  53.529  1.00  0.00    -0.010 C 
HETATM   23  C1  UNL     1      18.840  -0.807  53.148  1.00  0.00     0.005 C 
ENDBRANCH  21  22
ENDBRANCH  20  21
ENDBRANCH   1  20
TORSDOF 6
ENDMDL
MODEL 2
REMARK VINA RESULT:      -7.7      3.494      6.479
REMARK  6 active torsions:
REMARK  status: ('A' for Active; 'I' for Inactive)
REMARK    1  A    between atoms: C2_2  and  C3_3 
REMARK    2  A    between atoms: C3_3  and  C4_4 
REMARK    3  A    between atoms: C4_4  and  C5_5 
REMARK    4  A    between atoms: N2_7  and  C6_8 
REMARK    5  A    between atoms: C7_10  and  O1_11 
REMARK    6  A    between atoms: C9_14  and  C10_15 
ROOT
HETATM    1  C5  UNL     1      26.948   0.547  54.320  1.00  0.00     0.035 C 
HETATM    2  N1  UNL     1      26.715   1.377  53.324  1.00  0.00    -0.179 NA
HETATM    3  N2  UNL     1      25.346   1.401  53.056  1.00  0.00    -0.237 N 
HETATM    4  C9  UNL     1      24.918   0.082  53.425  1.00  0.00     0.151 C 
HETATM    5  C16 UNL     1      25.620  -0.063  54.759  1.00  0.00     0.088 C 
ENDROOT
BRANCH   3   6
HETATM    6  C6  UNL     1      24.814   2.656  52.535  1.00  0.00     0.192 A 
HETATM    7  N3  UNL     1      24.054   3.471  52.949  1.00  0.00    -0.198 NA
HETATM    8  C7  UNL     1      23.707   4.543  52.249  1.00  0.00     0.171 A 
HETATM    9  C8  UNL     1      24.225   4.759  50.983  1.00  0.00     0.111 A 
HETATM   10  S1  UNL     1      25.275   3.277  50.863  1.00  0.00    -0.058 SA
BRANCH   8  11
HETATM   11  O1  UNL     1      22.797   5.435  52.856  1.00  0.00    -0.344 OA
HETATM   12  H8  UNL     1      22.956   5.856  53.763  1.00  0.00     0.219 HD
ENDBRANCH   8  11
ENDBRANCH   3   6
BRANCH   4  13
HETATM   13  C10 UNL     1      23.515  -0.217  53.378  1.00  0.00    -0.033 A 
HETATM   14  C11 UNL     1      22.572   0.133  52.435  1.00  0.00     0.011 A 
HETATM   15  C12 UNL     1      21.231  -0.175  52.489  1.00  0.00     0.019 A 
HETATM   16  C13 UNL     1      20.810  -0.896  53.585  1.00  0.00     0.011 A 
HETATM   17 BR1  UNL     1      18.936  -1.320  53.647  1.00  0.00    -0.051 Br
HETATM   18  C14 UNL     1      21.704  -1.277  54.562  1.00  0.00     0.019 A 
HETATM   19  C15 UNL     1      23.050  -0.940  54.464  1.00  0.00     0.011 A 
ENDBRANCH   4  13
BRANCH   1  20
HETATM   20  C4  UNL     1      28.261   0.220  54.930  1.00  0.00     0.057 C 
BRANCH  20  21
HETATM   21  C3  UNL     1      29.317   0.029  53.858  1.00  0.00     0.011 C 
BRANCH  21  22
HETATM   22  C2  UNL     1      29.278  -1.358  53.385  1.00  0.00    -0.010 C 
HETATM   23  C1  UNL     1      28.943  -2.613  53.141  1.00  0.00     0.005 C 
ENDBRANCH  21  22
ENDBRANCH  20  21
ENDBRANCH   1  20
TORSDOF 6
ENDMDL
MODEL 3
REMARK VINA RESULT:      -7.6      3.167      4.839
REMARK  6 active torsions:
REMARK  status: ('A' for Active; 'I' for Inactive)
REMARK    1  A    between atoms: C2_2  and  C3_3 
REMARK    2  A    between atoms: C3_3  and  C4_4 
REMARK    3  A    between atoms: C4_4  and  C5_5 
REMARK    4  A    between atoms: N2_7  and  C6_8 
REMARK    5  A    between atoms: C7_10  and  O1_11 
REMARK    6  A    between atoms: C9_14  and  C10_15 
ROOT
HETATM    1  C5  UNL     1      21.726  -0.022  53.213  1.00  0.00     0.035 C 
HETATM    2  N1  UNL     1      22.053   1.182  52.790  1.00  0.00    -0.179 NA
HETATM    3  N2  UNL     1      23.440   1.260  52.653  1.00  0.00    -0.237 N 
HETATM    4  C9  UNL     1      23.919   0.349  53.654  1.00  0.00     0.151 C 
HETATM    5  C16 UNL     1      23.006  -0.832  53.398  1.00  0.00     0.088 C 
ENDROOT
BRANCH   3   6
HETATM    6  C6  UNL     1      23.935   2.161  51.617  1.00  0.00     0.192 A 
HETATM    7  N3  UNL     1      24.887   2.864  51.514  1.00  0.00    -0.198 NA
HETATM    8  C7  UNL     1      25.101   3.624  50.448  1.00  0.00     0.171 A 
HETATM    9  C8  UNL     1      24.205   3.629  49.392  1.00  0.00     0.111 A 
HETATM   10  S1  UNL     1      23.001   2.434  50.053  1.00  0.00    -0.058 SA
BRANCH   8  11
HETATM   11  O1  UNL     1      26.272   4.412  50.450  1.00  0.00    -0.344 OA
HETATM   12  H8  UNL     1      26.815   4.598  49.615  1.00  0.00     0.219 HD
ENDBRANCH   8  11
ENDBRANCH   3   6
BRANCH   4  13
HETATM   13  C10 UNL     1      25.329   0.094  53.723  1.00  0.00    -0.033 A 
HETATM   14  C11 UNL     1      26.293   0.686  54.512  1.00  0.00     0.011 A 
HETATM   15  C12 UNL     1      27.638   0.395  54.489  1.00  0.00     0.019 A 
HETATM   16  C13 UNL     1      28.042  -0.573  53.596  1.00  0.00     0.011 A 
HETATM   17 BR1  UNL     1      29.923  -0.971  53.575  1.00  0.00    -0.051 Br
HETATM   18  C14 UNL     1      27.127  -1.203  52.780  1.00  0.00     0.019 A 
HETATM   19  C15 UNL     1      25.778  -0.873  52.839  1.00  0.00     0.011 A 
ENDBRANCH   4  13
BRANCH   1  20
HETATM   20  C4  UNL     1      20.362  -0.537  53.492  1.00  0.00     0.057 C 
BRANCH  20  21
HETATM   21  C3  UNL     1      19.380  -0.048  52.445  1.00  0.00     0.011 C 
BRANCH  21  22
HETATM   22  C2  UNL     1      18.115  -0.776  52.594  1.00  0.00    -0.010 C 
HETATM   23  C1  UNL     1      17.179  -1.651  52.913  1.00  0.00     0.005 C 
ENDBRANCH  21  22
ENDBRANCH  20  21
ENDBRANCH   1  20
TORSDOF 6
ENDMDL
MODEL 4
REMARK VINA RESULT:      -7.5      3.060      5.990
REMARK  6 active torsions:
REMARK  status: ('A' for Active; 'I' for Inactive)
REMARK    1  A    between atoms: C2_2  and  C3_3 
REMARK    2  A    between atoms: C3_3  and  C4_4 
REMARK    3  A    between atoms: C4_4  and  C5_5 
REMARK    4  A    between atoms: N2_7  and  C6_8 
REMARK    5  A    between atoms: C7_10  and  O1_11 
REMARK    6  A    between atoms: C9_14  and  C10_15 
ROOT
HETATM    1  C5  UNL     1      26.400   3.178  50.274  1.00  0.00     0.035 C 
HETATM    2  N1  UNL     1      27.160   2.659  51.217  1.00  0.00    -0.179 NA
HETATM    3  N2  UNL     1      26.429   1.700  51.919  1.00  0.00    -0.237 N 
HETATM    4  C9  UNL     1      25.081   2.183  51.827  1.00  0.00     0.151 C 
HETATM    5  C16 UNL     1      25.023   2.527  50.353  1.00  0.00     0.088 C 
ENDROOT
BRANCH   3   6
HETATM    6  C6  UNL     1      27.195   0.590  52.478  1.00  0.00     0.192 A 
HETATM    7  N3  UNL     1      27.096  -0.593  52.430  1.00  0.00    -0.198 NA
HETATM    8  C7  UNL     1      27.932  -1.405  53.065  1.00  0.00     0.171 A 
HETATM    9  C8  UNL     1      28.973  -0.896  53.824  1.00  0.00     0.111 A 
HETATM   10  S1  UNL     1      28.660   0.878  53.557  1.00  0.00    -0.058 SA
BRANCH   8  11
HETATM   11  O1  UNL     1      27.707  -2.792  52.925  1.00  0.00    -0.344 OA
HETATM   12  H8  UNL     1      28.179  -3.488  53.487  1.00  0.00     0.219 HD
ENDBRANCH   8  11
ENDBRANCH   3   6
BRANCH   4  13
HETATM   13  C10 UNL     1      24.027   1.368  52.360  1.00  0.00    -0.033 A 
HETATM   14  C11 UNL     1      24.017   0.565  53.481  1.00  0.00     0.011 A 
HETATM   15  C12 UNL     1      22.960  -0.211  53.902  1.00  0.00     0.019 A 
HETATM   16  C13 UNL     1      21.823  -0.172  53.127  1.00  0.00     0.011 A 
HETATM   17 BR1  UNL     1      20.355  -1.260  53.727  1.00  0.00    -0.051 Br
HETATM   18  C14 UNL     1      21.769   0.611  51.994  1.00  0.00     0.019 A 
HETATM   19  C15 UNL     1      22.864   1.377  51.608  1.00  0.00     0.011 A 
ENDBRANCH   4  13
BRANCH   1  20
HETATM   20  C4  UNL     1      26.774   4.229  49.295  1.00  0.00     0.057 C 
BRANCH  20  21
HETATM   21  C3  UNL     1      25.670   5.261  49.168  1.00  0.00     0.011 C 
BRANCH  21  22
HETATM   22  C2  UNL     1      26.219   6.481  48.567  1.00  0.00    -0.010 C 
HETATM   23  C1  UNL     1      26.690   7.390  47.731  1.00  0.00     0.005 C 
ENDBRANCH  21  22
ENDBRANCH  20  21
ENDBRANCH   1  20
TORSDOF 6
ENDMDL
MODEL 5
REMARK VINA RESULT:      -7.5      3.549      5.675
REMARK  6 active torsions:
REMARK  status: ('A' for Active; 'I' for Inactive)
REMARK    1  A    between atoms: C2_2  and  C3_3 
REMARK    2  A    between atoms: C3_3  and  C4_4 
REMARK    3  A    between atoms: C4_4  and  C5_5 
REMARK    4  A    between atoms: N2_7  and  C6_8 
REMARK    5  A    between atoms: C7_10  and  O1_11 
REMARK    6  A    between atoms: C9_14  and  C10_15 
ROOT
HETATM    1  C5  UNL     1      23.132   3.164  51.391  1.00  0.00     0.035 C 
HETATM    2  N1  UNL     1      22.507   2.040  51.677  1.00  0.00    -0.179 NA
HETATM    3  N2  UNL     1      23.408   1.150  52.265  1.00  0.00    -0.237 N 
HETATM    4  C9  UNL     1      24.662   1.514  51.669  1.00  0.00     0.151 C 
HETATM    5  C16 UNL     1      24.594   3.021  51.805  1.00  0.00     0.088 C 
ENDROOT
BRANCH   3   6
HETATM    6  C6  UNL     1      22.846   0.209  53.228  1.00  0.00     0.192 A 
HETATM    7  N3  UNL     1      23.285  -0.389  54.157  1.00  0.00    -0.198 NA
HETATM    8  C7  UNL     1      22.551  -1.226  54.877  1.00  0.00     0.171 A 
HETATM    9  C8  UNL     1      21.217  -1.441  54.570  1.00  0.00     0.111 A 
HETATM   10  S1  UNL     1      21.087  -0.329  53.136  1.00  0.00    -0.058 SA
BRANCH   8  11
HETATM   11  O1  UNL     1      23.192  -1.872  55.956  1.00  0.00    -0.344 OA
HETATM   12  H8  UNL     1      24.044  -1.527  56.381  1.00  0.00     0.219 HD
ENDBRANCH   8  11
ENDBRANCH   3   6
BRANCH   4  13
HETATM   13  C10 UNL     1      25.852   0.860  52.134  1.00  0.00    -0.033 A 
HETATM   14  C11 UNL     1      26.149  -0.485  52.199  1.00  0.00     0.011 A 
HETATM   15  C12 UNL     1      27.314  -1.026  52.693  1.00  0.00     0.019 A 
HETATM   16  C13 UNL     1      28.256  -0.136  53.158  1.00  0.00     0.011 A 
HETATM   17 BR1  UNL     1      29.880  -0.906  53.844  1.00  0.00    -0.051 Br
HETATM   18  C14 UNL     1      28.020   1.221  53.120  1.00  0.00     0.019 A 
HETATM   19  C15 UNL     1      26.826   1.720  52.613  1.00  0.00     0.011 A 
ENDBRANCH   4  13
BRANCH   1  20
HETATM   20  C4  UNL     1      22.556   4.377  50.759  1.00  0.00     0.057 C 
BRANCH  20  21
HETATM   21  C3  UNL     1      23.206   4.642  49.415  1.00  0.00     0.011 C 
BRANCH  21  22
HETATM   22  C2  UNL     1      22.831   3.575  48.480  1.00  0.00    -0.010 C 
HETATM   23  C1  UNL     1      22.528   2.415  47.926  1.00  0.00     0.005 C 
ENDBRANCH  21  22
ENDBRANCH  20  21
ENDBRANCH   1  20
TORSDOF 6
ENDMDL
MODEL 6
REMARK VINA RESULT:      -7.3      2.960      5.571
REMARK  6 active torsions:
REMARK  status: ('A' for Active; 'I' for Inactive)
REMARK    1  A    between atoms: C2_2  and  C3_3 
REMARK    2  A    between atoms: C3_3  and  C4_4 
REMARK    3  A    between atoms: C4_4  and  C5_5 
REMARK    4  A    between atoms: N2_7  and  C6_8 
REMARK    5  A    between atoms: C7_10  and  O1_11 
REMARK    6  A    between atoms: C9_14  and  C10_15 
ROOT
HETATM    1  C5  UNL     1      26.674  -0.237  52.837  1.00  0.00     0.035 C 
HETATM    2  N1  UNL     1      25.595  -0.405  53.575  1.00  0.00    -0.179 NA
HETATM    3  N2  UNL     1      24.613   0.497  53.164  1.00  0.00    -0.237 N 
HETATM    4  C9  UNL     1      25.375   1.615  52.684  1.00  0.00     0.151 C 
HETATM    5  C16 UNL     1      26.408   0.892  51.846  1.00  0.00     0.088 C 
ENDROOT
BRANCH   3   6
HETATM    6  C6  UNL     1      23.230   0.061  53.327  1.00  0.00     0.192 A 
HETATM    7  N3  UNL     1      22.670  -0.652  54.096  1.00  0.00    -0.198 NA
HETATM    8  C7  UNL     1      21.372  -0.913  54.011  1.00  0.00     0.171 A 
HETATM    9  C8  UNL     1      20.603  -0.355  53.003  1.00  0.00     0.111 A 
HETATM   10  S1  UNL     1      21.907   0.596  52.162  1.00  0.00    -0.058 SA
BRANCH   8  11
HETATM   11  O1  UNL     1      20.828  -1.774  54.989  1.00  0.00    -0.344 OA
HETATM   12  H8  UNL     1      21.388  -2.226  55.701  1.00  0.00     0.219 HD
ENDBRANCH   8  11
ENDBRANCH   3   6
BRANCH   4  13
HETATM   13  C10 UNL     1      24.672   2.707  52.074  1.00  0.00    -0.033 A 
HETATM   14  C11 UNL     1      24.510   3.014  50.740  1.00  0.00     0.011 A 
HETATM   15  C12 UNL     1      23.839   4.108  50.244  1.00  0.00     0.019 A 
HETATM   16  C13 UNL     1      23.286   4.963  51.172  1.00  0.00     0.011 A 
HETATM   17 BR1  UNL     1      22.351   6.487  50.466  1.00  0.00    -0.051 Br
HETATM   18  C14 UNL     1      23.412   4.711  52.522  1.00  0.00     0.019 A 
HETATM   19  C15 UNL     1      24.102   3.592  52.974  1.00  0.00     0.011 A 
ENDBRANCH   4  13
BRANCH   1  20
HETATM   20  C4  UNL     1      27.952  -0.984  52.931  1.00  0.00     0.057 C 
BRANCH  20  21
HETATM   21  C3  UNL     1      28.783  -0.482  54.096  1.00  0.00     0.011 C 
BRANCH  21  22
HETATM   22  C2  UNL     1      29.056   0.948  53.911  1.00  0.00    -0.010 C 
HETATM   23  C1  UNL     1      29.048   2.267  53.986  1.00  0.00     0.005 C 
ENDBRANCH  21  22
ENDBRANCH  20  21
ENDBRANCH   1  20
TORSDOF 6
ENDMDL
MODEL 7
REMARK VINA RESULT:      -7.1      2.728      5.412
REMARK  6 active torsions:
REMARK  status: ('A' for Active; 'I' for Inactive)
REMARK    1  A    between atoms: C2_2  and  C3_3 
REMARK    2  A    between atoms: C3_3  and  C4_4 
REMARK    3  A    between atoms: C4_4  and  C5_5 
REMARK    4  A    between atoms: N2_7  and  C6_8 
REMARK    5  A    between atoms: C7_10  and  O1_11 
REMARK    6  A    between atoms: C9_14  and  C10_15 
ROOT
HETATM    1  C5  UNL     1      27.380   0.603  54.155  1.00  0.00     0.035 C 
HETATM    2  N1  UNL     1      26.169   0.340  54.602  1.00  0.00    -0.179 NA
HETATM    3  N2  UNL     1      25.228   0.892  53.732  1.00  0.00    -0.237 N 
HETATM    4  C9  UNL     1      25.908   2.039  53.200  1.00  0.00     0.151 C 
HETATM    5  C16 UNL     1      27.253   1.423  52.875  1.00  0.00     0.088 C 
ENDROOT
BRANCH   3   6
HETATM    6  C6  UNL     1      23.953   0.189  53.633  1.00  0.00     0.192 A 
HETATM    7  N3  UNL     1      23.016   0.270  52.906  1.00  0.00    -0.198 NA
HETATM    8  C7  UNL     1      21.938  -0.491  53.046  1.00  0.00     0.171 A 
HETATM    9  C8  UNL     1      21.860  -1.427  54.065  1.00  0.00     0.111 A 
HETATM   10  S1  UNL     1      23.486  -1.131  54.829  1.00  0.00    -0.058 SA
BRANCH   8  11
HETATM   11  O1  UNL     1      20.894  -0.298  52.116  1.00  0.00    -0.344 OA
HETATM   12  H8  UNL     1      21.013   0.212  51.249  1.00  0.00     0.219 HD
ENDBRANCH   8  11
ENDBRANCH   3   6
BRANCH   4  13
HETATM   13  C10 UNL     1      25.260   2.798  52.170  1.00  0.00    -0.033 A 
HETATM   14  C11 UNL     1      24.138   3.597  52.238  1.00  0.00     0.011 A 
HETATM   15  C12 UNL     1      23.566   4.268  51.181  1.00  0.00     0.019 A 
HETATM   16  C13 UNL     1      24.177   4.121  49.956  1.00  0.00     0.011 A 
HETATM   17 BR1  UNL     1      23.368   5.065  48.489  1.00  0.00    -0.051 Br
HETATM   18  C14 UNL     1      25.302   3.336  49.822  1.00  0.00     0.019 A 
HETATM   19  C15 UNL     1      25.843   2.676  50.919  1.00  0.00     0.011 A 
ENDBRANCH   4  13
BRANCH   1  20
HETATM   20  C4  UNL     1      28.671   0.204  54.769  1.00  0.00     0.057 C 
BRANCH  20  21
HETATM   21  C3  UNL     1      29.646  -0.268  53.708  1.00  0.00     0.011 C 
BRANCH  21  22
HETATM   22  C2  UNL     1      29.338  -1.658  53.356  1.00  0.00    -0.010 C 
HETATM   23  C1  UNL     1      28.735  -2.782  53.010  1.00  0.00     0.005 C 
ENDBRANCH  21  22
ENDBRANCH  20  21
ENDBRANCH   1  20
TORSDOF 6
ENDMDL
MODEL 8
REMARK VINA RESULT:      -7.0      3.640      5.684
REMARK  6 active torsions:
REMARK  status: ('A' for Active; 'I' for Inactive)
REMARK    1  A    between atoms: C2_2  and  C3_3 
REMARK    2  A    between atoms: C3_3  and  C4_4 
REMARK    3  A    between atoms: C4_4  and  C5_5 
REMARK    4  A    between atoms: N2_7  and  C6_8 
REMARK    5  A    between atoms: C7_10  and  O1_11 
REMARK    6  A    between atoms: C9_14  and  C10_15 
ROOT
HETATM    1  C5  UNL     1      25.565   0.454  52.522  1.00  0.00     0.035 C 
HETATM    2  N1  UNL     1      24.293   0.721  52.304  1.00  0.00    -0.179 NA
HETATM    3  N2  UNL     1      24.193   1.729  51.344  1.00  0.00    -0.237 N 
HETATM    4  C9  UNL     1      25.391   2.494  51.547  1.00  0.00     0.151 C 
HETATM    5  C16 UNL     1      26.407   1.375  51.644  1.00  0.00     0.088 C 
ENDROOT
BRANCH   3   6
HETATM    6  C6  UNL     1      23.006   1.695  50.496  1.00  0.00     0.192 A 
HETATM    7  N3  UNL     1      22.738   2.138  49.426  1.00  0.00    -0.198 NA
HETATM    8  C7  UNL     1      21.545   1.982  48.869  1.00  0.00     0.171 A 
HETATM    9  C8  UNL     1      20.544   1.283  49.524  1.00  0.00     0.111 A 
HETATM   10  S1  UNL     1      21.460   0.854  51.038  1.00  0.00    -0.058 SA
BRANCH   8  11
HETATM   11  O1  UNL     1      21.354   2.556  47.593  1.00  0.00    -0.344 OA
HETATM   12  H8  UNL     1      20.842   2.096  46.851  1.00  0.00     0.219 HD
ENDBRANCH   8  11
ENDBRANCH   3   6
BRANCH   4  13
HETATM   13  C10 UNL     1      25.674   3.570  50.641  1.00  0.00    -0.033 A 
HETATM   14  C11 UNL     1      26.658   3.676  49.681  1.00  0.00     0.011 A 
HETATM   15  C12 UNL     1      26.874   4.769  48.872  1.00  0.00     0.019 A 
HETATM   16  C13 UNL     1      26.027   5.840  49.046  1.00  0.00     0.011 A 
HETATM   17 BR1  UNL     1      26.339   7.359  47.909  1.00  0.00    -0.051 Br
HETATM   18  C14 UNL     1      25.022   5.796  49.989  1.00  0.00     0.019 A 
HETATM   19  C15 UNL     1      24.844   4.670  50.785  1.00  0.00     0.011 A 
ENDBRANCH   4  13
BRANCH   1  20
HETATM   20  C4  UNL     1      26.125  -0.549  53.461  1.00  0.00     0.057 C 
BRANCH  20  21
HETATM   21  C3  UNL     1      27.157  -1.417  52.767  1.00  0.00     0.011 C 
BRANCH  21  22
HETATM   22  C2  UNL     1      28.480  -1.142  53.338  1.00  0.00    -0.010 C 
HETATM   23  C1  UNL     1      29.739  -0.789  53.524  1.00  0.00     0.005 C 
ENDBRANCH  21  22
ENDBRANCH  20  21
ENDBRANCH   1  20
TORSDOF 6
ENDMDL
MODEL 9
REMARK VINA RESULT:      -7.0      3.863      6.623
REMARK  6 active torsions:
REMARK  status: ('A' for Active; 'I' for Inactive)
REMARK    1  A    between atoms: C2_2  and  C3_3 
REMARK    2  A    between atoms: C3_3  and  C4_4 
REMARK    3  A    between atoms: C4_4  and  C5_5 
REMARK    4  A    between atoms: N2_7  and  C6_8 
REMARK    5  A    between atoms: C7_10  and  O1_11 
REMARK    6  A    between atoms: C9_14  and  C10_15 
ROOT
HETATM    1  C5  UNL     1      25.083   0.026  53.341  1.00  0.00     0.035 C 
HETATM    2  N1  UNL     1      25.018   1.160  52.672  1.00  0.00    -0.179 NA
HETATM    3  N2  UNL     1      23.682   1.459  52.405  1.00  0.00    -0.237 N 
HETATM    4  C9  UNL     1      23.069   0.165  52.309  1.00  0.00     0.151 C 
HETATM    5  C16 UNL     1      23.665  -0.503  53.531  1.00  0.00     0.088 C 
ENDROOT
BRANCH   3   6
HETATM    6  C6  UNL     1      23.344   2.877  52.321  1.00  0.00     0.192 A 
HETATM    7  N3  UNL     1      23.961   3.885  52.445  1.00  0.00    -0.198 NA
HETATM    8  C7  UNL     1      23.399   5.082  52.340  1.00  0.00     0.171 A 
HETATM    9  C8  UNL     1      22.044   5.207  52.078  1.00  0.00     0.111 A 
HETATM   10  S1  UNL     1      21.622   3.439  51.989  1.00  0.00    -0.058 SA
BRANCH   8  11
HETATM   11  O1  UNL     1      24.243   6.202  52.507  1.00  0.00    -0.344 OA
HETATM   12  H8  UNL     1      24.678   6.686  51.732  1.00  0.00     0.219 HD
ENDBRANCH   8  11
ENDBRANCH   3   6
BRANCH   4  13
HETATM   13  C10 UNL     1      21.646   0.096  52.144  1.00  0.00    -0.033 A 
HETATM   14  C11 UNL     1      20.872   0.390  51.041  1.00  0.00     0.011 A 
HETATM   15  C12 UNL     1      19.498   0.322  50.983  1.00  0.00     0.019 A 
HETATM   16  C13 UNL     1      18.854  -0.076  52.134  1.00  0.00     0.011 A 
HETATM   17 BR1  UNL     1      16.936  -0.167  52.039  1.00  0.00    -0.051 Br
HETATM   18  C14 UNL     1      19.570  -0.385  53.270  1.00  0.00     0.019 A 
HETATM   19  C15 UNL     1      20.958  -0.300  53.280  1.00  0.00     0.011 A 
ENDBRANCH   4  13
BRANCH   1  20
HETATM   20  C4  UNL     1      26.305  -0.661  53.828  1.00  0.00     0.057 C 
BRANCH  20  21
HETATM   21  C3  UNL     1      27.276   0.335  54.433  1.00  0.00     0.011 C 
BRANCH  21  22
HETATM   22  C2  UNL     1      28.629   0.046  53.945  1.00  0.00    -0.010 C 
HETATM   23  C1  UNL     1      29.781  -0.528  53.647  1.00  0.00     0.005 C 
ENDBRANCH  21  22
ENDBRANCH  20  21
ENDBRANCH   1  20
TORSDOF 6
ENDMDL
