MODEL 1
REMARK VINA RESULT:      -9.7      0.000      0.000
REMARK  3 active torsions:
REMARK  status: ('A' for Active; 'I' for Inactive)
REMARK    1  A    between atoms: O1_2  and  C2_3 
REMARK    2  A    between atoms: C10_12  and  C11_13 
REMARK    3  A    between atoms: C12_14  and  C13_15 
ROOT
HETATM    1  C2  UNL     1      20.446   0.657  53.259  1.00  0.00     0.090 A 
HETATM    2  C3  UNL     1      19.556   0.420  52.320  1.00  0.00    -0.013 A 
HETATM    3  C4  UNL     1      18.284  -0.324  52.191  1.00  0.00     0.069 A 
HETATM    4  C5  UNL     1      17.801  -0.143  50.807  1.00  0.00    -0.021 A 
HETATM    5  C6  UNL     1      18.515   0.583  49.985  1.00  0.00     0.004 A 
HETATM    6  C7  UNL     1      19.768   1.284  50.201  1.00  0.00    -0.042 A 
HETATM    7  C8  UNL     1      20.338   1.220  51.401  1.00  0.00    -0.003 A 
HETATM    8  C9  UNL     1      21.345   1.488  52.427  1.00  0.00     0.314 A 
HETATM    9  N1  UNL     1      22.642   0.889  52.169  1.00  0.00     0.125 N 
HETATM   10  C10 UNL     1      23.627   1.418  53.081  1.00  0.00     0.344 C 
HETATM   11  N3  UNL     1      23.809   2.849  52.962  1.00  0.00    -0.367 N 
HETATM   12  C18 UNL     1      24.330   3.559  51.862  1.00  0.00     0.084 C 
HETATM   13  C19 UNL     1      23.858   3.691  50.637  1.00  0.00     0.028 C 
HETATM   14  C20 UNL     1      22.944   3.503  49.529  1.00  0.00     0.207 A 
HETATM   15  C21 UNL     1      22.226   3.435  48.430  1.00  0.00     0.176 A 
HETATM   16  F1  UNL     1      23.352   4.165  48.356  1.00  0.00    -0.368 F 
HETATM   17  C22 UNL     1      20.960   2.675  48.339  1.00  0.00     0.068 A 
HETATM   18 CL1  UNL     1      21.048   3.296  46.710  1.00  0.00    -0.169 Cl
HETATM   19  C23 UNL     1      20.729   2.116  49.533  1.00  0.00     0.114 C 
HETATM   20  H9  UNL     1      22.575  -0.137  52.345  1.00  0.00     0.320 HD
HETATM   21  H21 UNL     1      23.552   3.511  53.730  1.00  0.00     0.161 HD
ENDROOT
BRANCH  10  22
HETATM   22  C11 UNL     1      24.948   0.734  52.859  1.00  0.00     0.027 C 
HETATM   23  C12 UNL     1      25.829   0.696  53.828  1.00  0.00    -0.002 C 
BRANCH  23  24
HETATM   24  C13 UNL     1      27.176   0.104  53.884  1.00  0.00     0.109 C 
HETATM   25  C14 UNL     1      28.182   1.045  53.275  1.00  0.00     0.055 C 
HETATM   26  C15 UNL     1      29.594   0.578  53.436  1.00  0.00     0.170 C 
HETATM   27  O2  UNL     1      29.760  -0.457  54.334  1.00  0.00    -0.382 OA
HETATM   28  C16 UNL     1      29.804  -1.704  53.709  1.00  0.00     0.270 C 
HETATM   29  C17 UNL     1      28.420  -1.997  53.200  1.00  0.00     0.241 C 
HETATM   30  O3  UNL     1      28.254  -3.143  52.706  1.00  0.00    -0.271 OA
HETATM   31  N2  UNL     1      27.258  -1.174  53.186  1.00  0.00    -0.351 N 
HETATM   32  H20 UNL     1      26.408  -1.478  52.660  1.00  0.00     0.163 HD
ENDBRANCH  23  24
ENDBRANCH  10  22
BRANCH   1  33
HETATM   33  O1  UNL     1      20.794   0.427  54.598  1.00  0.00    -0.357 OA
HETATM   34  C1  UNL     1      21.506  -0.755  54.957  1.00  0.00     0.209 C 
ENDBRANCH   1  33
TORSDOF 3
ENDMDL
MODEL 2
REMARK VINA RESULT:      -9.5      4.267      8.416
REMARK  3 active torsions:
REMARK  status: ('A' for Active; 'I' for Inactive)
REMARK    1  A    between atoms: O1_2  and  C2_3 
REMARK    2  A    between atoms: C10_12  and  C11_13 
REMARK    3  A    between atoms: C12_14  and  C13_15 
ROOT
HETATM    1  C2  UNL     1      25.590   2.590  51.394  1.00  0.00     0.090 A 
HETATM    2  C3  UNL     1      26.009   1.442  51.879  1.00  0.00    -0.013 A 
HETATM    3  C4  UNL     1      27.288   0.707  51.979  1.00  0.00     0.069 A 
HETATM    4  C5  UNL     1      27.018  -0.562  52.684  1.00  0.00    -0.021 A 
HETATM    5  C6  UNL     1      25.793  -0.814  53.072  1.00  0.00     0.004 A 
HETATM    6  C7  UNL     1      24.584  -0.025  52.927  1.00  0.00    -0.042 A 
HETATM    7  C8  UNL     1      24.658   1.152  52.311  1.00  0.00    -0.003 A 
HETATM    8  C9  UNL     1      24.169   2.419  51.770  1.00  0.00     0.314 A 
HETATM    9  N1  UNL     1      23.265   2.283  50.643  1.00  0.00     0.125 N 
HETATM   10  C10 UNL     1      22.636   3.549  50.351  1.00  0.00     0.344 C 
HETATM   11  N3  UNL     1      21.844   4.062  51.448  1.00  0.00    -0.367 N 
HETATM   12  C18 UNL     1      20.665   3.510  51.986  1.00  0.00     0.084 C 
HETATM   13  C19 UNL     1      20.472   2.364  52.610  1.00  0.00     0.028 C 
HETATM   14  C20 UNL     1      20.819   1.079  53.185  1.00  0.00     0.207 A 
HETATM   15  C21 UNL     1      20.962  -0.098  53.750  1.00  0.00     0.176 A 
HETATM   16  F1  UNL     1      19.720   0.416  53.760  1.00  0.00    -0.368 F 
HETATM   17  C22 UNL     1      22.260  -0.805  53.826  1.00  0.00     0.068 A 
HETATM   18 CL1  UNL     1      21.242  -1.969  54.638  1.00  0.00    -0.169 Cl
HETATM   19  C23 UNL     1      23.182  -0.036  53.237  1.00  0.00     0.114 C 
HETATM   20  H9  UNL     1      23.820   2.011  49.802  1.00  0.00     0.320 HD
HETATM   21  H21 UNL     1      22.100   4.938  51.961  1.00  0.00     0.161 HD
ENDROOT
BRANCH  10  22
HETATM   22  C11 UNL     1      21.763   3.417  49.132  1.00  0.00     0.027 C 
HETATM   23  C12 UNL     1      22.242   3.738  47.955  1.00  0.00    -0.002 C 
BRANCH  23  24
HETATM   24  C13 UNL     1      21.619   3.706  46.621  1.00  0.00     0.109 C 
HETATM   25  C14 UNL     1      21.989   4.944  45.848  1.00  0.00     0.055 C 
HETATM   26  C15 UNL     1      21.520   4.908  44.427  1.00  0.00     0.170 C 
HETATM   27  O2  UNL     1      21.091   3.671  43.992  1.00  0.00    -0.382 OA
HETATM   28  C16 UNL     1      19.706   3.527  44.070  1.00  0.00     0.270 C 
HETATM   29  C17 UNL     1      19.346   3.450  45.528  1.00  0.00     0.241 C 
HETATM   30  O3  UNL     1      18.137   3.203  45.777  1.00  0.00    -0.271 OA
HETATM   31  N2  UNL     1      20.165   3.615  46.681  1.00  0.00    -0.351 N 
HETATM   32  H20 UNL     1      19.728   3.674  47.628  1.00  0.00     0.163 HD
ENDBRANCH  23  24
ENDBRANCH  10  22
BRANCH   1  33
HETATM   33  O1  UNL     1      25.970   3.767  50.731  1.00  0.00    -0.357 OA
HETATM   34  C1  UNL     1      26.505   3.701  49.411  1.00  0.00     0.209 C 
ENDBRANCH   1  33
TORSDOF 3
ENDMDL
MODEL 3
REMARK VINA RESULT:      -9.4      4.873      7.095
REMARK  3 active torsions:
REMARK  status: ('A' for Active; 'I' for Inactive)
REMARK    1  A    between atoms: O1_2  and  C2_3 
REMARK    2  A    between atoms: C10_12  and  C11_13 
REMARK    3  A    between atoms: C12_14  and  C13_15 
ROOT
HETATM    1  C2  UNL     1      21.560   2.005  50.678  1.00  0.00     0.090 A 
HETATM    2  C3  UNL     1      21.327   1.283  51.752  1.00  0.00    -0.013 A 
HETATM    3  C4  UNL     1      20.155   0.688  52.429  1.00  0.00     0.069 A 
HETATM    4  C5  UNL     1      20.646  -0.029  53.622  1.00  0.00    -0.021 A 
HETATM    5  C6  UNL     1      21.932  -0.024  53.871  1.00  0.00     0.004 A 
HETATM    6  C7  UNL     1      23.023   0.596  53.142  1.00  0.00    -0.042 A 
HETATM    7  C8  UNL     1      22.747   1.283  52.038  1.00  0.00    -0.003 A 
HETATM    8  C9  UNL     1      23.027   2.094  50.854  1.00  0.00     0.314 A 
HETATM    9  N1  UNL     1      23.513   3.432  51.141  1.00  0.00     0.125 N 
HETATM   10  C10 UNL     1      24.006   4.054  49.937  1.00  0.00     0.344 C 
HETATM   11  N3  UNL     1      25.111   3.341  49.333  1.00  0.00    -0.367 N 
HETATM   12  C18 UNL     1      26.404   3.157  49.862  1.00  0.00     0.084 C 
HETATM   13  C19 UNL     1      26.795   2.503  50.940  1.00  0.00     0.028 C 
HETATM   14  C20 UNL     1      26.661   1.705  52.142  1.00  0.00     0.207 A 
HETATM   15  C21 UNL     1      26.716   0.993  53.246  1.00  0.00     0.176 A 
HETATM   16  F1  UNL     1      27.890   1.447  52.775  1.00  0.00    -0.368 F 
HETATM   17  C22 UNL     1      25.518   0.419  53.897  1.00  0.00     0.068 A 
HETATM   18 CL1  UNL     1      26.750  -0.144  54.998  1.00  0.00    -0.169 Cl
HETATM   19  C23 UNL     1      24.450   0.760  53.166  1.00  0.00     0.114 C 
HETATM   20  H9  UNL     1      22.715   4.009  51.485  1.00  0.00     0.320 HD
HETATM   21  H21 UNL     1      25.033   2.875  48.399  1.00  0.00     0.161 HD
ENDROOT
BRANCH  10  22
HETATM   22  C11 UNL     1      24.433   5.467  50.229  1.00  0.00     0.027 C 
HETATM   23  C12 UNL     1      25.396   6.011  49.527  1.00  0.00    -0.002 C 
BRANCH  23  24
HETATM   24  C13 UNL     1      26.002   7.351  49.599  1.00  0.00     0.109 C 
HETATM   25  C14 UNL     1      25.230   8.316  48.738  1.00  0.00     0.055 C 
HETATM   26  C15 UNL     1      25.694   9.731  48.883  1.00  0.00     0.170 C 
HETATM   27  O2  UNL     1      26.532   9.956  49.956  1.00  0.00    -0.382 OA
HETATM   28  C16 UNL     1      27.879   9.936  49.596  1.00  0.00     0.270 C 
HETATM   29  C17 UNL     1      28.230   8.512  49.262  1.00  0.00     0.241 C 
HETATM   30  O3  UNL     1      29.447   8.294  49.024  1.00  0.00    -0.271 OA
HETATM   31  N2  UNL     1      27.396   7.362  49.170  1.00  0.00    -0.351 N 
HETATM   32  H20 UNL     1      27.776   6.470  48.783  1.00  0.00     0.163 HD
ENDBRANCH  23  24
ENDBRANCH  10  22
BRANCH   1  33
HETATM   33  O1  UNL     1      20.978   2.637  49.569  1.00  0.00    -0.357 OA
HETATM   34  C1  UNL     1      21.160   2.093  48.263  1.00  0.00     0.209 C 
ENDBRANCH   1  33
TORSDOF 3
ENDMDL
MODEL 4
REMARK VINA RESULT:      -9.2      3.085      4.991
REMARK  3 active torsions:
REMARK  status: ('A' for Active; 'I' for Inactive)
REMARK    1  A    between atoms: O1_2  and  C2_3 
REMARK    2  A    between atoms: C10_12  and  C11_13 
REMARK    3  A    between atoms: C12_14  and  C13_15 
ROOT
HETATM    1  C2  UNL     1      22.111   2.789  47.768  1.00  0.00     0.090 A 
HETATM    2  C3  UNL     1      22.040   3.651  46.777  1.00  0.00    -0.013 A 
HETATM    3  C4  UNL     1      21.673   3.632  45.345  1.00  0.00     0.069 A 
HETATM    4  C5  UNL     1      21.815   5.009  44.831  1.00  0.00    -0.021 A 
HETATM    5  C6  UNL     1      22.211   5.947  45.655  1.00  0.00     0.004 A 
HETATM    6  C7  UNL     1      22.554   5.873  47.063  1.00  0.00    -0.042 A 
HETATM    7  C8  UNL     1      22.478   4.696  47.679  1.00  0.00    -0.003 A 
HETATM    8  C9  UNL     1      22.573   3.753  48.792  1.00  0.00     0.314 A 
HETATM    9  N1  UNL     1      23.925   3.516  49.267  1.00  0.00     0.125 N 
HETATM   10  C10 UNL     1      23.897   2.792  50.514  1.00  0.00     0.344 C 
HETATM   11  N3  UNL     1      23.212   3.502  51.574  1.00  0.00    -0.367 N 
HETATM   12  C18 UNL     1      23.602   4.707  52.190  1.00  0.00     0.084 C 
HETATM   13  C19 UNL     1      23.716   5.921  51.685  1.00  0.00     0.028 C 
HETATM   14  C20 UNL     1      23.669   6.958  50.674  1.00  0.00     0.207 A 
HETATM   15  C21 UNL     1      23.681   8.010  49.886  1.00  0.00     0.176 A 
HETATM   16  F1  UNL     1      24.041   8.224  51.163  1.00  0.00    -0.368 F 
HETATM   17  C22 UNL     1      23.312   7.949  48.454  1.00  0.00     0.068 A 
HETATM   18 CL1  UNL     1      23.682   9.650  48.591  1.00  0.00    -0.169 Cl
HETATM   19  C23 UNL     1      22.990   6.683  48.166  1.00  0.00     0.114 C 
HETATM   20  H9  UNL     1      24.421   2.918  48.571  1.00  0.00     0.320 HD
HETATM   21  H21 UNL     1      22.318   3.155  51.992  1.00  0.00     0.161 HD
ENDROOT
BRANCH  10  22
HETATM   22  C11 UNL     1      25.301   2.482  50.957  1.00  0.00     0.027 C 
HETATM   23  C12 UNL     1      25.529   1.420  51.689  1.00  0.00    -0.002 C 
BRANCH  23  24
HETATM   24  C13 UNL     1      26.783   0.888  52.251  1.00  0.00     0.109 C 
HETATM   25  C14 UNL     1      26.532  -0.442  52.909  1.00  0.00     0.055 C 
HETATM   26  C15 UNL     1      27.787  -1.116  53.366  1.00  0.00     0.170 C 
HETATM   27  O2  UNL     1      28.951  -0.564  52.871  1.00  0.00    -0.382 OA
HETATM   28  C16 UNL     1      29.539   0.331  53.765  1.00  0.00     0.270 C 
HETATM   29  C17 UNL     1      28.657   1.547  53.825  1.00  0.00     0.241 C 
HETATM   30  O3  UNL     1      29.103   2.510  54.504  1.00  0.00    -0.271 OA
HETATM   31  N2  UNL     1      27.385   1.784  53.232  1.00  0.00    -0.351 N 
HETATM   32  H20 UNL     1      26.835   2.633  53.493  1.00  0.00     0.163 HD
ENDBRANCH  23  24
ENDBRANCH  10  22
BRANCH   1  33
HETATM   33  O1  UNL     1      21.924   1.451  48.144  1.00  0.00    -0.357 OA
HETATM   34  C1  UNL     1      20.979   1.120  49.159  1.00  0.00     0.209 C 
ENDBRANCH   1  33
TORSDOF 3
ENDMDL
MODEL 5
REMARK VINA RESULT:      -8.8      4.301      8.689
REMARK  3 active torsions:
REMARK  status: ('A' for Active; 'I' for Inactive)
REMARK    1  A    between atoms: O1_2  and  C2_3 
REMARK    2  A    between atoms: C10_12  and  C11_13 
REMARK    3  A    between atoms: C12_14  and  C13_15 
ROOT
HETATM    1  C2  UNL     1      22.792   4.109  50.508  1.00  0.00     0.090 A 
HETATM    2  C3  UNL     1      24.063   4.011  50.186  1.00  0.00    -0.013 A 
HETATM    3  C4  UNL     1      25.028   4.738  49.333  1.00  0.00     0.069 A 
HETATM    4  C5  UNL     1      26.334   4.060  49.460  1.00  0.00    -0.021 A 
HETATM    5  C6  UNL     1      26.422   3.012  50.240  1.00  0.00     0.004 A 
HETATM    6  C7  UNL     1      25.409   2.359  51.049  1.00  0.00    -0.042 A 
HETATM    7  C8  UNL     1      24.172   2.850  51.045  1.00  0.00    -0.003 A 
HETATM    8  C9  UNL     1      22.758   2.935  51.408  1.00  0.00     0.314 A 
HETATM    9  N1  UNL     1      21.945   1.834  50.923  1.00  0.00     0.125 N 
HETATM   10  C10 UNL     1      20.643   1.864  51.543  1.00  0.00     0.344 C 
HETATM   11  N3  UNL     1      20.690   1.731  52.983  1.00  0.00    -0.367 N 
HETATM   12  C18 UNL     1      21.106   0.609  53.727  1.00  0.00     0.084 C 
HETATM   13  C19 UNL     1      22.293   0.036  53.807  1.00  0.00     0.028 C 
HETATM   14  C20 UNL     1      23.701  -0.167  53.532  1.00  0.00     0.207 A 
HETATM   15  C21 UNL     1      24.967  -0.490  53.392  1.00  0.00     0.176 A 
HETATM   16  F1  UNL     1      24.246  -1.268  54.217  1.00  0.00    -0.368 F 
HETATM   17  C22 UNL     1      25.901   0.260  52.523  1.00  0.00     0.068 A 
HETATM   18 CL1  UNL     1      26.987  -0.961  53.137  1.00  0.00    -0.169 Cl
HETATM   19  C23 UNL     1      25.219   1.263  51.956  1.00  0.00     0.114 C 
HETATM   20  H9  UNL     1      21.803   1.953  49.896  1.00  0.00     0.320 HD
HETATM   21  H21 UNL     1      20.402   2.504  53.627  1.00  0.00     0.161 HD
ENDROOT
BRANCH  10  22
HETATM   22  C11 UNL     1      19.781   0.770  50.975  1.00  0.00     0.027 C 
HETATM   23  C12 UNL     1      18.482   0.930  50.922  1.00  0.00    -0.002 C 
BRANCH  23  24
HETATM   24  C13 UNL     1      17.420   0.038  50.425  1.00  0.00     0.109 C 
HETATM   25  C14 UNL     1      16.560   0.764  49.424  1.00  0.00     0.055 C 
HETATM   26  C15 UNL     1      15.556  -0.125  48.760  1.00  0.00     0.170 C 
HETATM   27  O2  UNL     1      15.764  -1.475  48.955  1.00  0.00    -0.382 OA
HETATM   28  C16 UNL     1      14.991  -1.991  49.995  1.00  0.00     0.270 C 
HETATM   29  C17 UNL     1      15.543  -1.436  51.279  1.00  0.00     0.241 C 
HETATM   30  O3  UNL     1      15.029  -1.893  52.334  1.00  0.00    -0.271 OA
HETATM   31  N2  UNL     1      16.563  -0.466  51.491  1.00  0.00    -0.351 N 
HETATM   32  H20 UNL     1      16.728  -0.082  52.449  1.00  0.00     0.163 HD
ENDBRANCH  23  24
ENDBRANCH  10  22
BRANCH   1  33
HETATM   33  O1  UNL     1      21.612   4.844  50.321  1.00  0.00    -0.357 OA
HETATM   34  C1  UNL     1      21.510   6.173  50.827  1.00  0.00     0.209 C 
ENDBRANCH   1  33
TORSDOF 3
ENDMDL
MODEL 6
REMARK VINA RESULT:      -8.8      3.042      8.238
REMARK  3 active torsions:
REMARK  status: ('A' for Active; 'I' for Inactive)
REMARK    1  A    between atoms: O1_2  and  C2_3 
REMARK    2  A    between atoms: C10_12  and  C11_13 
REMARK    3  A    between atoms: C12_14  and  C13_15 
ROOT
HETATM    1  C2  UNL     1      23.265  -0.502  53.130  1.00  0.00     0.090 A 
HETATM    2  C3  UNL     1      24.381   0.072  53.523  1.00  0.00    -0.013 A 
HETATM    3  C4  UNL     1      25.361  -0.094  54.618  1.00  0.00     0.069 A 
HETATM    4  C5  UNL     1      26.415   0.924  54.430  1.00  0.00    -0.021 A 
HETATM    5  C6  UNL     1      26.321   1.742  53.412  1.00  0.00     0.004 A 
HETATM    6  C7  UNL     1      25.309   1.833  52.375  1.00  0.00    -0.042 A 
HETATM    7  C8  UNL     1      24.287   0.982  52.401  1.00  0.00    -0.003 A 
HETATM    8  C9  UNL     1      23.040   0.365  51.952  1.00  0.00     0.314 A 
HETATM    9  N1  UNL     1      21.872   1.223  52.057  1.00  0.00     0.125 N 
HETATM   10  C10 UNL     1      20.757   0.635  51.356  1.00  0.00     0.344 C 
HETATM   11  N3  UNL     1      21.000   0.451  49.942  1.00  0.00    -0.367 N 
HETATM   12  C18 UNL     1      21.188   1.451  48.967  1.00  0.00     0.084 C 
HETATM   13  C19 UNL     1      22.152   2.343  48.841  1.00  0.00     0.028 C 
HETATM   14  C20 UNL     1      23.374   3.047  49.175  1.00  0.00     0.207 A 
HETATM   15  C21 UNL     1      24.450   3.785  49.333  1.00  0.00     0.176 A 
HETATM   16  F1  UNL     1      23.680   4.082  48.272  1.00  0.00    -0.368 F 
HETATM   17  C22 UNL     1      25.405   3.592  50.447  1.00  0.00     0.068 A 
HETATM   18 CL1  UNL     1      26.173   4.929  49.629  1.00  0.00    -0.169 Cl
HETATM   19  C23 UNL     1      24.961   2.577  51.197  1.00  0.00     0.114 C 
HETATM   20  H9  UNL     1      21.603   1.297  53.062  1.00  0.00     0.320 HD
HETATM   21  H21 UNL     1      21.060  -0.497  49.503  1.00  0.00     0.161 HD
ENDROOT
BRANCH  10  22
HETATM   22  C11 UNL     1      19.532   1.489  51.538  1.00  0.00     0.027 C 
HETATM   23  C12 UNL     1      18.372   1.059  51.105  1.00  0.00    -0.002 C 
BRANCH  23  24
HETATM   24  C13 UNL     1      17.037   1.679  51.151  1.00  0.00     0.109 C 
HETATM   25  C14 UNL     1      16.534   1.931  49.755  1.00  0.00     0.055 C 
HETATM   26  C15 UNL     1      15.119   2.415  49.720  1.00  0.00     0.170 C 
HETATM   27  O2  UNL     1      14.435   2.283  50.911  1.00  0.00    -0.382 OA
HETATM   28  C16 UNL     1      14.435   3.460  51.660  1.00  0.00     0.270 C 
HETATM   29  C17 UNL     1      15.836   3.668  52.165  1.00  0.00     0.241 C 
HETATM   30  O3  UNL     1      15.989   4.632  52.961  1.00  0.00    -0.271 OA
HETATM   31  N2  UNL     1      17.026   2.941  51.882  1.00  0.00    -0.351 N 
HETATM   32  H20 UNL     1      17.951   3.306  52.202  1.00  0.00     0.163 HD
ENDBRANCH  23  24
ENDBRANCH  10  22
BRANCH   1  33
HETATM   33  O1  UNL     1      22.336  -1.517  53.401  1.00  0.00    -0.357 OA
HETATM   34  C1  UNL     1      21.503  -1.432  54.556  1.00  0.00     0.209 C 
ENDBRANCH   1  33
TORSDOF 3
ENDMDL
MODEL 7
REMARK VINA RESULT:      -8.4     11.091     13.129
REMARK  3 active torsions:
REMARK  status: ('A' for Active; 'I' for Inactive)
REMARK    1  A    between atoms: O1_2  and  C2_3 
REMARK    2  A    between atoms: C10_12  and  C11_13 
REMARK    3  A    between atoms: C12_14  and  C13_15 
ROOT
HETATM    1  C2  UNL     1      30.966   5.170  47.833  1.00  0.00     0.090 A 
HETATM    2  C3  UNL     1      29.777   5.693  48.036  1.00  0.00    -0.013 A 
HETATM    3  C4  UNL     1      28.432   5.216  48.422  1.00  0.00     0.069 A 
HETATM    4  C5  UNL     1      27.541   6.392  48.474  1.00  0.00    -0.021 A 
HETATM    5  C6  UNL     1      28.040   7.569  48.193  1.00  0.00     0.004 A 
HETATM    6  C7  UNL     1      29.390   7.948  47.818  1.00  0.00    -0.042 A 
HETATM    7  C8  UNL     1      30.319   7.000  47.726  1.00  0.00    -0.003 A 
HETATM    8  C9  UNL     1      31.647   6.437  47.485  1.00  0.00     0.314 A 
HETATM    9  N1  UNL     1      32.093   6.516  46.106  1.00  0.00     0.125 N 
HETATM   10  C10 UNL     1      33.495   6.186  46.015  1.00  0.00     0.344 C 
HETATM   11  N3  UNL     1      34.345   7.082  46.769  1.00  0.00    -0.367 N 
HETATM   12  C18 UNL     1      34.571   8.452  46.533  1.00  0.00     0.084 C 
HETATM   13  C19 UNL     1      33.736   9.473  46.592  1.00  0.00     0.028 C 
HETATM   14  C20 UNL     1      32.476  10.160  46.794  1.00  0.00     0.207 A 
HETATM   15  C21 UNL     1      31.422  10.931  46.937  1.00  0.00     0.176 A 
HETATM   16  F1  UNL     1      32.563  11.548  46.586  1.00  0.00    -0.368 F 
HETATM   17  C22 UNL     1      30.089  10.414  47.319  1.00  0.00     0.068 A 
HETATM   18 CL1  UNL     1      29.716  12.114  47.177  1.00  0.00    -0.169 Cl
HETATM   19  C23 UNL     1      30.191   9.089  47.475  1.00  0.00     0.114 C 
HETATM   20  H9  UNL     1      31.571   5.808  45.546  1.00  0.00     0.320 HD
HETATM   21  H21 UNL     1      34.893   6.764  47.602  1.00  0.00     0.161 HD
ENDROOT
BRANCH  10  22
HETATM   22  C11 UNL     1      33.929   6.192  44.574  1.00  0.00     0.027 C 
HETATM   23  C12 UNL     1      33.811   5.101  43.858  1.00  0.00    -0.002 C 
BRANCH  23  24
HETATM   24  C13 UNL     1      34.150   4.832  42.451  1.00  0.00     0.109 C 
HETATM   25  C14 UNL     1      34.258   6.124  41.687  1.00  0.00     0.055 C 
HETATM   26  C15 UNL     1      34.752   5.938  40.286  1.00  0.00     0.170 C 
HETATM   27  O2  UNL     1      35.283   4.692  40.024  1.00  0.00    -0.382 OA
HETATM   28  C16 UNL     1      34.362   3.834  39.424  1.00  0.00     0.270 C 
HETATM   29  C17 UNL     1      33.334   3.485  40.464  1.00  0.00     0.241 C 
HETATM   30  O3  UNL     1      32.484   2.621  40.121  1.00  0.00    -0.271 OA
HETATM   31  N2  UNL     1      33.168   3.982  41.788  1.00  0.00    -0.351 N 
HETATM   32  H20 UNL     1      32.310   3.742  42.333  1.00  0.00     0.163 HD
ENDBRANCH  23  24
ENDBRANCH  10  22
BRANCH   1  33
HETATM   33  O1  UNL     1      31.717   3.985  47.832  1.00  0.00    -0.357 OA
HETATM   34  C1  UNL     1      31.668   3.110  46.708  1.00  0.00     0.209 C 
ENDBRANCH   1  33
TORSDOF 3
ENDMDL
MODEL 8
REMARK VINA RESULT:      -8.3      4.744      6.522
REMARK  3 active torsions:
REMARK  status: ('A' for Active; 'I' for Inactive)
REMARK    1  A    between atoms: O1_2  and  C2_3 
REMARK    2  A    between atoms: C10_12  and  C11_13 
REMARK    3  A    between atoms: C12_14  and  C13_15 
ROOT
HETATM    1  C2  UNL     1      23.707   2.575  52.931  1.00  0.00     0.090 A 
HETATM    2  C3  UNL     1      22.960   1.519  52.694  1.00  0.00    -0.013 A 
HETATM    3  C4  UNL     1      22.970   0.082  53.040  1.00  0.00     0.069 A 
HETATM    4  C5  UNL     1      21.777  -0.533  52.424  1.00  0.00    -0.021 A 
HETATM    5  C6  UNL     1      20.970   0.228  51.728  1.00  0.00     0.004 A 
HETATM    6  C7  UNL     1      21.041   1.648  51.436  1.00  0.00    -0.042 A 
HETATM    7  C8  UNL     1      22.062   2.351  51.921  1.00  0.00    -0.003 A 
HETATM    8  C9  UNL     1      22.882   3.536  52.164  1.00  0.00     0.314 A 
HETATM    9  N1  UNL     1      23.534   4.070  50.981  1.00  0.00     0.125 N 
HETATM   10  C10 UNL     1      24.095   5.369  51.264  1.00  0.00     0.344 C 
HETATM   11  N3  UNL     1      23.106   6.347  51.660  1.00  0.00    -0.367 N 
HETATM   12  C18 UNL     1      22.065   6.880  50.875  1.00  0.00     0.084 C 
HETATM   13  C19 UNL     1      21.013   6.287  50.344  1.00  0.00     0.028 C 
HETATM   14  C20 UNL     1      20.113   5.198  50.022  1.00  0.00     0.207 A 
HETATM   15  C21 UNL     1      19.201   4.331  49.642  1.00  0.00     0.176 A 
HETATM   16  F1  UNL     1      19.020   5.598  49.232  1.00  0.00    -0.368 F 
HETATM   17  C22 UNL     1      19.249   2.897  50.004  1.00  0.00     0.068 A 
HETATM   18 CL1  UNL     1      17.779   2.914  49.064  1.00  0.00    -0.169 Cl
HETATM   19  C23 UNL     1      20.344   2.698  50.748  1.00  0.00     0.114 C 
HETATM   20  H9  UNL     1      24.324   3.439  50.723  1.00  0.00     0.320 HD
HETATM   21  H21 UNL     1      23.083   6.762  52.621  1.00  0.00     0.161 HD
ENDROOT
BRANCH  10  22
HETATM   22  C11 UNL     1      24.837   5.878  50.058  1.00  0.00     0.027 C 
HETATM   23  C12 UNL     1      25.705   6.850  50.194  1.00  0.00    -0.002 C 
BRANCH  23  24
HETATM   24  C13 UNL     1      26.555   7.528  49.202  1.00  0.00     0.109 C 
HETATM   25  C14 UNL     1      27.190   6.516  48.285  1.00  0.00     0.055 C 
HETATM   26  C15 UNL     1      27.945   7.142  47.154  1.00  0.00     0.170 C 
HETATM   27  O2  UNL     1      27.706   8.490  46.977  1.00  0.00    -0.382 OA
HETATM   28  C16 UNL     1      28.675   9.288  47.585  1.00  0.00     0.270 C 
HETATM   29  C17 UNL     1      28.487   9.165  49.072  1.00  0.00     0.241 C 
HETATM   30  O3  UNL     1      29.212   9.916  49.775  1.00  0.00    -0.271 OA
HETATM   31  N2  UNL     1      27.613   8.323  49.816  1.00  0.00    -0.351 N 
HETATM   32  H20 UNL     1      27.710   8.255  50.854  1.00  0.00     0.163 HD
ENDBRANCH  23  24
ENDBRANCH  10  22
BRANCH   1  33
HETATM   33  O1  UNL     1      24.861   3.048  53.574  1.00  0.00    -0.357 OA
HETATM   34  C1  UNL     1      25.994   2.195  53.725  1.00  0.00     0.209 C 
ENDBRANCH   1  33
TORSDOF 3
ENDMDL
MODEL 9
REMARK VINA RESULT:      -8.1      4.343      6.549
REMARK  3 active torsions:
REMARK  status: ('A' for Active; 'I' for Inactive)
REMARK    1  A    between atoms: O1_2  and  C2_3 
REMARK    2  A    between atoms: C10_12  and  C11_13 
REMARK    3  A    between atoms: C12_14  and  C13_15 
ROOT
HETATM    1  C2  UNL     1      21.971   5.097  47.146  1.00  0.00     0.090 A 
HETATM    2  C3  UNL     1      22.194   5.803  46.060  1.00  0.00    -0.013 A 
HETATM    3  C4  UNL     1      21.795   5.763  44.636  1.00  0.00     0.069 A 
HETATM    4  C5  UNL     1      22.427   6.915  43.963  1.00  0.00    -0.021 A 
HETATM    5  C6  UNL     1      23.179   7.719  44.673  1.00  0.00     0.004 A 
HETATM    6  C7  UNL     1      23.520   7.680  46.083  1.00  0.00    -0.042 A 
HETATM    7  C8  UNL     1      23.027   6.699  46.834  1.00  0.00    -0.003 A 
HETATM    8  C9  UNL     1      22.800   5.922  48.052  1.00  0.00     0.314 A 
HETATM    9  N1  UNL     1      23.979   5.246  48.564  1.00  0.00     0.125 N 
HETATM   10  C10 UNL     1      23.726   4.734  49.888  1.00  0.00     0.344 C 
HETATM   11  N3  UNL     1      23.400   5.765  50.850  1.00  0.00    -0.367 N 
HETATM   12  C18 UNL     1      24.239   6.793  51.322  1.00  0.00     0.084 C 
HETATM   13  C19 UNL     1      24.784   7.808  50.677  1.00  0.00     0.028 C 
HETATM   14  C20 UNL     1      25.095   8.663  49.550  1.00  0.00     0.207 A 
HETATM   15  C21 UNL     1      25.474   9.535  48.642  1.00  0.00     0.176 A 
HETATM   16  F1  UNL     1      25.936   9.739  49.887  1.00  0.00    -0.368 F 
HETATM   17  C22 UNL     1      25.057   9.457  47.224  1.00  0.00     0.068 A 
HETATM   18 CL1  UNL     1      26.047  10.893  47.161  1.00  0.00    -0.169 Cl
HETATM   19  C23 UNL     1      24.270   8.384  47.086  1.00  0.00     0.114 C 
HETATM   20  H9  UNL     1      24.186   4.429  47.949  1.00  0.00     0.320 HD
HETATM   21  H21 UNL     1      22.457   5.834  51.298  1.00  0.00     0.161 HD
ENDROOT
BRANCH  10  22
HETATM   22  C11 UNL     1      24.924   3.966  50.377  1.00  0.00     0.027 C 
HETATM   23  C12 UNL     1      24.751   2.892  51.108  1.00  0.00    -0.002 C 
BRANCH  23  24
HETATM   24  C13 UNL     1      25.728   1.967  51.708  1.00  0.00     0.109 C 
HETATM   25  C14 UNL     1      25.019   0.783  52.309  1.00  0.00     0.055 C 
HETATM   26  C15 UNL     1      25.957  -0.275  52.799  1.00  0.00     0.170 C 
HETATM   27  O2  UNL     1      27.263  -0.128  52.378  1.00  0.00    -0.382 OA
HETATM   28  C16 UNL     1      28.062   0.508  53.327  1.00  0.00     0.270 C 
HETATM   29  C17 UNL     1      27.626   1.946  53.388  1.00  0.00     0.241 C 
HETATM   30  O3  UNL     1      28.325   2.696  54.119  1.00  0.00    -0.271 OA
HETATM   31  N2  UNL     1      26.536   2.598  52.745  1.00  0.00    -0.351 N 
HETATM   32  H20 UNL     1      26.282   3.576  53.009  1.00  0.00     0.163 HD
ENDBRANCH  23  24
ENDBRANCH  10  22
BRANCH   1  33
HETATM   33  O1  UNL     1      21.306   3.981  47.677  1.00  0.00    -0.357 OA
HETATM   34  C1  UNL     1      20.248   4.161  48.616  1.00  0.00     0.209 C 
ENDBRANCH   1  33
TORSDOF 3
ENDMDL
