MODEL 1
REMARK VINA RESULT:      -8.7      0.000      0.000
REMARK  10 active torsions:
REMARK  status: ('A' for Active; 'I' for Inactive)
REMARK    1  A    between atoms: N1_2  and  N2_3 
REMARK    2  A    between atoms: C2_4  and  C3_5 
REMARK    3  A    between atoms: C3_5  and  C4_6 
REMARK    4  A    between atoms: C3_5  and  C13_16 
REMARK    5  A    between atoms: C5_7  and  N3_8 
REMARK    6  A    between atoms: C5_7  and  C6_9 
REMARK    7  A    between atoms: C6_9  and  C7_10 
REMARK    8  A    between atoms: C13_16  and  C14_17 
REMARK    9  A    between atoms: C14_17  and  N4_18 
REMARK   10  A    between atoms: C14_17  and  C15_19 
ROOT
HETATM    1  C3  UNL     1      27.026   1.244  52.501  1.00  0.00     0.077 C 
ENDROOT
BRANCH   1   2
HETATM    2  C2  UNL     1      27.619   2.295  53.370  1.00  0.00     0.123 C 
HETATM    3  N2  UNL     1      28.778   2.190  53.914  1.00  0.00    -0.196 NA
BRANCH   3   4
HETATM    4  N1  UNL     1      29.557   1.050  53.709  1.00  0.00    -0.319 N 
HETATM    5  C1  UNL     1      29.906  -0.361  53.635  1.00  0.00     0.169 C 
HETATM    6  H4  UNL     1      30.297   1.719  53.479  1.00  0.00     0.181 HD
ENDBRANCH   3   4
ENDBRANCH   1   2
BRANCH   1   7
HETATM    7  C4  UNL     1      26.401   1.884  51.286  1.00  0.00     0.012 C 
HETATM    8  C5  UNL     1      25.514   2.855  51.167  1.00  0.00     0.004 C 
BRANCH   8   9
HETATM    9  N3  UNL     1      24.922   3.548  52.246  1.00  0.00    -0.402 N 
HETATM   10  H8  UNL     1      24.891   4.453  52.751  1.00  0.00     0.156 HD
HETATM   11  H9  UNL     1      24.208   3.123  52.902  1.00  0.00     0.156 HD
ENDBRANCH   8   9
BRANCH   8  12
HETATM   12  C6  UNL     1      25.117   3.237  49.798  1.00  0.00     0.094 C 
BRANCH  12  13
HETATM   13  C7  UNL     1      25.935   4.410  49.358  1.00  0.00    -0.053 A 
HETATM   14  C8  UNL     1      25.415   5.684  49.366  1.00  0.00     0.007 A 
HETATM   15  C9  UNL     1      26.230   6.714  48.946  1.00  0.00     0.001 A 
HETATM   16  C10 UNL     1      27.533   6.530  48.521  1.00  0.00     0.000 A 
HETATM   17  C11 UNL     1      28.033   5.252  48.521  1.00  0.00     0.001 A 
HETATM   18  C12 UNL     1      27.227   4.219  48.937  1.00  0.00     0.007 A 
ENDBRANCH  12  13
ENDBRANCH   8  12
ENDBRANCH   1   7
BRANCH   1  19
HETATM   19  C13 UNL     1      26.041   0.378  53.127  1.00  0.00     0.017 C 
BRANCH  19  20
HETATM   20  C14 UNL     1      25.200  -0.233  53.985  1.00  0.00     0.033 C 
BRANCH  20  21
HETATM   21  N4  UNL     1      25.709  -0.865  55.201  1.00  0.00    -0.399 N 
HETATM   22  H18 UNL     1      25.366  -0.828  56.185  1.00  0.00     0.156 HD
HETATM   23  H19 UNL     1      26.557  -1.423  54.939  1.00  0.00     0.156 HD
ENDBRANCH  20  21
BRANCH  20  24
HETATM   24  C15 UNL     1      23.745  -0.369  53.848  1.00  0.00    -0.010 A 
HETATM   25  C16 UNL     1      23.063   0.199  52.793  1.00  0.00     0.015 A 
HETATM   26  C17 UNL     1      21.708   0.137  52.575  1.00  0.00     0.024 A 
HETATM   27  C18 UNL     1      20.928  -0.538  53.460  1.00  0.00     0.034 A 
HETATM   28 CL1  UNL     1      19.216  -0.585  53.135  1.00  0.00    -0.084 Cl
HETATM   29  C19 UNL     1      21.536  -1.131  54.538  1.00  0.00     0.024 A 
HETATM   30  C20 UNL     1      22.881  -1.030  54.692  1.00  0.00     0.015 A 
ENDBRANCH  20  24
ENDBRANCH  19  20
ENDBRANCH   1  19
TORSDOF 10
ENDMDL
MODEL 2
REMARK VINA RESULT:      -8.1      2.804      5.883
REMARK  10 active torsions:
REMARK  status: ('A' for Active; 'I' for Inactive)
REMARK    1  A    between atoms: N1_2  and  N2_3 
REMARK    2  A    between atoms: C2_4  and  C3_5 
REMARK    3  A    between atoms: C3_5  and  C4_6 
REMARK    4  A    between atoms: C3_5  and  C13_16 
REMARK    5  A    between atoms: C5_7  and  N3_8 
REMARK    6  A    between atoms: C5_7  and  C6_9 
REMARK    7  A    between atoms: C6_9  and  C7_10 
REMARK    8  A    between atoms: C13_16  and  C14_17 
REMARK    9  A    between atoms: C14_17  and  N4_18 
REMARK   10  A    between atoms: C14_17  and  C15_19 
ROOT
HETATM    1  C3  UNL     1      25.907  -0.251  53.338  1.00  0.00     0.077 C 
ENDROOT
BRANCH   1   2
HETATM    2  C2  UNL     1      26.615  -1.456  52.832  1.00  0.00     0.123 C 
HETATM    3  N2  UNL     1      27.820  -1.758  53.160  1.00  0.00    -0.196 NA
BRANCH   3   4
HETATM    4  N1  UNL     1      28.541  -0.943  54.036  1.00  0.00    -0.319 N 
HETATM    5  C1  UNL     1      29.000   0.271  54.694  1.00  0.00     0.169 C 
HETATM    6  H4  UNL     1      28.961  -1.823  54.349  1.00  0.00     0.181 HD
ENDBRANCH   3   4
ENDBRANCH   1   2
BRANCH   1   7
HETATM    7  C4  UNL     1      24.512  -0.627  53.771  1.00  0.00     0.012 C 
HETATM    8  C5  UNL     1      24.048  -1.107  54.911  1.00  0.00     0.004 C 
BRANCH   8   9
HETATM    9  N3  UNL     1      24.833  -1.387  56.050  1.00  0.00    -0.402 N 
HETATM   10  H8  UNL     1      25.263  -0.977  56.900  1.00  0.00     0.156 HD
HETATM   11  H9  UNL     1      25.220  -2.346  56.281  1.00  0.00     0.156 HD
ENDBRANCH   8   9
BRANCH   8  12
HETATM   12  C6  UNL     1      22.597  -1.365  54.989  1.00  0.00     0.094 C 
BRANCH  12  13
HETATM   13  C7  UNL     1      21.891  -0.519  53.977  1.00  0.00    -0.053 A 
HETATM   14  C8  UNL     1      21.043   0.493  54.361  1.00  0.00     0.007 A 
HETATM   15  C9  UNL     1      20.428   1.229  53.370  1.00  0.00     0.001 A 
HETATM   16  C10 UNL     1      20.622   1.000  52.020  1.00  0.00     0.000 A 
HETATM   17  C11 UNL     1      21.472  -0.014  51.657  1.00  0.00     0.001 A 
HETATM   18  C12 UNL     1      22.088  -0.753  52.639  1.00  0.00     0.007 A 
ENDBRANCH  12  13
ENDBRANCH   8  12
ENDBRANCH   1   7
BRANCH   1  19
HETATM   19  C13 UNL     1      25.820   0.873  52.421  1.00  0.00     0.017 C 
BRANCH  19  20
HETATM   20  C14 UNL     1      25.683   2.093  51.863  1.00  0.00     0.033 C 
BRANCH  20  21
HETATM   21  N4  UNL     1      26.858   2.900  51.543  1.00  0.00    -0.399 N 
HETATM   22  H18 UNL     1      27.742   3.060  52.072  1.00  0.00     0.156 HD
HETATM   23  H19 UNL     1      26.690   3.353  50.612  1.00  0.00     0.156 HD
ENDBRANCH  20  21
BRANCH  20  24
HETATM   24  C15 UNL     1      24.426   2.770  51.521  1.00  0.00    -0.010 A 
HETATM   25  C16 UNL     1      23.710   3.482  52.461  1.00  0.00     0.015 A 
HETATM   26  C17 UNL     1      22.526   4.144  52.248  1.00  0.00     0.024 A 
HETATM   27  C18 UNL     1      21.971   4.121  51.008  1.00  0.00     0.034 A 
HETATM   28 CL1  UNL     1      20.468   4.978  50.793  1.00  0.00    -0.084 Cl
HETATM   29  C19 UNL     1      22.626   3.431  50.018  1.00  0.00     0.024 A 
HETATM   30  C20 UNL     1      23.794   2.798  50.298  1.00  0.00     0.015 A 
ENDBRANCH  20  24
ENDBRANCH  19  20
ENDBRANCH   1  19
TORSDOF 10
ENDMDL
MODEL 3
REMARK VINA RESULT:      -8.0      1.854      3.084
REMARK  10 active torsions:
REMARK  status: ('A' for Active; 'I' for Inactive)
REMARK    1  A    between atoms: N1_2  and  N2_3 
REMARK    2  A    between atoms: C2_4  and  C3_5 
REMARK    3  A    between atoms: C3_5  and  C4_6 
REMARK    4  A    between atoms: C3_5  and  C13_16 
REMARK    5  A    between atoms: C5_7  and  N3_8 
REMARK    6  A    between atoms: C5_7  and  C6_9 
REMARK    7  A    between atoms: C6_9  and  C7_10 
REMARK    8  A    between atoms: C13_16  and  C14_17 
REMARK    9  A    between atoms: C14_17  and  N4_18 
REMARK   10  A    between atoms: C14_17  and  C15_19 
ROOT
HETATM    1  C3  UNL     1      26.762   1.223  52.321  1.00  0.00     0.077 C 
ENDROOT
BRANCH   1   2
HETATM    2  C2  UNL     1      27.646   2.082  53.151  1.00  0.00     0.123 C 
HETATM    3  N2  UNL     1      28.769   1.684  53.631  1.00  0.00    -0.196 NA
BRANCH   3   4
HETATM    4  N1  UNL     1      29.224   0.386  53.388  1.00  0.00    -0.319 N 
HETATM    5  C1  UNL     1      29.800  -0.923  53.655  1.00  0.00     0.169 C 
HETATM    6  H4  UNL     1      28.931   0.572  52.424  1.00  0.00     0.181 HD
ENDBRANCH   3   4
ENDBRANCH   1   2
BRANCH   1   7
HETATM    7  C4  UNL     1      25.911   2.088  51.424  1.00  0.00     0.012 C 
HETATM    8  C5  UNL     1      24.978   2.981  51.699  1.00  0.00     0.004 C 
BRANCH   8   9
HETATM    9  N3  UNL     1      24.554   3.336  52.998  1.00  0.00    -0.402 N 
HETATM   10  H8  UNL     1      24.322   2.968  53.940  1.00  0.00     0.156 HD
HETATM   11  H9  UNL     1      24.344   4.328  53.302  1.00  0.00     0.156 HD
ENDBRANCH   8   9
BRANCH   8  12
HETATM   12  C6  UNL     1      24.336   3.655  50.553  1.00  0.00     0.094 C 
BRANCH  12  13
HETATM   13  C7  UNL     1      22.983   3.059  50.327  1.00  0.00    -0.053 A 
HETATM   14  C8  UNL     1      21.872   3.547  50.976  1.00  0.00     0.007 A 
HETATM   15  C9  UNL     1      20.659   2.945  50.716  1.00  0.00     0.001 A 
HETATM   16  C10 UNL     1      20.506   1.884  49.842  1.00  0.00     0.000 A 
HETATM   17  C11 UNL     1      21.626   1.413  49.204  1.00  0.00     0.001 A 
HETATM   18  C12 UNL     1      22.840   2.007  49.458  1.00  0.00     0.007 A 
ENDBRANCH  12  13
ENDBRANCH   8  12
ENDBRANCH   1   7
BRANCH   1  19
HETATM   19  C13 UNL     1      25.892   0.311  53.045  1.00  0.00     0.017 C 
BRANCH  19  20
HETATM   20  C14 UNL     1      25.092  -0.282  53.954  1.00  0.00     0.033 C 
BRANCH  20  21
HETATM   21  N4  UNL     1      25.653  -0.854  55.176  1.00  0.00    -0.399 N 
HETATM   22  H18 UNL     1      26.525  -1.403  55.337  1.00  0.00     0.156 HD
HETATM   23  H19 UNL     1      25.001  -0.622  55.965  1.00  0.00     0.156 HD
ENDBRANCH  20  21
BRANCH  20  24
HETATM   24  C15 UNL     1      23.637  -0.454  53.870  1.00  0.00    -0.010 A 
HETATM   25  C16 UNL     1      22.910   0.051  52.812  1.00  0.00     0.015 A 
HETATM   26  C17 UNL     1      21.551  -0.048  52.640  1.00  0.00     0.024 A 
HETATM   27  C18 UNL     1      20.813  -0.697  53.579  1.00  0.00     0.034 A 
HETATM   28 CL1  UNL     1      19.094  -0.794  53.311  1.00  0.00    -0.084 Cl
HETATM   29  C19 UNL     1      21.467  -1.227  54.664  1.00  0.00     0.024 A 
HETATM   30  C20 UNL     1      22.814  -1.092  54.769  1.00  0.00     0.015 A 
ENDBRANCH  20  24
ENDBRANCH  19  20
ENDBRANCH   1  19
TORSDOF 10
ENDMDL
MODEL 4
REMARK VINA RESULT:      -8.0      1.702      2.599
REMARK  10 active torsions:
REMARK  status: ('A' for Active; 'I' for Inactive)
REMARK    1  A    between atoms: N1_2  and  N2_3 
REMARK    2  A    between atoms: C2_4  and  C3_5 
REMARK    3  A    between atoms: C3_5  and  C4_6 
REMARK    4  A    between atoms: C3_5  and  C13_16 
REMARK    5  A    between atoms: C5_7  and  N3_8 
REMARK    6  A    between atoms: C5_7  and  C6_9 
REMARK    7  A    between atoms: C6_9  and  C7_10 
REMARK    8  A    between atoms: C13_16  and  C14_17 
REMARK    9  A    between atoms: C14_17  and  N4_18 
REMARK   10  A    between atoms: C14_17  and  C15_19 
ROOT
HETATM    1  C3  UNL     1      25.780  -0.242  53.366  1.00  0.00     0.077 C 
ENDROOT
BRANCH   1   2
HETATM    2  C2  UNL     1      26.423   0.218  54.624  1.00  0.00     0.123 C 
HETATM    3  N2  UNL     1      27.622  -0.097  54.961  1.00  0.00    -0.196 NA
BRANCH   3   4
HETATM    4  N1  UNL     1      28.399  -0.911  54.135  1.00  0.00    -0.319 N 
HETATM    5  C1  UNL     1      29.584  -1.437  53.473  1.00  0.00     0.169 C 
HETATM    6  H4  UNL     1      27.509  -1.370  53.919  1.00  0.00     0.181 HD
ENDBRANCH   3   4
ENDBRANCH   1   2
BRANCH   1   7
HETATM    7  C4  UNL     1      26.167   0.675  52.233  1.00  0.00     0.012 C 
HETATM    8  C5  UNL     1      26.071   1.985  52.095  1.00  0.00     0.004 C 
BRANCH   8   9
HETATM    9  N3  UNL     1      25.541   2.864  53.064  1.00  0.00    -0.402 N 
HETATM   10  H8  UNL     1      25.314   3.855  53.269  1.00  0.00     0.156 HD
HETATM   11  H9  UNL     1      25.190   2.556  54.014  1.00  0.00     0.156 HD
ENDBRANCH   8   9
BRANCH   8  12
HETATM   12  C6  UNL     1      26.559   2.563  50.827  1.00  0.00     0.094 C 
BRANCH  12  13
HETATM   13  C7  UNL     1      25.433   3.274  50.146  1.00  0.00    -0.053 A 
HETATM   14  C8  UNL     1      24.198   2.683  50.005  1.00  0.00     0.007 A 
HETATM   15  C9  UNL     1      23.210   3.401  49.364  1.00  0.00     0.001 A 
HETATM   16  C10 UNL     1      23.400   4.676  48.860  1.00  0.00     0.000 A 
HETATM   17  C11 UNL     1      24.638   5.247  49.012  1.00  0.00     0.001 A 
HETATM   18  C12 UNL     1      25.629   4.538  49.648  1.00  0.00     0.007 A 
ENDBRANCH  12  13
ENDBRANCH   8  12
ENDBRANCH   1   7
BRANCH   1  19
HETATM   19  C13 UNL     1      24.330  -0.357  53.393  1.00  0.00     0.017 C 
BRANCH  19  20
HETATM   20  C14 UNL     1      23.043  -0.526  53.754  1.00  0.00     0.033 C 
BRANCH  20  21
HETATM   21  N4  UNL     1      22.704  -1.060  55.071  1.00  0.00    -0.399 N 
HETATM   22  H18 UNL     1      22.782  -2.026  55.457  1.00  0.00     0.156 HD
HETATM   23  H19 UNL     1      22.329  -0.270  55.649  1.00  0.00     0.156 HD
ENDBRANCH  20  21
BRANCH  20  24
HETATM   24  C15 UNL     1      21.854  -0.236  52.943  1.00  0.00    -0.010 A 
HETATM   25  C16 UNL     1      21.959   0.227  51.648  1.00  0.00     0.015 A 
HETATM   26  C17 UNL     1      20.916   0.534  50.808  1.00  0.00     0.024 A 
HETATM   27  C18 UNL     1      19.642   0.380  51.257  1.00  0.00     0.034 A 
HETATM   28 CL1  UNL     1      18.356   0.783  50.151  1.00  0.00    -0.084 Cl
HETATM   29  C19 UNL     1      19.457  -0.077  52.538  1.00  0.00     0.024 A 
HETATM   30  C20 UNL     1      20.534  -0.361  53.313  1.00  0.00     0.015 A 
ENDBRANCH  20  24
ENDBRANCH  19  20
ENDBRANCH   1  19
TORSDOF 10
ENDMDL
MODEL 5
REMARK VINA RESULT:      -7.8      2.890      4.978
REMARK  10 active torsions:
REMARK  status: ('A' for Active; 'I' for Inactive)
REMARK    1  A    between atoms: N1_2  and  N2_3 
REMARK    2  A    between atoms: C2_4  and  C3_5 
REMARK    3  A    between atoms: C3_5  and  C4_6 
REMARK    4  A    between atoms: C3_5  and  C13_16 
REMARK    5  A    between atoms: C5_7  and  N3_8 
REMARK    6  A    between atoms: C5_7  and  C6_9 
REMARK    7  A    between atoms: C6_9  and  C7_10 
REMARK    8  A    between atoms: C13_16  and  C14_17 
REMARK    9  A    between atoms: C14_17  and  N4_18 
REMARK   10  A    between atoms: C14_17  and  C15_19 
ROOT
HETATM    1  C3  UNL     1      22.949   2.162  52.024  1.00  0.00     0.077 C 
ENDROOT
BRANCH   1   2
HETATM    2  C2  UNL     1      21.604   1.971  51.422  1.00  0.00     0.123 C 
HETATM    3  N2  UNL     1      20.787   2.937  51.198  1.00  0.00    -0.196 NA
BRANCH   3   4
HETATM    4  N1  UNL     1      21.136   4.250  51.519  1.00  0.00    -0.319 N 
HETATM    5  C1  UNL     1      21.896   5.491  51.520  1.00  0.00     0.169 C 
HETATM    6  H4  UNL     1      20.295   4.225  52.102  1.00  0.00     0.181 HD
ENDBRANCH   3   4
ENDBRANCH   1   2
BRANCH   1   7
HETATM    7  C4  UNL     1      23.980   2.292  50.931  1.00  0.00     0.012 C 
HETATM    8  C5  UNL     1      25.238   2.693  50.957  1.00  0.00     0.004 C 
BRANCH   8   9
HETATM    9  N3  UNL     1      25.928   3.117  52.113  1.00  0.00    -0.402 N 
HETATM   10  H8  UNL     1      26.824   3.502  52.467  1.00  0.00     0.156 HD
HETATM   11  H9  UNL     1      25.516   3.103  53.088  1.00  0.00     0.156 HD
ENDBRANCH   8   9
BRANCH   8  12
HETATM   12  C6  UNL     1      25.969   2.694  49.675  1.00  0.00     0.094 C 
BRANCH  12  13
HETATM   13  C7  UNL     1      26.176   4.106  49.227  1.00  0.00    -0.053 A 
HETATM   14  C8  UNL     1      25.123   4.989  49.145  1.00  0.00     0.007 A 
HETATM   15  C9  UNL     1      25.393   6.274  48.723  1.00  0.00     0.001 A 
HETATM   16  C10 UNL     1      26.659   6.714  48.381  1.00  0.00     0.000 A 
HETATM   17  C11 UNL     1      27.694   5.819  48.471  1.00  0.00     0.001 A 
HETATM   18  C12 UNL     1      27.435   4.535  48.889  1.00  0.00     0.007 A 
ENDBRANCH  12  13
ENDBRANCH   8  12
ENDBRANCH   1   7
BRANCH   1  19
HETATM   19  C13 UNL     1      23.387   1.132  52.953  1.00  0.00     0.017 C 
BRANCH  19  20
HETATM   20  C14 UNL     1      24.035   0.125  53.572  1.00  0.00     0.033 C 
BRANCH  20  21
HETATM   21  N4  UNL     1      23.289  -0.927  54.259  1.00  0.00    -0.399 N 
HETATM   22  H18 UNL     1      22.459  -1.483  53.960  1.00  0.00     0.156 HD
HETATM   23  H19 UNL     1      23.736  -1.075  55.196  1.00  0.00     0.156 HD
ENDBRANCH  20  21
BRANCH  20  24
HETATM   24  C15 UNL     1      25.488  -0.063  53.664  1.00  0.00    -0.010 A 
HETATM   25  C16 UNL     1      26.197  -0.706  52.672  1.00  0.00     0.015 A 
HETATM   26  C17 UNL     1      27.551  -0.939  52.663  1.00  0.00     0.024 A 
HETATM   27  C18 UNL     1      28.300  -0.513  53.713  1.00  0.00     0.034 A 
HETATM   28 CL1  UNL     1      30.013  -0.834  53.651  1.00  0.00    -0.084 Cl
HETATM   29  C19 UNL     1      27.664   0.136  54.742  1.00  0.00     0.024 A 
HETATM   30  C20 UNL     1      26.322   0.333  54.685  1.00  0.00     0.015 A 
ENDBRANCH  20  24
ENDBRANCH  19  20
ENDBRANCH   1  19
TORSDOF 10
ENDMDL
MODEL 6
REMARK VINA RESULT:      -7.7      2.136      6.052
REMARK  10 active torsions:
REMARK  status: ('A' for Active; 'I' for Inactive)
REMARK    1  A    between atoms: N1_2  and  N2_3 
REMARK    2  A    between atoms: C2_4  and  C3_5 
REMARK    3  A    between atoms: C3_5  and  C4_6 
REMARK    4  A    between atoms: C3_5  and  C13_16 
REMARK    5  A    between atoms: C5_7  and  N3_8 
REMARK    6  A    between atoms: C5_7  and  C6_9 
REMARK    7  A    between atoms: C6_9  and  C7_10 
REMARK    8  A    between atoms: C13_16  and  C14_17 
REMARK    9  A    between atoms: C14_17  and  N4_18 
REMARK   10  A    between atoms: C14_17  and  C15_19 
ROOT
HETATM    1  C3  UNL     1      25.812   3.537  50.927  1.00  0.00     0.077 C 
ENDROOT
BRANCH   1   2
HETATM    2  C2  UNL     1      26.399   3.590  49.563  1.00  0.00     0.123 C 
HETATM    3  N2  UNL     1      26.746   4.683  48.984  1.00  0.00    -0.196 NA
BRANCH   3   4
HETATM    4  N1  UNL     1      26.581   5.910  49.631  1.00  0.00    -0.319 N 
HETATM    5  C1  UNL     1      26.236   7.311  49.816  1.00  0.00     0.169 C 
HETATM    6  H4  UNL     1      26.953   5.415  50.447  1.00  0.00     0.181 HD
ENDBRANCH   3   4
ENDBRANCH   1   2
BRANCH   1   7
HETATM    7  C4  UNL     1      25.898   2.129  51.463  1.00  0.00     0.012 C 
HETATM    8  C5  UNL     1      26.065   1.668  52.689  1.00  0.00     0.004 C 
BRANCH   8   9
HETATM    9  N3  UNL     1      26.210   2.469  53.842  1.00  0.00    -0.402 N 
HETATM   10  H8  UNL     1      25.701   2.918  54.626  1.00  0.00     0.156 HD
HETATM   11  H9  UNL     1      27.136   2.848  54.188  1.00  0.00     0.156 HD
ENDBRANCH   8   9
BRANCH   8  12
HETATM   12  C6  UNL     1      26.102   0.202  52.855  1.00  0.00     0.094 C 
BRANCH  12  13
HETATM   13  C7  UNL     1      24.881  -0.240  53.597  1.00  0.00    -0.053 A 
HETATM   14  C8  UNL     1      24.977  -0.861  54.821  1.00  0.00     0.007 A 
HETATM   15  C9  UNL     1      23.806  -1.240  55.444  1.00  0.00     0.001 A 
HETATM   16  C10 UNL     1      22.551  -1.028  54.902  1.00  0.00     0.000 A 
HETATM   17  C11 UNL     1      22.477  -0.407  53.680  1.00  0.00     0.001 A 
HETATM   18  C12 UNL     1      23.639  -0.027  53.052  1.00  0.00     0.007 A 
ENDBRANCH  12  13
ENDBRANCH   8  12
ENDBRANCH   1   7
BRANCH   1  19
HETATM   19  C13 UNL     1      24.438   3.996  51.051  1.00  0.00     0.017 C 
BRANCH  19  20
HETATM   20  C14 UNL     1      23.163   4.204  51.436  1.00  0.00     0.033 C 
BRANCH  20  21
HETATM   21  N4  UNL     1      22.726   5.527  51.877  1.00  0.00    -0.399 N 
HETATM   22  H18 UNL     1      23.273   6.384  52.112  1.00  0.00     0.156 HD
HETATM   23  H19 UNL     1      21.680   5.514  51.937  1.00  0.00     0.156 HD
ENDBRANCH  20  21
BRANCH  20  24
HETATM   24  C15 UNL     1      22.084   3.211  51.486  1.00  0.00    -0.010 A 
HETATM   25  C16 UNL     1      22.025   2.162  50.592  1.00  0.00     0.015 A 
HETATM   26  C17 UNL     1      21.060   1.186  50.548  1.00  0.00     0.024 A 
HETATM   27  C18 UNL     1      20.047   1.219  51.454  1.00  0.00     0.034 A 
HETATM   28 CL1  UNL     1      18.850  -0.044  51.354  1.00  0.00    -0.084 Cl
HETATM   29  C19 UNL     1      20.037   2.235  52.377  1.00  0.00     0.024 A 
HETATM   30  C20 UNL     1      21.024   3.167  52.363  1.00  0.00     0.015 A 
ENDBRANCH  20  24
ENDBRANCH  19  20
ENDBRANCH   1  19
TORSDOF 10
ENDMDL
MODEL 7
REMARK VINA RESULT:      -7.6      2.220      5.571
REMARK  10 active torsions:
REMARK  status: ('A' for Active; 'I' for Inactive)
REMARK    1  A    between atoms: N1_2  and  N2_3 
REMARK    2  A    between atoms: C2_4  and  C3_5 
REMARK    3  A    between atoms: C3_5  and  C4_6 
REMARK    4  A    between atoms: C3_5  and  C13_16 
REMARK    5  A    between atoms: C5_7  and  N3_8 
REMARK    6  A    between atoms: C5_7  and  C6_9 
REMARK    7  A    between atoms: C6_9  and  C7_10 
REMARK    8  A    between atoms: C13_16  and  C14_17 
REMARK    9  A    between atoms: C14_17  and  N4_18 
REMARK   10  A    between atoms: C14_17  and  C15_19 
ROOT
HETATM    1  C3  UNL     1      25.316   3.039  50.530  1.00  0.00     0.077 C 
ENDROOT
BRANCH   1   2
HETATM    2  C2  UNL     1      26.579   3.120  49.750  1.00  0.00     0.123 C 
HETATM    3  N2  UNL     1      27.147   4.229  49.438  1.00  0.00    -0.196 NA
BRANCH   3   4
HETATM    4  N1  UNL     1      26.586   5.447  49.829  1.00  0.00    -0.319 N 
HETATM    5  C1  UNL     1      26.090   6.810  49.720  1.00  0.00     0.169 C 
HETATM    6  H4  UNL     1      26.532   5.010  50.754  1.00  0.00     0.181 HD
ENDBRANCH   3   4
ENDBRANCH   1   2
BRANCH   1   7
HETATM    7  C4  UNL     1      25.405   1.909  51.525  1.00  0.00     0.012 C 
HETATM    8  C5  UNL     1      25.335   1.897  52.844  1.00  0.00     0.004 C 
BRANCH   8   9
HETATM    9  N3  UNL     1      25.145   3.036  53.655  1.00  0.00    -0.402 N 
HETATM   10  H8  UNL     1      25.282   4.063  53.713  1.00  0.00     0.156 HD
HETATM   11  H9  UNL     1      24.702   3.012  54.617  1.00  0.00     0.156 HD
ENDBRANCH   8   9
BRANCH   8  12
HETATM   12  C6  UNL     1      25.465   0.586  53.510  1.00  0.00     0.094 C 
BRANCH  12  13
HETATM   13  C7  UNL     1      26.910   0.202  53.564  1.00  0.00    -0.053 A 
HETATM   14  C8  UNL     1      27.850   1.041  54.117  1.00  0.00     0.007 A 
HETATM   15  C9  UNL     1      29.162   0.617  54.129  1.00  0.00     0.001 A 
HETATM   16  C10 UNL     1      29.575  -0.599  53.616  1.00  0.00     0.000 A 
HETATM   17  C11 UNL     1      28.622  -1.421  53.069  1.00  0.00     0.001 A 
HETATM   18  C12 UNL     1      27.311  -1.006  53.052  1.00  0.00     0.007 A 
ENDBRANCH  12  13
ENDBRANCH   8  12
ENDBRANCH   1   7
BRANCH   1  19
HETATM   19  C13 UNL     1      24.095   2.878  49.756  1.00  0.00     0.017 C 
BRANCH  19  20
HETATM   20  C14 UNL     1      22.875   2.525  49.305  1.00  0.00     0.033 C 
BRANCH  20  21
HETATM   21  N4  UNL     1      22.439   2.909  47.964  1.00  0.00    -0.399 N 
HETATM   22  H18 UNL     1      22.983   3.226  47.133  1.00  0.00     0.156 HD
HETATM   23  H19 UNL     1      21.395   2.819  47.930  1.00  0.00     0.156 HD
ENDBRANCH  20  21
BRANCH  20  24
HETATM   24  C15 UNL     1      21.852   1.765  50.032  1.00  0.00    -0.010 A 
HETATM   25  C16 UNL     1      20.570   1.626  49.542  1.00  0.00     0.015 A 
HETATM   26  C17 UNL     1      19.540   0.944  50.143  1.00  0.00     0.024 A 
HETATM   27  C18 UNL     1      19.762   0.334  51.337  1.00  0.00     0.034 A 
HETATM   28 CL1  UNL     1      18.422  -0.518  52.056  1.00  0.00    -0.084 Cl
HETATM   29  C19 UNL     1      21.015   0.429  51.890  1.00  0.00     0.024 A 
HETATM   30  C20 UNL     1      21.987   1.119  51.241  1.00  0.00     0.015 A 
ENDBRANCH  20  24
ENDBRANCH  19  20
ENDBRANCH   1  19
TORSDOF 10
ENDMDL
MODEL 8
REMARK VINA RESULT:      -7.5      3.221      7.404
REMARK  10 active torsions:
REMARK  status: ('A' for Active; 'I' for Inactive)
REMARK    1  A    between atoms: N1_2  and  N2_3 
REMARK    2  A    between atoms: C2_4  and  C3_5 
REMARK    3  A    between atoms: C3_5  and  C4_6 
REMARK    4  A    between atoms: C3_5  and  C13_16 
REMARK    5  A    between atoms: C5_7  and  N3_8 
REMARK    6  A    between atoms: C5_7  and  C6_9 
REMARK    7  A    between atoms: C6_9  and  C7_10 
REMARK    8  A    between atoms: C13_16  and  C14_17 
REMARK    9  A    between atoms: C14_17  and  N4_18 
REMARK   10  A    between atoms: C14_17  and  C15_19 
ROOT
HETATM    1  C3  UNL     1      22.935   2.965  48.941  1.00  0.00     0.077 C 
ENDROOT
BRANCH   1   2
HETATM    2  C2  UNL     1      21.989   4.111  48.966  1.00  0.00     0.123 C 
HETATM    3  N2  UNL     1      21.427   4.587  47.913  1.00  0.00    -0.196 NA
BRANCH   3   4
HETATM    4  N1  UNL     1      21.689   4.032  46.658  1.00  0.00    -0.319 N 
HETATM    5  C1  UNL     1      21.763   3.927  45.209  1.00  0.00     0.169 C 
HETATM    6  H4  UNL     1      22.022   3.226  47.195  1.00  0.00     0.181 HD
ENDBRANCH   3   4
ENDBRANCH   1   2
BRANCH   1   7
HETATM    7  C4  UNL     1      22.298   1.767  49.599  1.00  0.00     0.012 C 
HETATM    8  C5  UNL     1      21.793   1.597  50.808  1.00  0.00     0.004 C 
BRANCH   8   9
HETATM    9  N3  UNL     1      21.745   2.589  51.811  1.00  0.00    -0.402 N 
HETATM   10  H8  UNL     1      22.310   3.120  52.500  1.00  0.00     0.156 HD
HETATM   11  H9  UNL     1      20.860   3.093  52.104  1.00  0.00     0.156 HD
ENDBRANCH   8   9
BRANCH   8  12
HETATM   12  C6  UNL     1      21.240   0.265  51.123  1.00  0.00     0.094 C 
BRANCH  12  13
HETATM   13  C7  UNL     1      21.747  -0.175  52.460  1.00  0.00    -0.053 A 
HETATM   14  C8  UNL     1      23.095  -0.283  52.710  1.00  0.00     0.007 A 
HETATM   15  C9  UNL     1      23.486  -0.696  53.966  1.00  0.00     0.001 A 
HETATM   16  C10 UNL     1      22.594  -1.003  54.979  1.00  0.00     0.000 A 
HETATM   17  C11 UNL     1      21.254  -0.888  54.709  1.00  0.00     0.001 A 
HETATM   18  C12 UNL     1      20.856  -0.478  53.459  1.00  0.00     0.007 A 
ENDBRANCH  12  13
ENDBRANCH   8  12
ENDBRANCH   1   7
BRANCH   1  19
HETATM   19  C13 UNL     1      24.234   3.194  49.554  1.00  0.00     0.017 C 
BRANCH  19  20
HETATM   20  C14 UNL     1      25.243   3.479  50.400  1.00  0.00     0.033 C 
BRANCH  20  21
HETATM   21  N4  UNL     1      26.054   4.680  50.212  1.00  0.00    -0.399 N 
HETATM   22  H18 UNL     1      25.882   5.670  50.487  1.00  0.00     0.156 HD
HETATM   23  H19 UNL     1      26.930   4.398  49.709  1.00  0.00     0.156 HD
ENDBRANCH  20  21
BRANCH  20  24
HETATM   24  C15 UNL     1      25.675   2.684  51.557  1.00  0.00    -0.010 A 
HETATM   25  C16 UNL     1      26.557   1.633  51.422  1.00  0.00     0.015 A 
HETATM   26  C17 UNL     1      27.019   0.826  52.433  1.00  0.00     0.024 A 
HETATM   27  C18 UNL     1      26.590   1.050  53.703  1.00  0.00     0.034 A 
HETATM   28 CL1  UNL     1      27.208  -0.003  54.948  1.00  0.00    -0.084 Cl
HETATM   29  C19 UNL     1      25.709   2.081  53.917  1.00  0.00     0.024 A 
HETATM   30  C20 UNL     1      25.294   2.839  52.870  1.00  0.00     0.015 A 
ENDBRANCH  20  24
ENDBRANCH  19  20
ENDBRANCH   1  19
TORSDOF 10
ENDMDL
MODEL 9
REMARK VINA RESULT:      -7.5      2.833      6.605
REMARK  10 active torsions:
REMARK  status: ('A' for Active; 'I' for Inactive)
REMARK    1  A    between atoms: N1_2  and  N2_3 
REMARK    2  A    between atoms: C2_4  and  C3_5 
REMARK    3  A    between atoms: C3_5  and  C4_6 
REMARK    4  A    between atoms: C3_5  and  C13_16 
REMARK    5  A    between atoms: C5_7  and  N3_8 
REMARK    6  A    between atoms: C5_7  and  C6_9 
REMARK    7  A    between atoms: C6_9  and  C7_10 
REMARK    8  A    between atoms: C13_16  and  C14_17 
REMARK    9  A    between atoms: C14_17  and  N4_18 
REMARK   10  A    between atoms: C14_17  and  C15_19 
ROOT
HETATM    1  C3  UNL     1      23.873   2.778  50.553  1.00  0.00     0.077 C 
ENDROOT
BRANCH   1   2
HETATM    2  C2  UNL     1      23.515   4.219  50.492  1.00  0.00     0.123 C 
HETATM    3  N2  UNL     1      24.235   5.101  49.899  1.00  0.00    -0.196 NA
BRANCH   3   4
HETATM    4  N1  UNL     1      25.425   4.736  49.265  1.00  0.00    -0.319 N 
HETATM    5  C1  UNL     1      26.826   4.376  49.111  1.00  0.00     0.169 C 
HETATM    6  H4  UNL     1      24.863   4.772  48.409  1.00  0.00     0.181 HD
ENDBRANCH   3   4
ENDBRANCH   1   2
BRANCH   1   7
HETATM    7  C4  UNL     1      22.644   1.962  50.866  1.00  0.00     0.012 C 
HETATM    8  C5  UNL     1      21.806   1.306  50.084  1.00  0.00     0.004 C 
BRANCH   8   9
HETATM    9  N3  UNL     1      21.902   1.230  48.677  1.00  0.00    -0.402 N 
HETATM   10  H8  UNL     1      21.643   0.671  47.843  1.00  0.00     0.156 HD
HETATM   11  H9  UNL     1      22.403   1.946  48.079  1.00  0.00     0.156 HD
ENDBRANCH   8   9
BRANCH   8  12
HETATM   12  C6  UNL     1      20.688   0.601  50.741  1.00  0.00     0.094 C 
BRANCH  12  13
HETATM   13  C7  UNL     1      21.084   0.242  52.138  1.00  0.00    -0.053 A 
HETATM   14  C8  UNL     1      20.358   0.684  53.220  1.00  0.00     0.007 A 
HETATM   15  C9  UNL     1      20.787   0.312  54.477  1.00  0.00     0.001 A 
HETATM   16  C10 UNL     1      21.901  -0.476  54.700  1.00  0.00     0.000 A 
HETATM   17  C11 UNL     1      22.611  -0.906  53.607  1.00  0.00     0.001 A 
HETATM   18  C12 UNL     1      22.192  -0.540  52.351  1.00  0.00     0.007 A 
ENDBRANCH  12  13
ENDBRANCH   8  12
ENDBRANCH   1   7
BRANCH   1  19
HETATM   19  C13 UNL     1      24.920   2.417  51.496  1.00  0.00     0.017 C 
BRANCH  19  20
HETATM   20  C14 UNL     1      25.636   2.131  52.601  1.00  0.00     0.033 C 
BRANCH  20  21
HETATM   21  N4  UNL     1      25.564   2.994  53.778  1.00  0.00    -0.399 N 
HETATM   22  H18 UNL     1      26.308   3.326  54.428  1.00  0.00     0.156 HD
HETATM   23  H19 UNL     1      24.562   3.272  53.908  1.00  0.00     0.156 HD
ENDBRANCH  20  21
BRANCH  20  24
HETATM   24  C15 UNL     1      26.550   0.998  52.790  1.00  0.00    -0.010 A 
HETATM   25  C16 UNL     1      26.168  -0.295  52.499  1.00  0.00     0.015 A 
HETATM   26  C17 UNL     1      26.940  -1.422  52.645  1.00  0.00     0.024 A 
HETATM   27  C18 UNL     1      28.207  -1.296  53.119  1.00  0.00     0.034 A 
HETATM   28 CL1  UNL     1      29.143  -2.758  53.284  1.00  0.00    -0.084 Cl
HETATM   29  C19 UNL     1      28.660  -0.039  53.433  1.00  0.00     0.024 A 
HETATM   30  C20 UNL     1      27.843   1.032  53.263  1.00  0.00     0.015 A 
ENDBRANCH  20  24
ENDBRANCH  19  20
ENDBRANCH   1  19
TORSDOF 10
ENDMDL
