MODEL 1
REMARK VINA RESULT:      -7.1      0.000      0.000
REMARK  6 active torsions:
REMARK  status: ('A' for Active; 'I' for Inactive)
REMARK    1  A    between atoms: N1_2  and  C2_3 
REMARK    2  A    between atoms: C6_7  and  N2_8 
REMARK    3  A    between atoms: N2_8  and  C7_9 
REMARK    4  A    between atoms: C11_15  and  C12_16 
REMARK    5  A    between atoms: C12_16  and  C13_17 
REMARK    6  A    between atoms: C13_17  and  N5_18 
REMARK       I    between atoms: N5_18  and  C14_19 
REMARK       I    between atoms: C14_19  and  N6_20 
ROOT
HETATM    1  C7  UNL     1      26.199   0.150  53.538  1.00  0.00     0.133 A 
HETATM    2  N3  UNL     1      26.788  -0.314  54.586  1.00  0.00    -0.225 NA
HETATM    3  C8  UNL     1      28.039   0.234  54.982  1.00  0.00     0.229 A 
HETATM    4  N4  UNL     1      28.681   1.175  54.402  1.00  0.00    -0.278 NA
HETATM    5  C9  UNL     1      28.201   1.839  53.212  1.00  0.00     0.192 A 
HETATM    6  C10 UNL     1      26.903   1.220  52.843  1.00  0.00     0.004 A 
HETATM    7  C11 UNL     1      26.320   1.707  51.734  1.00  0.00    -0.012 C 
ENDROOT
BRANCH   1   8
HETATM    8  N2  UNL     1      24.955  -0.367  53.112  1.00  0.00    -0.361 N 
HETATM    9  H9  UNL     1      24.988  -1.110  52.368  1.00  0.00     0.162 HD
BRANCH   8  10
HETATM   10  C6  UNL     1      23.729   0.163  53.728  1.00  0.00     0.156 A 
HETATM   11  C2  UNL     1      22.778   0.623  52.685  1.00  0.00     0.031 A 
HETATM   12  C3  UNL     1      21.708  -0.157  52.671  1.00  0.00     0.027 A 
HETATM   13  C4  UNL     1      21.831  -1.202  53.684  1.00  0.00     0.000 A 
HETATM   14  C5  UNL     1      23.011  -1.008  54.296  1.00  0.00     0.004 A 
BRANCH  11  15
HETATM   15  N1  UNL     1      22.763   1.685  51.729  1.00  0.00    -0.396 N 
HETATM   16  C1  UNL     1      22.381   1.456  50.342  1.00  0.00     0.146 C 
HETATM   17  H4  UNL     1      23.013   2.688  51.913  1.00  0.00     0.159 HD
ENDBRANCH  11  15
ENDBRANCH   8  10
ENDBRANCH   1   8
BRANCH   7  18
HETATM   18  C12 UNL     1      26.684   2.761  50.761  1.00  0.00     0.047 C 
BRANCH  18  19
HETATM   19  C13 UNL     1      25.494   3.520  50.220  1.00  0.00     0.128 C 
BRANCH  19  20
HETATM   20  N5  UNL     1      25.407   4.823  50.809  1.00  0.00    -0.343 N 
HETATM   21  C14 UNL     1      24.258   5.427  51.365  1.00  0.00     0.313 C 
HETATM   22  N6  UNL     1      24.214   6.720  51.936  1.00  0.00    -0.352 N 
HETATM   23  O1  UNL     1      23.168   4.801  51.372  1.00  0.00    -0.248 OA
HETATM   24  H19 UNL     1      24.281   7.042  52.942  1.00  0.00     0.160 HD
HETATM   25  H20 UNL     1      24.121   7.735  51.729  1.00  0.00     0.160 HD
HETATM   26  H18 UNL     1      26.255   5.459  50.869  1.00  0.00     0.164 HD
ENDBRANCH  19  20
ENDBRANCH  18  19
ENDBRANCH   7  18
TORSDOF 6
ENDMDL
MODEL 2
REMARK VINA RESULT:      -7.1      2.477      4.930
REMARK  6 active torsions:
REMARK  status: ('A' for Active; 'I' for Inactive)
REMARK    1  A    between atoms: N1_2  and  C2_3 
REMARK    2  A    between atoms: C6_7  and  N2_8 
REMARK    3  A    between atoms: N2_8  and  C7_9 
REMARK    4  A    between atoms: C11_15  and  C12_16 
REMARK    5  A    between atoms: C12_16  and  C13_17 
REMARK    6  A    between atoms: C13_17  and  N5_18 
REMARK       I    between atoms: N5_18  and  C14_19 
REMARK       I    between atoms: C14_19  and  N6_20 
ROOT
HETATM    1  C7  UNL     1      25.814   2.137  51.429  1.00  0.00     0.133 A 
HETATM    2  N3  UNL     1      24.841   1.406  51.851  1.00  0.00    -0.225 NA
HETATM    3  C8  UNL     1      23.551   1.563  51.273  1.00  0.00     0.229 A 
HETATM    4  N4  UNL     1      23.221   2.376  50.343  1.00  0.00    -0.278 NA
HETATM    5  C9  UNL     1      24.157   3.285  49.725  1.00  0.00     0.192 A 
HETATM    6  C10 UNL     1      25.478   3.083  50.372  1.00  0.00     0.004 A 
HETATM    7  C11 UNL     1      26.471   3.873  49.929  1.00  0.00    -0.012 C 
ENDROOT
BRANCH   1   8
HETATM    8  N2  UNL     1      27.111   2.011  51.975  1.00  0.00    -0.361 N 
HETATM    9  H9  UNL     1      27.910   2.035  51.292  1.00  0.00     0.162 HD
BRANCH   8  10
HETATM   10  C6  UNL     1      27.244   1.858  53.432  1.00  0.00     0.156 A 
HETATM   11  C2  UNL     1      27.427   0.430  53.792  1.00  0.00     0.031 A 
HETATM   12  C3  UNL     1      28.646   0.235  54.271  1.00  0.00     0.027 A 
HETATM   13  C4  UNL     1      29.392   1.490  54.279  1.00  0.00     0.000 A 
HETATM   14  C5  UNL     1      28.568   2.431  53.790  1.00  0.00     0.004 A 
BRANCH  11  15
HETATM   15  N1  UNL     1      26.605  -0.739  53.739  1.00  0.00    -0.396 N 
HETATM   16  C1  UNL     1      26.703  -1.689  52.639  1.00  0.00     0.146 C 
HETATM   17  H4  UNL     1      25.883  -1.022  54.447  1.00  0.00     0.159 HD
ENDBRANCH  11  15
ENDBRANCH   8  10
ENDBRANCH   1   8
BRANCH   7  18
HETATM   18  C12 UNL     1      26.557   4.935  48.902  1.00  0.00     0.047 C 
BRANCH  18  19
HETATM   19  C13 UNL     1      25.915   6.236  49.326  1.00  0.00     0.128 C 
BRANCH  19  20
HETATM   20  N5  UNL     1      26.890   7.137  49.865  1.00  0.00    -0.343 N 
HETATM   21  C14 UNL     1      26.692   8.490  50.217  1.00  0.00     0.313 C 
HETATM   22  N6  UNL     1      27.685   9.347  50.745  1.00  0.00    -0.352 N 
HETATM   23  O1  UNL     1      25.559   9.013  50.063  1.00  0.00    -0.248 OA
HETATM   24  H19 UNL     1      27.912   9.622  51.742  1.00  0.00     0.160 HD
HETATM   25  H20 UNL     1      28.479   9.973  50.504  1.00  0.00     0.160 HD
HETATM   26  H18 UNL     1      27.889   6.824  50.046  1.00  0.00     0.164 HD
ENDBRANCH  19  20
ENDBRANCH  18  19
ENDBRANCH   7  18
TORSDOF 6
ENDMDL
MODEL 3
REMARK VINA RESULT:      -7.0      1.619      4.757
REMARK  6 active torsions:
REMARK  status: ('A' for Active; 'I' for Inactive)
REMARK    1  A    between atoms: N1_2  and  C2_3 
REMARK    2  A    between atoms: C6_7  and  N2_8 
REMARK    3  A    between atoms: N2_8  and  C7_9 
REMARK    4  A    between atoms: C11_15  and  C12_16 
REMARK    5  A    between atoms: C12_16  and  C13_17 
REMARK    6  A    between atoms: C13_17  and  N5_18 
REMARK       I    between atoms: N5_18  and  C14_19 
REMARK       I    between atoms: C14_19  and  N6_20 
ROOT
HETATM    1  C7  UNL     1      23.884  -0.287  53.580  1.00  0.00     0.133 A 
HETATM    2  N3  UNL     1      23.458  -0.930  54.612  1.00  0.00    -0.225 NA
HETATM    3  C8  UNL     1      22.070  -0.905  54.924  1.00  0.00     0.229 A 
HETATM    4  N4  UNL     1      21.150  -0.297  54.277  1.00  0.00    -0.278 NA
HETATM    5  C9  UNL     1      21.407   0.481  53.088  1.00  0.00     0.192 A 
HETATM    6  C10 UNL     1      22.866   0.426  52.819  1.00  0.00     0.004 A 
HETATM    7  C11 UNL     1      23.288   1.123  51.750  1.00  0.00    -0.012 C 
ENDROOT
BRANCH   1   8
HETATM    8  N2  UNL     1      25.254  -0.288  53.236  1.00  0.00    -0.361 N 
HETATM    9  H9  UNL     1      25.506  -0.745  52.323  1.00  0.00     0.162 HD
BRANCH   8  10
HETATM   10  C6  UNL     1      26.209   0.338  54.163  1.00  0.00     0.156 A 
HETATM   11  C2  UNL     1      27.604   0.003  53.781  1.00  0.00     0.031 A 
HETATM   12  C3  UNL     1      28.232   1.088  53.359  1.00  0.00     0.027 A 
HETATM   13  C4  UNL     1      27.339   2.243  53.413  1.00  0.00     0.000 A 
HETATM   14  C5  UNL     1      26.162   1.798  53.883  1.00  0.00     0.004 A 
BRANCH  11  15
HETATM   15  N1  UNL     1      28.388  -1.192  53.770  1.00  0.00    -0.396 N 
HETATM   16  C1  UNL     1      29.839  -1.150  53.644  1.00  0.00     0.146 C 
HETATM   17  H4  UNL     1      28.024  -2.174  53.847  1.00  0.00     0.159 HD
ENDBRANCH  11  15
ENDBRANCH   8  10
ENDBRANCH   1   8
BRANCH   7  18
HETATM   18  C12 UNL     1      22.608   1.961  50.737  1.00  0.00     0.047 C 
BRANCH  18  19
HETATM   19  C13 UNL     1      23.361   3.227  50.398  1.00  0.00     0.128 C 
BRANCH  19  20
HETATM   20  N5  UNL     1      23.922   3.820  51.575  1.00  0.00    -0.343 N 
HETATM   21  C14 UNL     1      23.327   4.805  52.394  1.00  0.00     0.313 C 
HETATM   22  N6  UNL     1      23.917   5.367  53.549  1.00  0.00    -0.352 N 
HETATM   23  O1  UNL     1      22.185   5.245  52.107  1.00  0.00    -0.248 OA
HETATM   24  H19 UNL     1      23.804   5.134  54.575  1.00  0.00     0.160 HD
HETATM   25  H20 UNL     1      24.577   6.092  53.896  1.00  0.00     0.160 HD
HETATM   26  H18 UNL     1      24.883   3.539  51.931  1.00  0.00     0.164 HD
ENDBRANCH  19  20
ENDBRANCH  18  19
ENDBRANCH   7  18
TORSDOF 6
ENDMDL
MODEL 4
REMARK VINA RESULT:      -7.0      2.148      5.226
REMARK  6 active torsions:
REMARK  status: ('A' for Active; 'I' for Inactive)
REMARK    1  A    between atoms: N1_2  and  C2_3 
REMARK    2  A    between atoms: C6_7  and  N2_8 
REMARK    3  A    between atoms: N2_8  and  C7_9 
REMARK    4  A    between atoms: C11_15  and  C12_16 
REMARK    5  A    between atoms: C12_16  and  C13_17 
REMARK    6  A    between atoms: C13_17  and  N5_18 
REMARK       I    between atoms: N5_18  and  C14_19 
REMARK       I    between atoms: C14_19  and  N6_20 
ROOT
HETATM    1  C7  UNL     1      22.651   0.802  53.129  1.00  0.00     0.133 A 
HETATM    2  N3  UNL     1      21.468   0.730  53.635  1.00  0.00    -0.225 NA
HETATM    3  C8  UNL     1      21.203  -0.229  54.652  1.00  0.00     0.229 A 
HETATM    4  N4  UNL     1      22.031  -1.067  55.150  1.00  0.00    -0.278 NA
HETATM    5  C9  UNL     1      23.410  -1.155  54.730  1.00  0.00     0.192 A 
HETATM    6  C10 UNL     1      23.623  -0.141  53.666  1.00  0.00     0.004 A 
HETATM    7  C11 UNL     1      24.860  -0.101  53.140  1.00  0.00    -0.012 C 
ENDROOT
BRANCH   1   8
HETATM    8  N2  UNL     1      22.955   1.742  52.119  1.00  0.00    -0.361 N 
HETATM    9  H9  UNL     1      22.842   1.413  51.126  1.00  0.00     0.162 HD
BRANCH   8  10
HETATM   10  C6  UNL     1      23.401   3.084  52.523  1.00  0.00     0.156 A 
HETATM   11  C2  UNL     1      24.456   3.582  51.606  1.00  0.00     0.031 A 
HETATM   12  C3  UNL     1      24.000   4.607  50.903  1.00  0.00     0.027 A 
HETATM   13  C4  UNL     1      22.616   4.896  51.271  1.00  0.00     0.000 A 
HETATM   14  C5  UNL     1      22.275   4.004  52.216  1.00  0.00     0.004 A 
BRANCH  11  15
HETATM   15  N1  UNL     1      25.808   3.212  51.325  1.00  0.00    -0.396 N 
HETATM   16  C1  UNL     1      26.369   3.335  49.986  1.00  0.00     0.146 C 
HETATM   17  H4  UNL     1      26.502   2.832  52.015  1.00  0.00     0.159 HD
ENDBRANCH  11  15
ENDBRANCH   8  10
ENDBRANCH   1   8
BRANCH   7  18
HETATM   18  C12 UNL     1      26.107  -0.859  53.388  1.00  0.00     0.047 C 
BRANCH  18  19
HETATM   19  C13 UNL     1      27.314  -0.277  52.690  1.00  0.00     0.128 C 
BRANCH  19  20
HETATM   20  N5  UNL     1      28.215   0.315  53.634  1.00  0.00    -0.343 N 
HETATM   21  C14 UNL     1      28.699   1.641  53.628  1.00  0.00     0.313 C 
HETATM   22  N6  UNL     1      29.591   2.186  54.579  1.00  0.00    -0.352 N 
HETATM   23  O1  UNL     1      28.333   2.432  52.722  1.00  0.00    -0.248 OA
HETATM   24  H19 UNL     1      29.418   2.763  55.449  1.00  0.00     0.160 HD
HETATM   25  H20 UNL     1      30.592   2.278  54.846  1.00  0.00     0.160 HD
HETATM   26  H18 UNL     1      28.603  -0.243  54.451  1.00  0.00     0.164 HD
ENDBRANCH  19  20
ENDBRANCH  18  19
ENDBRANCH   7  18
TORSDOF 6
ENDMDL
MODEL 5
REMARK VINA RESULT:      -6.9      2.409      6.030
REMARK  6 active torsions:
REMARK  status: ('A' for Active; 'I' for Inactive)
REMARK    1  A    between atoms: N1_2  and  C2_3 
REMARK    2  A    between atoms: C6_7  and  N2_8 
REMARK    3  A    between atoms: N2_8  and  C7_9 
REMARK    4  A    between atoms: C11_15  and  C12_16 
REMARK    5  A    between atoms: C12_16  and  C13_17 
REMARK    6  A    between atoms: C13_17  and  N5_18 
REMARK       I    between atoms: N5_18  and  C14_19 
REMARK       I    between atoms: C14_19  and  N6_20 
ROOT
HETATM    1  C7  UNL     1      22.923   2.363  52.454  1.00  0.00     0.133 A 
HETATM    2  N3  UNL     1      21.640   2.438  52.347  1.00  0.00    -0.225 NA
HETATM    3  C8  UNL     1      20.851   1.284  52.608  1.00  0.00     0.229 A 
HETATM    4  N4  UNL     1      21.275   0.128  52.951  1.00  0.00    -0.278 NA
HETATM    5  C9  UNL     1      22.675  -0.176  53.130  1.00  0.00     0.192 A 
HETATM    6  C10 UNL     1      23.446   1.058  52.837  1.00  0.00     0.004 A 
HETATM    7  C11 UNL     1      24.782   0.947  52.934  1.00  0.00    -0.012 C 
ENDROOT
BRANCH   1   8
HETATM    8  N2  UNL     1      23.742   3.487  52.205  1.00  0.00    -0.361 N 
HETATM    9  H9  UNL     1      24.374   3.787  52.990  1.00  0.00     0.162 HD
BRANCH   8  10
HETATM   10  C6  UNL     1      23.651   4.141  50.891  1.00  0.00     0.156 A 
HETATM   11  C2  UNL     1      24.556   5.317  50.830  1.00  0.00     0.031 A 
HETATM   12  C3  UNL     1      25.539   5.089  49.973  1.00  0.00     0.027 A 
HETATM   13  C4  UNL     1      25.397   3.762  49.382  1.00  0.00     0.000 A 
HETATM   14  C5  UNL     1      24.294   3.216  49.921  1.00  0.00     0.004 A 
BRANCH  11  15
HETATM   15  N1  UNL     1      24.597   6.594  51.471  1.00  0.00    -0.396 N 
HETATM   16  C1  UNL     1      23.969   7.766  50.875  1.00  0.00     0.146 C 
HETATM   17  H4  UNL     1      25.059   6.813  52.388  1.00  0.00     0.159 HD
ENDBRANCH  11  15
ENDBRANCH   8  10
ENDBRANCH   1   8
BRANCH   7  18
HETATM   18  C12 UNL     1      25.698  -0.162  53.282  1.00  0.00     0.047 C 
BRANCH  18  19
HETATM   19  C13 UNL     1      26.348  -0.004  54.637  1.00  0.00     0.128 C 
BRANCH  19  20
HETATM   20  N5  UNL     1      27.274   1.089  54.636  1.00  0.00    -0.343 N 
HETATM   21  C14 UNL     1      28.680   1.010  54.527  1.00  0.00     0.313 C 
HETATM   22  N6  UNL     1      29.560   2.117  54.532  1.00  0.00    -0.352 N 
HETATM   23  O1  UNL     1      29.233  -0.113  54.416  1.00  0.00    -0.248 OA
HETATM   24  H19 UNL     1      30.010   2.654  53.740  1.00  0.00     0.160 HD
HETATM   25  H20 UNL     1      30.075   2.786  55.138  1.00  0.00     0.160 HD
HETATM   26  H18 UNL     1      26.941   2.095  54.723  1.00  0.00     0.164 HD
ENDBRANCH  19  20
ENDBRANCH  18  19
ENDBRANCH   7  18
TORSDOF 6
ENDMDL
MODEL 6
REMARK VINA RESULT:      -6.7      2.361      5.315
REMARK  6 active torsions:
REMARK  status: ('A' for Active; 'I' for Inactive)
REMARK    1  A    between atoms: N1_2  and  C2_3 
REMARK    2  A    between atoms: C6_7  and  N2_8 
REMARK    3  A    between atoms: N2_8  and  C7_9 
REMARK    4  A    between atoms: C11_15  and  C12_16 
REMARK    5  A    between atoms: C12_16  and  C13_17 
REMARK    6  A    between atoms: C13_17  and  N5_18 
REMARK       I    between atoms: N5_18  and  C14_19 
REMARK       I    between atoms: C14_19  and  N6_20 
ROOT
HETATM    1  C7  UNL     1      22.306   0.039  52.696  1.00  0.00     0.133 A 
HETATM    2  N3  UNL     1      21.070  -0.284  52.865  1.00  0.00    -0.225 NA
HETATM    3  C8  UNL     1      20.700  -1.048  54.006  1.00  0.00     0.229 A 
HETATM    4  N4  UNL     1      21.477  -1.474  54.928  1.00  0.00    -0.278 NA
HETATM    5  C9  UNL     1      22.899  -1.224  54.937  1.00  0.00     0.192 A 
HETATM    6  C10 UNL     1      23.225  -0.433  53.723  1.00  0.00     0.004 A 
HETATM    7  C11 UNL     1      24.524  -0.128  53.559  1.00  0.00    -0.012 C 
ENDROOT
BRANCH   1   8
HETATM    8  N2  UNL     1      22.714   0.799  51.578  1.00  0.00    -0.361 N 
HETATM    9  H9  UNL     1      23.740   0.775  51.345  1.00  0.00     0.162 HD
BRANCH   8  10
HETATM   10  C6  UNL     1      21.693   1.554  50.834  1.00  0.00     0.156 A 
HETATM   11  C2  UNL     1      22.257   2.829  50.323  1.00  0.00     0.031 A 
HETATM   12  C3  UNL     1      22.325   2.797  49.002  1.00  0.00     0.027 A 
HETATM   13  C4  UNL     1      21.824   1.520  48.500  1.00  0.00     0.000 A 
HETATM   14  C5  UNL     1      21.457   0.801  49.574  1.00  0.00     0.004 A 
BRANCH  11  15
HETATM   15  N1  UNL     1      22.723   4.039  50.923  1.00  0.00    -0.396 N 
HETATM   16  C1  UNL     1      21.903   4.788  51.866  1.00  0.00     0.146 C 
HETATM   17  H4  UNL     1      23.655   4.494  50.757  1.00  0.00     0.159 HD
ENDBRANCH  11  15
ENDBRANCH   8  10
ENDBRANCH   1   8
BRANCH   7  18
HETATM   18  C12 UNL     1      25.751  -0.404  54.341  1.00  0.00     0.047 C 
BRANCH  18  19
HETATM   19  C13 UNL     1      27.013  -0.378  53.510  1.00  0.00     0.128 C 
BRANCH  19  20
HETATM   20  N5  UNL     1      28.052   0.346  54.179  1.00  0.00    -0.343 N 
HETATM   21  C14 UNL     1      28.614   1.580  53.786  1.00  0.00     0.313 C 
HETATM   22  N6  UNL     1      29.642   2.262  54.476  1.00  0.00    -0.352 N 
HETATM   23  O1  UNL     1      28.196   2.151  52.747  1.00  0.00    -0.248 OA
HETATM   24  H19 UNL     1      29.607   3.051  55.181  1.00  0.00     0.160 HD
HETATM   25  H20 UNL     1      30.671   2.327  54.614  1.00  0.00     0.160 HD
HETATM   26  H18 UNL     1      28.495  -0.024  55.071  1.00  0.00     0.164 HD
ENDBRANCH  19  20
ENDBRANCH  18  19
ENDBRANCH   7  18
TORSDOF 6
ENDMDL
MODEL 7
REMARK VINA RESULT:      -6.7      2.997      5.310
REMARK  6 active torsions:
REMARK  status: ('A' for Active; 'I' for Inactive)
REMARK    1  A    between atoms: N1_2  and  C2_3 
REMARK    2  A    between atoms: C6_7  and  N2_8 
REMARK    3  A    between atoms: N2_8  and  C7_9 
REMARK    4  A    between atoms: C11_15  and  C12_16 
REMARK    5  A    between atoms: C12_16  and  C13_17 
REMARK    6  A    between atoms: C13_17  and  N5_18 
REMARK       I    between atoms: N5_18  and  C14_19 
REMARK       I    between atoms: C14_19  and  N6_20 
ROOT
HETATM    1  C7  UNL     1      25.676   1.876  51.596  1.00  0.00     0.133 A 
HETATM    2  N3  UNL     1      24.695   1.161  52.028  1.00  0.00    -0.225 NA
HETATM    3  C8  UNL     1      23.392   1.376  51.500  1.00  0.00     0.229 A 
HETATM    4  N4  UNL     1      23.057   2.229  50.608  1.00  0.00    -0.278 NA
HETATM    5  C9  UNL     1      24.000   3.130  49.988  1.00  0.00     0.192 A 
HETATM    6  C10 UNL     1      25.335   2.866  50.583  1.00  0.00     0.004 A 
HETATM    7  C11 UNL     1      26.337   3.640  50.131  1.00  0.00    -0.012 C 
ENDROOT
BRANCH   1   8
HETATM    8  N2  UNL     1      26.986   1.693  52.093  1.00  0.00    -0.361 N 
HETATM    9  H9  UNL     1      27.742   1.550  51.376  1.00  0.00     0.162 HD
BRANCH   8  10
HETATM   10  C6  UNL     1      27.190   1.713  53.550  1.00  0.00     0.156 A 
HETATM   11  C2  UNL     1      27.325   0.332  54.077  1.00  0.00     0.031 A 
HETATM   12  C3  UNL     1      28.558   0.133  54.517  1.00  0.00     0.027 A 
HETATM   13  C4  UNL     1      29.361   1.339  54.333  1.00  0.00     0.000 A 
HETATM   14  C5  UNL     1      28.557   2.255  53.769  1.00  0.00     0.004 A 
BRANCH  11  15
HETATM   15  N1  UNL     1      26.449  -0.790  54.210  1.00  0.00    -0.396 N 
HETATM   16  C1  UNL     1      25.229  -0.714  55.002  1.00  0.00     0.146 C 
HETATM   17  H4  UNL     1      26.583  -1.736  53.775  1.00  0.00     0.159 HD
ENDBRANCH  11  15
ENDBRANCH   8  10
ENDBRANCH   1   8
BRANCH   7  18
HETATM   18  C12 UNL     1      26.422   4.733  49.137  1.00  0.00     0.047 C 
BRANCH  18  19
HETATM   19  C13 UNL     1      27.802   4.901  48.544  1.00  0.00     0.128 C 
BRANCH  19  20
HETATM   20  N5  UNL     1      28.382   6.150  48.941  1.00  0.00    -0.343 N 
HETATM   21  C14 UNL     1      29.658   6.643  48.589  1.00  0.00     0.313 C 
HETATM   22  N6  UNL     1      30.194   7.882  49.006  1.00  0.00    -0.352 N 
HETATM   23  O1  UNL     1      30.408   5.956  47.851  1.00  0.00    -0.248 OA
HETATM   24  H19 UNL     1      30.228   8.825  48.526  1.00  0.00     0.160 HD
HETATM   25  H20 UNL     1      30.690   8.375  49.776  1.00  0.00     0.160 HD
HETATM   26  H18 UNL     1      27.855   6.828  49.566  1.00  0.00     0.164 HD
ENDBRANCH  19  20
ENDBRANCH  18  19
ENDBRANCH   7  18
TORSDOF 6
ENDMDL
MODEL 8
REMARK VINA RESULT:      -6.6      1.871      5.136
REMARK  6 active torsions:
REMARK  status: ('A' for Active; 'I' for Inactive)
REMARK    1  A    between atoms: N1_2  and  C2_3 
REMARK    2  A    between atoms: C6_7  and  N2_8 
REMARK    3  A    between atoms: N2_8  and  C7_9 
REMARK    4  A    between atoms: C11_15  and  C12_16 
REMARK    5  A    between atoms: C12_16  and  C13_17 
REMARK    6  A    between atoms: C13_17  and  N5_18 
REMARK       I    between atoms: N5_18  and  C14_19 
REMARK       I    between atoms: C14_19  and  N6_20 
ROOT
HETATM    1  C7  UNL     1      23.779  -0.264  53.487  1.00  0.00     0.133 A 
HETATM    2  N3  UNL     1      24.224  -0.816  54.563  1.00  0.00    -0.225 NA
HETATM    3  C8  UNL     1      23.309  -1.439  55.456  1.00  0.00     0.229 A 
HETATM    4  N4  UNL     1      22.041  -1.525  55.318  1.00  0.00    -0.278 NA
HETATM    5  C9  UNL     1      21.335  -0.976  54.184  1.00  0.00     0.192 A 
HETATM    6  C10 UNL     1      22.336  -0.334  53.296  1.00  0.00     0.004 A 
HETATM    7  C11 UNL     1      21.844   0.253  52.191  1.00  0.00    -0.012 C 
ENDROOT
BRANCH   1   8
HETATM    8  N2  UNL     1      24.655   0.364  52.574  1.00  0.00    -0.361 N 
HETATM    9  H9  UNL     1      24.849  -0.155  51.680  1.00  0.00     0.162 HD
BRANCH   8  10
HETATM   10  C6  UNL     1      25.222   1.672  52.935  1.00  0.00     0.156 A 
HETATM   11  C2  UNL     1      26.558   1.507  53.562  1.00  0.00     0.031 A 
HETATM   12  C3  UNL     1      27.496   1.999  52.767  1.00  0.00     0.027 A 
HETATM   13  C4  UNL     1      26.896   2.534  51.548  1.00  0.00     0.000 A 
HETATM   14  C5  UNL     1      25.570   2.341  51.654  1.00  0.00     0.004 A 
BRANCH  11  15
HETATM   15  N1  UNL     1      27.036   0.955  54.790  1.00  0.00    -0.396 N 
HETATM   16  C1  UNL     1      28.317   0.266  54.868  1.00  0.00     0.146 C 
HETATM   17  H4  UNL     1      26.543   0.984  55.716  1.00  0.00     0.159 HD
ENDBRANCH  11  15
ENDBRANCH   8  10
ENDBRANCH   1   8
BRANCH   7  18
HETATM   18  C12 UNL     1      20.482   0.410  51.632  1.00  0.00     0.047 C 
BRANCH  18  19
HETATM   19  C13 UNL     1      19.740   1.606  52.181  1.00  0.00     0.128 C 
BRANCH  19  20
HETATM   20  N5  UNL     1      20.649   2.653  52.539  1.00  0.00    -0.343 N 
HETATM   21  C14 UNL     1      20.957   3.806  51.784  1.00  0.00     0.313 C 
HETATM   22  N6  UNL     1      21.864   4.817  52.175  1.00  0.00    -0.352 N 
HETATM   23  O1  UNL     1      20.403   3.985  50.669  1.00  0.00    -0.248 OA
HETATM   24  H19 UNL     1      21.707   5.753  52.643  1.00  0.00     0.160 HD
HETATM   25  H20 UNL     1      22.867   5.091  52.201  1.00  0.00     0.160 HD
HETATM   26  H18 UNL     1      21.185   2.628  53.456  1.00  0.00     0.164 HD
ENDBRANCH  19  20
ENDBRANCH  18  19
ENDBRANCH   7  18
TORSDOF 6
ENDMDL
MODEL 9
REMARK VINA RESULT:      -6.6      2.517      6.504
REMARK  6 active torsions:
REMARK  status: ('A' for Active; 'I' for Inactive)
REMARK    1  A    between atoms: N1_2  and  C2_3 
REMARK    2  A    between atoms: C6_7  and  N2_8 
REMARK    3  A    between atoms: N2_8  and  C7_9 
REMARK    4  A    between atoms: C11_15  and  C12_16 
REMARK    5  A    between atoms: C12_16  and  C13_17 
REMARK    6  A    between atoms: C13_17  and  N5_18 
REMARK       I    between atoms: N5_18  and  C14_19 
REMARK       I    between atoms: C14_19  and  N6_20 
ROOT
HETATM    1  C7  UNL     1      23.711   3.147  51.715  1.00  0.00     0.133 A 
HETATM    2  N3  UNL     1      22.597   3.780  51.583  1.00  0.00    -0.225 NA
HETATM    3  C8  UNL     1      21.400   3.195  52.081  1.00  0.00     0.229 A 
HETATM    4  N4  UNL     1      21.287   2.066  52.672  1.00  0.00    -0.278 NA
HETATM    5  C9  UNL     1      22.410   1.195  52.926  1.00  0.00     0.192 A 
HETATM    6  C10 UNL     1      23.624   1.852  52.378  1.00  0.00     0.004 A 
HETATM    7  C11 UNL     1      24.770   1.161  52.510  1.00  0.00    -0.012 C 
ENDROOT
BRANCH   1   8
HETATM    8  N2  UNL     1      24.922   3.695  51.236  1.00  0.00    -0.361 N 
HETATM    9  H9  UNL     1      25.603   4.030  51.964  1.00  0.00     0.162 HD
BRANCH   8  10
HETATM   10  C6  UNL     1      25.136   3.754  49.782  1.00  0.00     0.156 A 
HETATM   11  C2  UNL     1      25.120   5.162  49.310  1.00  0.00     0.031 A 
HETATM   12  C3  UNL     1      26.325   5.513  48.890  1.00  0.00     0.027 A 
HETATM   13  C4  UNL     1      27.256   4.398  49.036  1.00  0.00     0.000 A 
HETATM   14  C5  UNL     1      26.556   3.376  49.556  1.00  0.00     0.004 A 
BRANCH  11  15
HETATM   15  N1  UNL     1      24.125   6.183  49.211  1.00  0.00    -0.396 N 
HETATM   16  C1  UNL     1      24.047   7.062  48.052  1.00  0.00     0.146 C 
HETATM   17  H4  UNL     1      23.384   6.398  49.924  1.00  0.00     0.159 HD
ENDBRANCH  11  15
ENDBRANCH   8  10
ENDBRANCH   1   8
BRANCH   7  18
HETATM   18  C12 UNL     1      25.115  -0.151  53.101  1.00  0.00     0.047 C 
BRANCH  18  19
HETATM   19  C13 UNL     1      26.066  -0.053  54.271  1.00  0.00     0.128 C 
BRANCH  19  20
HETATM   20  N5  UNL     1      27.343  -0.614  53.943  1.00  0.00    -0.343 N 
HETATM   21  C14 UNL     1      28.609  -0.126  54.331  1.00  0.00     0.313 C 
HETATM   22  N6  UNL     1      29.848  -0.711  53.983  1.00  0.00    -0.352 N 
HETATM   23  O1  UNL     1      28.686   0.909  55.042  1.00  0.00    -0.248 OA
HETATM   24  H19 UNL     1      30.479  -1.377  54.511  1.00  0.00     0.160 HD
HETATM   25  H20 UNL     1      30.577  -0.774  53.244  1.00  0.00     0.160 HD
HETATM   26  H18 UNL     1      27.423  -1.491  53.348  1.00  0.00     0.164 HD
ENDBRANCH  19  20
ENDBRANCH  18  19
ENDBRANCH   7  18
TORSDOF 6
ENDMDL
