MODEL 1
REMARK VINA RESULT:      -6.9      0.000      0.000
REMARK  9 active torsions:
REMARK  status: ('A' for Active; 'I' for Inactive)
REMARK    1  A    between atoms: C2_2  and  C3_4 
REMARK    2  A    between atoms: N1_9  and  C8_10 
REMARK    3  A    between atoms: C8_10  and  C9_11 
REMARK    4  A    between atoms: C9_11  and  S1_12 
REMARK    5  A    between atoms: S1_12  and  C10_13 
REMARK    6  A    between atoms: C10_13  and  C11_14 
REMARK    7  A    between atoms: C12_15  and  N2_17 
REMARK    8  A    between atoms: N2_17  and  C14_18 
REMARK    9  A    between atoms: C14_18  and  N3_20 
ROOT
HETATM    1  C8  UNL     1      23.154   3.294  52.362  1.00  0.00     0.234 C 
ENDROOT
BRANCH   1   2
HETATM    2  N1  UNL     1      24.126   2.365  52.893  1.00  0.00    -0.313 N 
HETATM    3  C7  UNL     1      23.564   1.059  52.982  1.00  0.00     0.105 C 
HETATM    4  C6  UNL     1      24.234  -0.104  53.019  1.00  0.00     0.019 C 
HETATM    5  C5  UNL     1      25.611  -0.602  52.995  1.00  0.00     0.014 C 
HETATM    6  C4  UNL     1      26.642   0.107  52.595  1.00  0.00    -0.016 C 
HETATM    7  C3  UNL     1      26.971   1.125  53.373  1.00  0.00    -0.012 C 
HETATM    8  C16 UNL     1      26.166   2.154  54.055  1.00  0.00     0.151 C 
HETATM    9  N4  UNL     1      25.374   2.970  53.186  1.00  0.00    -0.234 NA
HETATM   10  H21 UNL     1      25.171   3.896  53.622  1.00  0.00     0.147 HD
BRANCH   7  11
HETATM   11  C2  UNL     1      28.407   1.237  53.588  1.00  0.00     0.033 C 
HETATM   12  C1  UNL     1      28.998   2.400  53.800  1.00  0.00     0.037 C 
HETATM   13 CL1  UNL     1      29.385  -0.231  53.565  1.00  0.00    -0.085 Cl
ENDBRANCH   7  11
ENDBRANCH   1   2
BRANCH   1  14
HETATM   14  C9  UNL     1      23.609   3.960  51.206  1.00  0.00    -0.091 C 
BRANCH  14  15
HETATM   15  S1  UNL     1      24.000   4.572  50.173  1.00  0.00    -0.086 SA
BRANCH  15  16
HETATM   16  C10 UNL     1      24.502   5.311  48.884  1.00  0.00     0.116 C 
BRANCH  16  17
HETATM   17  C11 UNL     1      25.655   6.215  49.067  1.00  0.00     0.008 C 
HETATM   18  C12 UNL     1      26.973   6.244  48.925  1.00  0.00    -0.001 C 
HETATM   19  C13 UNL     1      27.883   5.187  48.454  1.00  0.00     0.067 C 
BRANCH  18  20
HETATM   20  N2  UNL     1      27.667   7.436  49.257  1.00  0.00    -0.365 N 
HETATM   21  H14 UNL     1      28.655   7.145  49.213  1.00  0.00     0.161 HD
BRANCH  20  22
HETATM   22  C14 UNL     1      27.070   8.722  49.570  1.00  0.00     0.312 C 
HETATM   23  C15 UNL     1      27.319   9.752  48.516  1.00  0.00     0.065 C 
BRANCH  22  24
HETATM   24  N3  UNL     1      27.523   9.185  50.850  1.00  0.00     0.100 N 
HETATM   25  H19 UNL     1      27.457  10.215  50.929  1.00  0.00     0.315 HD
HETATM   26  H20 UNL     1      26.975   8.716  51.620  1.00  0.00     0.315 HD
ENDBRANCH  22  24
ENDBRANCH  20  22
ENDBRANCH  18  20
ENDBRANCH  16  17
ENDBRANCH  15  16
ENDBRANCH  14  15
ENDBRANCH   1  14
TORSDOF 9
ENDMDL
MODEL 2
REMARK VINA RESULT:      -6.7      1.450      2.010
REMARK  9 active torsions:
REMARK  status: ('A' for Active; 'I' for Inactive)
REMARK    1  A    between atoms: C2_2  and  C3_4 
REMARK    2  A    between atoms: N1_9  and  C8_10 
REMARK    3  A    between atoms: C8_10  and  C9_11 
REMARK    4  A    between atoms: C9_11  and  S1_12 
REMARK    5  A    between atoms: S1_12  and  C10_13 
REMARK    6  A    between atoms: C10_13  and  C11_14 
REMARK    7  A    between atoms: C12_15  and  N2_17 
REMARK    8  A    between atoms: N2_17  and  C14_18 
REMARK    9  A    between atoms: C14_18  and  N3_20 
ROOT
HETATM    1  C8  UNL     1      23.622   3.144  52.392  1.00  0.00     0.234 C 
ENDROOT
BRANCH   1   2
HETATM    2  N1  UNL     1      24.513   2.153  52.952  1.00  0.00    -0.313 N 
HETATM    3  C7  UNL     1      23.859   0.889  53.031  1.00  0.00     0.105 C 
HETATM    4  C6  UNL     1      24.445  -0.317  53.090  1.00  0.00     0.019 C 
HETATM    5  C5  UNL     1      25.785  -0.911  53.104  1.00  0.00     0.014 C 
HETATM    6  C4  UNL     1      26.872  -0.277  52.729  1.00  0.00    -0.016 C 
HETATM    7  C3  UNL     1      27.251   0.720  53.512  1.00  0.00    -0.012 C 
HETATM    8  C16 UNL     1      26.502   1.806  54.168  1.00  0.00     0.151 C 
HETATM    9  N4  UNL     1      25.792   2.670  53.276  1.00  0.00    -0.234 NA
HETATM   10  H21 UNL     1      25.643   3.611  53.702  1.00  0.00     0.147 HD
BRANCH   7  11
HETATM   11  C2  UNL     1      28.685   0.733  53.764  1.00  0.00     0.033 C 
HETATM   12  C1  UNL     1      29.314   1.811  54.197  1.00  0.00     0.037 C 
HETATM   13 CL1  UNL     1      29.610  -0.743  53.481  1.00  0.00    -0.085 Cl
ENDBRANCH   7  11
ENDBRANCH   1   2
BRANCH   1  14
HETATM   14  C9  UNL     1      24.174   3.807  51.277  1.00  0.00    -0.091 C 
BRANCH  14  15
HETATM   15  S1  UNL     1      24.665   4.420  50.288  1.00  0.00    -0.086 SA
BRANCH  15  16
HETATM   16  C10 UNL     1      25.251   5.186  49.052  1.00  0.00     0.116 C 
BRANCH  16  17
HETATM   17  C11 UNL     1      26.723   5.199  48.940  1.00  0.00     0.008 C 
HETATM   18  C12 UNL     1      27.714   5.958  48.494  1.00  0.00    -0.001 C 
HETATM   19  C13 UNL     1      27.657   7.277  47.842  1.00  0.00     0.067 C 
BRANCH  18  20
HETATM   20  N2  UNL     1      29.047   5.491  48.636  1.00  0.00    -0.365 N 
HETATM   21  H14 UNL     1      28.916   4.499  48.883  1.00  0.00     0.161 HD
BRANCH  20  22
HETATM   22  C14 UNL     1      30.257   6.273  48.460  1.00  0.00     0.312 C 
HETATM   23  C15 UNL     1      31.137   5.749  47.372  1.00  0.00     0.065 C 
BRANCH  22  24
HETATM   24  N3  UNL     1      30.978   6.364  49.697  1.00  0.00     0.100 N 
HETATM   25  H19 UNL     1      31.529   7.238  49.755  1.00  0.00     0.315 HD
HETATM   26  H20 UNL     1      30.312   6.288  50.512  1.00  0.00     0.315 HD
ENDBRANCH  22  24
ENDBRANCH  20  22
ENDBRANCH  18  20
ENDBRANCH  16  17
ENDBRANCH  15  16
ENDBRANCH  14  15
ENDBRANCH   1  14
TORSDOF 9
ENDMDL
MODEL 3
REMARK VINA RESULT:      -6.5      2.702      7.272
REMARK  9 active torsions:
REMARK  status: ('A' for Active; 'I' for Inactive)
REMARK    1  A    between atoms: C2_2  and  C3_4 
REMARK    2  A    between atoms: N1_9  and  C8_10 
REMARK    3  A    between atoms: C8_10  and  C9_11 
REMARK    4  A    between atoms: C9_11  and  S1_12 
REMARK    5  A    between atoms: S1_12  and  C10_13 
REMARK    6  A    between atoms: C10_13  and  C11_14 
REMARK    7  A    between atoms: C12_15  and  N2_17 
REMARK    8  A    between atoms: N2_17  and  C14_18 
REMARK    9  A    between atoms: C14_18  and  N3_20 
ROOT
HETATM    1  C8  UNL     1      23.479   4.629  52.082  1.00  0.00     0.234 C 
ENDROOT
BRANCH   1   2
HETATM    2  N1  UNL     1      24.033   4.927  50.781  1.00  0.00    -0.313 N 
HETATM    3  C7  UNL     1      22.988   5.140  49.836  1.00  0.00     0.105 C 
HETATM    4  C6  UNL     1      23.074   5.823  48.683  1.00  0.00     0.019 C 
HETATM    5  C5  UNL     1      24.057   6.576  47.899  1.00  0.00     0.014 C 
HETATM    6  C4  UNL     1      25.186   7.038  48.386  1.00  0.00    -0.016 C 
HETATM    7  C3  UNL     1      26.080   6.122  48.720  1.00  0.00    -0.012 C 
HETATM    8  C16 UNL     1      25.966   4.838  49.435  1.00  0.00     0.151 C 
HETATM    9  N4  UNL     1      25.450   4.936  50.766  1.00  0.00    -0.234 NA
HETATM   10  H21 UNL     1      25.768   4.134  51.353  1.00  0.00     0.147 HD
BRANCH   7  11
HETATM   11  C2  UNL     1      27.430   6.461  48.293  1.00  0.00     0.033 C 
HETATM   12  C1  UNL     1      27.758   7.678  47.898  1.00  0.00     0.037 C 
HETATM   13 CL1  UNL     1      28.667   5.202  48.310  1.00  0.00    -0.085 Cl
ENDBRANCH   7  11
ENDBRANCH   1   2
BRANCH   1  14
HETATM   14  C9  UNL     1      23.673   3.285  52.464  1.00  0.00    -0.091 C 
BRANCH  14  15
HETATM   15  S1  UNL     1      23.828   2.077  52.796  1.00  0.00    -0.086 SA
BRANCH  15  16
HETATM   16  C10 UNL     1      24.045   0.577  53.199  1.00  0.00     0.116 C 
BRANCH  16  17
HETATM   17  C11 UNL     1      25.394   0.231  53.689  1.00  0.00     0.008 C 
HETATM   18  C12 UNL     1      26.406  -0.586  53.428  1.00  0.00    -0.001 C 
HETATM   19  C13 UNL     1      26.533  -1.603  52.371  1.00  0.00     0.067 C 
BRANCH  18  20
HETATM   20  N2  UNL     1      27.562  -0.521  54.248  1.00  0.00    -0.365 N 
HETATM   21  H14 UNL     1      27.282  -1.059  55.081  1.00  0.00     0.161 HD
BRANCH  20  22
HETATM   22  C14 UNL     1      28.806   0.156  53.931  1.00  0.00     0.312 C 
HETATM   23  C15 UNL     1      29.964  -0.779  53.809  1.00  0.00     0.065 C 
BRANCH  22  24
HETATM   24  N3  UNL     1      29.079   1.180  54.898  1.00  0.00     0.100 N 
HETATM   25  H19 UNL     1      29.619   0.813  55.701  1.00  0.00     0.315 HD
HETATM   26  H20 UNL     1      29.588   1.984  54.442  1.00  0.00     0.315 HD
ENDBRANCH  22  24
ENDBRANCH  20  22
ENDBRANCH  18  20
ENDBRANCH  16  17
ENDBRANCH  15  16
ENDBRANCH  14  15
ENDBRANCH   1  14
TORSDOF 9
ENDMDL
MODEL 4
REMARK VINA RESULT:      -6.4      3.402      4.723
REMARK  9 active torsions:
REMARK  status: ('A' for Active; 'I' for Inactive)
REMARK    1  A    between atoms: C2_2  and  C3_4 
REMARK    2  A    between atoms: N1_9  and  C8_10 
REMARK    3  A    between atoms: C8_10  and  C9_11 
REMARK    4  A    between atoms: C9_11  and  S1_12 
REMARK    5  A    between atoms: S1_12  and  C10_13 
REMARK    6  A    between atoms: C10_13  and  C11_14 
REMARK    7  A    between atoms: C12_15  and  N2_17 
REMARK    8  A    between atoms: N2_17  and  C14_18 
REMARK    9  A    between atoms: C14_18  and  N3_20 
ROOT
HETATM    1  C8  UNL     1      25.418   4.224  49.268  1.00  0.00     0.234 C 
ENDROOT
BRANCH   1   2
HETATM    2  N1  UNL     1      25.537   3.473  50.498  1.00  0.00    -0.313 N 
HETATM    3  C7  UNL     1      24.444   3.768  51.364  1.00  0.00     0.105 C 
HETATM    4  C6  UNL     1      23.983   3.001  52.365  1.00  0.00     0.019 C 
HETATM    5  C5  UNL     1      24.259   1.714  53.008  1.00  0.00     0.014 C 
HETATM    6  C4  UNL     1      24.981   0.762  52.463  1.00  0.00    -0.016 C 
HETATM    7  C3  UNL     1      26.270   1.028  52.329  1.00  0.00    -0.012 C 
HETATM    8  C16 UNL     1      26.993   2.229  51.873  1.00  0.00     0.151 C 
HETATM    9  N4  UNL     1      26.685   2.644  50.538  1.00  0.00    -0.234 NA
HETATM   10  H21 UNL     1      27.472   3.190  50.123  1.00  0.00     0.147 HD
BRANCH   7  11
HETATM   11  C2  UNL     1      27.125  -0.088  52.708  1.00  0.00     0.033 C 
HETATM   12  C1  UNL     1      26.753  -1.345  52.548  1.00  0.00     0.037 C 
HETATM   13 CL1  UNL     1      28.712   0.257  53.399  1.00  0.00    -0.085 Cl
ENDBRANCH   7  11
ENDBRANCH   1   2
BRANCH   1  14
HETATM   14  C9  UNL     1      26.608   4.895  48.921  1.00  0.00    -0.091 C 
BRANCH  14  15
HETATM   15  S1  UNL     1      27.669   5.494  48.589  1.00  0.00    -0.086 SA
BRANCH  15  16
HETATM   16  C10 UNL     1      28.975   6.244  48.153  1.00  0.00     0.116 C 
BRANCH  16  17
HETATM   17  C11 UNL     1      30.237   5.501  48.337  1.00  0.00     0.008 C 
HETATM   18  C12 UNL     1      31.433   5.350  47.784  1.00  0.00    -0.001 C 
HETATM   19  C13 UNL     1      31.992   5.992  46.583  1.00  0.00     0.067 C 
BRANCH  18  20
HETATM   20  N2  UNL     1      32.355   4.456  48.389  1.00  0.00    -0.365 N 
HETATM   21  H14 UNL     1      32.067   4.466  49.378  1.00  0.00     0.161 HD
BRANCH  20  22
HETATM   22  C14 UNL     1      33.421   3.734  47.718  1.00  0.00     0.312 C 
HETATM   23  C15 UNL     1      33.102   2.291  47.501  1.00  0.00     0.065 C 
BRANCH  22  24
HETATM   24  N3  UNL     1      34.653   3.879  48.439  1.00  0.00     0.100 N 
HETATM   25  H19 UNL     1      34.893   3.020  48.963  1.00  0.00     0.315 HD
HETATM   26  H20 UNL     1      35.432   4.143  47.778  1.00  0.00     0.315 HD
ENDBRANCH  22  24
ENDBRANCH  20  22
ENDBRANCH  18  20
ENDBRANCH  16  17
ENDBRANCH  15  16
ENDBRANCH  14  15
ENDBRANCH   1  14
TORSDOF 9
ENDMDL
MODEL 5
REMARK VINA RESULT:      -6.3      2.069      2.537
REMARK  9 active torsions:
REMARK  status: ('A' for Active; 'I' for Inactive)
REMARK    1  A    between atoms: C2_2  and  C3_4 
REMARK    2  A    between atoms: N1_9  and  C8_10 
REMARK    3  A    between atoms: C8_10  and  C9_11 
REMARK    4  A    between atoms: C9_11  and  S1_12 
REMARK    5  A    between atoms: S1_12  and  C10_13 
REMARK    6  A    between atoms: C10_13  and  C11_14 
REMARK    7  A    between atoms: C12_15  and  N2_17 
REMARK    8  A    between atoms: N2_17  and  C14_18 
REMARK    9  A    between atoms: C14_18  and  N3_20 
ROOT
HETATM    1  C8  UNL     1      25.363   3.305  50.014  1.00  0.00     0.234 C 
ENDROOT
BRANCH   1   2
HETATM    2  N1  UNL     1      25.760   2.537  51.173  1.00  0.00    -0.313 N 
HETATM    3  C7  UNL     1      24.692   1.695  51.596  1.00  0.00     0.105 C 
HETATM    4  C6  UNL     1      24.795   0.576  52.332  1.00  0.00     0.019 C 
HETATM    5  C5  UNL     1      25.819  -0.247  52.981  1.00  0.00     0.014 C 
HETATM    6  C4  UNL     1      27.100  -0.183  52.697  1.00  0.00    -0.016 C 
HETATM    7  C3  UNL     1      27.707   0.938  53.049  1.00  0.00    -0.012 C 
HETATM    8  C16 UNL     1      27.319   2.355  52.932  1.00  0.00     0.151 C 
HETATM    9  N4  UNL     1      27.087   2.806  51.593  1.00  0.00    -0.234 NA
HETATM   10  H21 UNL     1      27.231   3.836  51.513  1.00  0.00     0.147 HD
BRANCH   7  11
HETATM   11  C2  UNL     1      29.006   0.713  53.667  1.00  0.00     0.033 C 
HETATM   12  C1  UNL     1      29.671  -0.417  53.515  1.00  0.00     0.037 C 
HETATM   13 CL1  UNL     1      29.711   1.999  54.649  1.00  0.00    -0.085 Cl
ENDBRANCH   7  11
ENDBRANCH   1   2
BRANCH   1  14
HETATM   14  C9  UNL     1      26.436   4.014  49.435  1.00  0.00    -0.091 C 
BRANCH  14  15
HETATM   15  S1  UNL     1      27.400   4.631  48.902  1.00  0.00    -0.086 SA
BRANCH  15  16
HETATM   16  C10 UNL     1      28.593   5.418  48.258  1.00  0.00     0.116 C 
BRANCH  16  17
HETATM   17  C11 UNL     1      28.484   6.890  48.287  1.00  0.00     0.008 C 
HETATM   18  C12 UNL     1      28.736   7.956  47.539  1.00  0.00    -0.001 C 
HETATM   19  C13 UNL     1      29.316   8.030  46.188  1.00  0.00     0.067 C 
BRANCH  18  20
HETATM   20  N2  UNL     1      28.424   9.240  48.056  1.00  0.00    -0.365 N 
HETATM   21  H14 UNL     1      27.685   9.570  47.417  1.00  0.00     0.161 HD
BRANCH  20  22
HETATM   22  C14 UNL     1      29.033   9.876  49.211  1.00  0.00     0.312 C 
HETATM   23  C15 UNL     1      30.482   9.544  49.361  1.00  0.00     0.065 C 
BRANCH  22  24
HETATM   24  N3  UNL     1      28.309   9.545  50.404  1.00  0.00     0.100 N 
HETATM   25  H19 UNL     1      28.929   9.524  51.233  1.00  0.00     0.315 HD
HETATM   26  H20 UNL     1      27.515  10.224  50.548  1.00  0.00     0.315 HD
ENDBRANCH  22  24
ENDBRANCH  20  22
ENDBRANCH  18  20
ENDBRANCH  16  17
ENDBRANCH  15  16
ENDBRANCH  14  15
ENDBRANCH   1  14
TORSDOF 9
ENDMDL
MODEL 6
REMARK VINA RESULT:      -6.2      2.000      2.848
REMARK  9 active torsions:
REMARK  status: ('A' for Active; 'I' for Inactive)
REMARK    1  A    between atoms: C2_2  and  C3_4 
REMARK    2  A    between atoms: N1_9  and  C8_10 
REMARK    3  A    between atoms: C8_10  and  C9_11 
REMARK    4  A    between atoms: C9_11  and  S1_12 
REMARK    5  A    between atoms: S1_12  and  C10_13 
REMARK    6  A    between atoms: C10_13  and  C11_14 
REMARK    7  A    between atoms: C12_15  and  N2_17 
REMARK    8  A    between atoms: N2_17  and  C14_18 
REMARK    9  A    between atoms: C14_18  and  N3_20 
ROOT
HETATM    1  C8  UNL     1      25.463   3.610  49.573  1.00  0.00     0.234 C 
ENDROOT
BRANCH   1   2
HETATM    2  N1  UNL     1      25.614   2.871  50.806  1.00  0.00    -0.313 N 
HETATM    3  C7  UNL     1      24.439   2.995  51.602  1.00  0.00     0.105 C 
HETATM    4  C6  UNL     1      24.033   2.158  52.572  1.00  0.00     0.019 C 
HETATM    5  C5  UNL     1      24.454   0.918  53.228  1.00  0.00     0.014 C 
HETATM    6  C4  UNL     1      25.339   0.087  52.728  1.00  0.00    -0.016 C 
HETATM    7  C3  UNL     1      26.581   0.540  52.675  1.00  0.00    -0.012 C 
HETATM    8  C16 UNL     1      27.148   1.838  52.267  1.00  0.00     0.151 C 
HETATM    9  N4  UNL     1      26.866   2.218  50.916  1.00  0.00    -0.234 NA
HETATM   10  H21 UNL     1      27.589   2.877  50.553  1.00  0.00     0.147 HD
BRANCH   7  11
HETATM   11  C2  UNL     1      27.565  -0.444  53.105  1.00  0.00     0.033 C 
HETATM   12  C1  UNL     1      28.646  -0.107  53.786  1.00  0.00     0.037 C 
HETATM   13 CL1  UNL     1      27.299  -2.141  52.702  1.00  0.00    -0.085 Cl
ENDBRANCH   7  11
ENDBRANCH   1   2
BRANCH   1  14
HETATM   14  C9  UNL     1      25.459   5.006  49.769  1.00  0.00    -0.091 C 
BRANCH  14  15
HETATM   15  S1  UNL     1      25.461   6.253  49.966  1.00  0.00    -0.086 SA
BRANCH  15  16
HETATM   16  C10 UNL     1      25.436   7.801  50.216  1.00  0.00     0.116 C 
BRANCH  16  17
HETATM   17  C11 UNL     1      26.752   8.469  50.252  1.00  0.00     0.008 C 
HETATM   18  C12 UNL     1      27.474   9.359  49.583  1.00  0.00    -0.001 C 
HETATM   19  C13 UNL     1      27.133  10.105  48.361  1.00  0.00     0.067 C 
BRANCH  18  20
HETATM   20  N2  UNL     1      28.769   9.684  50.063  1.00  0.00    -0.365 N 
HETATM   21  H14 UNL     1      28.632   9.720  51.084  1.00  0.00     0.161 HD
BRANCH  20  22
HETATM   22  C14 UNL     1      29.957   9.900  49.257  1.00  0.00     0.312 C 
HETATM   23  C15 UNL     1      30.896   8.738  49.280  1.00  0.00     0.065 C 
BRANCH  22  24
HETATM   24  N3  UNL     1      30.626  11.101  49.665  1.00  0.00     0.100 N 
HETATM   25  H19 UNL     1      30.905  11.678  48.852  1.00  0.00     0.315 HD
HETATM   26  H20 UNL     1      30.013  11.654  50.322  1.00  0.00     0.315 HD
ENDBRANCH  22  24
ENDBRANCH  20  22
ENDBRANCH  18  20
ENDBRANCH  16  17
ENDBRANCH  15  16
ENDBRANCH  14  15
ENDBRANCH   1  14
TORSDOF 9
ENDMDL
MODEL 7
REMARK VINA RESULT:      -6.2      2.829      7.445
REMARK  9 active torsions:
REMARK  status: ('A' for Active; 'I' for Inactive)
REMARK    1  A    between atoms: C2_2  and  C3_4 
REMARK    2  A    between atoms: N1_9  and  C8_10 
REMARK    3  A    between atoms: C8_10  and  C9_11 
REMARK    4  A    between atoms: C9_11  and  S1_12 
REMARK    5  A    between atoms: S1_12  and  C10_13 
REMARK    6  A    between atoms: C10_13  and  C11_14 
REMARK    7  A    between atoms: C12_15  and  N2_17 
REMARK    8  A    between atoms: N2_17  and  C14_18 
REMARK    9  A    between atoms: C14_18  and  N3_20 
ROOT
HETATM    1  C8  UNL     1      25.270   5.932  49.700  1.00  0.00     0.234 C 
ENDROOT
BRANCH   1   2
HETATM    2  N1  UNL     1      26.464   6.117  48.906  1.00  0.00    -0.313 N 
HETATM    3  C7  UNL     1      26.251   7.125  47.922  1.00  0.00     0.105 C 
HETATM    4  C6  UNL     1      27.193   7.854  47.301  1.00  0.00     0.019 C 
HETATM    5  C5  UNL     1      28.649   8.011  47.274  1.00  0.00     0.014 C 
HETATM    6  C4  UNL     1      29.453   7.570  48.215  1.00  0.00    -0.016 C 
HETATM    7  C3  UNL     1      29.546   6.254  48.315  1.00  0.00    -0.012 C 
HETATM    8  C16 UNL     1      28.535   5.182  48.279  1.00  0.00     0.151 C 
HETATM    9  N4  UNL     1      27.531   5.269  49.295  1.00  0.00    -0.234 NA
HETATM   10  H21 UNL     1      27.119   4.332  49.498  1.00  0.00     0.147 HD
BRANCH   7  11
HETATM   11  C2  UNL     1      30.914   5.791  48.495  1.00  0.00     0.033 C 
HETATM   12  C1  UNL     1      31.671   6.205  49.496  1.00  0.00     0.037 C 
HETATM   13 CL1  UNL     1      31.579   4.637  47.338  1.00  0.00    -0.085 Cl
ENDBRANCH   7  11
ENDBRANCH   1   2
BRANCH   1  14
HETATM   14  C9  UNL     1      25.192   4.648  50.278  1.00  0.00    -0.091 C 
BRANCH  14  15
HETATM   15  S1  UNL     1      25.101   3.498  50.791  1.00  0.00    -0.086 SA
BRANCH  15  16
HETATM   16  C10 UNL     1      24.976   2.061  51.405  1.00  0.00     0.116 C 
BRANCH  16  17
HETATM   17  C11 UNL     1      26.014   1.687  52.386  1.00  0.00     0.008 C 
HETATM   18  C12 UNL     1      26.548   0.619  52.964  1.00  0.00    -0.001 C 
HETATM   19  C13 UNL     1      26.214  -0.803  52.782  1.00  0.00     0.067 C 
BRANCH  18  20
HETATM   20  N2  UNL     1      27.598   0.805  53.900  1.00  0.00    -0.365 N 
HETATM   21  H14 UNL     1      27.125   0.659  54.805  1.00  0.00     0.161 HD
BRANCH  20  22
HETATM   22  C14 UNL     1      28.981   1.122  53.593  1.00  0.00     0.312 C 
HETATM   23  C15 UNL     1      29.867  -0.081  53.588  1.00  0.00     0.065 C 
BRANCH  22  24
HETATM   24  N3  UNL     1      29.479   2.117  54.498  1.00  0.00     0.100 N 
HETATM   25  H19 UNL     1      29.481   1.778  55.475  1.00  0.00     0.315 HD
HETATM   26  H20 UNL     1      30.446   2.422  54.206  1.00  0.00     0.315 HD
ENDBRANCH  22  24
ENDBRANCH  20  22
ENDBRANCH  18  20
ENDBRANCH  16  17
ENDBRANCH  15  16
ENDBRANCH  14  15
ENDBRANCH   1  14
TORSDOF 9
ENDMDL
MODEL 8
REMARK VINA RESULT:      -6.2      3.283      4.778
REMARK  9 active torsions:
REMARK  status: ('A' for Active; 'I' for Inactive)
REMARK    1  A    between atoms: C2_2  and  C3_4 
REMARK    2  A    between atoms: N1_9  and  C8_10 
REMARK    3  A    between atoms: C8_10  and  C9_11 
REMARK    4  A    between atoms: C9_11  and  S1_12 
REMARK    5  A    between atoms: S1_12  and  C10_13 
REMARK    6  A    between atoms: C10_13  and  C11_14 
REMARK    7  A    between atoms: C12_15  and  N2_17 
REMARK    8  A    between atoms: N2_17  and  C14_18 
REMARK    9  A    between atoms: C14_18  and  N3_20 
ROOT
HETATM    1  C8  UNL     1      24.426   2.318  53.103  1.00  0.00     0.234 C 
ENDROOT
BRANCH   1   2
HETATM    2  N1  UNL     1      23.487   1.221  53.026  1.00  0.00    -0.313 N 
HETATM    3  C7  UNL     1      23.989   0.091  53.733  1.00  0.00     0.105 C 
HETATM    4  C6  UNL     1      23.272  -0.928  54.234  1.00  0.00     0.019 C 
HETATM    5  C5  UNL     1      21.880  -1.375  54.330  1.00  0.00     0.014 C 
HETATM    6  C4  UNL     1      20.843  -0.592  54.137  1.00  0.00    -0.016 C 
HETATM    7  C3  UNL     1      20.673  -0.166  52.896  1.00  0.00    -0.012 C 
HETATM    8  C16 UNL     1      21.613   0.355  51.888  1.00  0.00     0.151 C 
HETATM    9  N4  UNL     1      22.323   1.534  52.282  1.00  0.00    -0.234 NA
HETATM   10  H21 UNL     1      22.629   2.084  51.450  1.00  0.00     0.147 HD
BRANCH   7  11
HETATM   11  C2  UNL     1      19.286  -0.230  52.456  1.00  0.00     0.033 C 
HETATM   12  C1  UNL     1      18.381  -0.959  53.085  1.00  0.00     0.037 C 
HETATM   13 CL1  UNL     1      18.803   0.703  51.038  1.00  0.00    -0.085 Cl
ENDBRANCH   7  11
ENDBRANCH   1   2
BRANCH   1  14
HETATM   14  C9  UNL     1      24.836   2.777  51.834  1.00  0.00    -0.091 C 
BRANCH  14  15
HETATM   15  S1  UNL     1      25.214   3.204  50.708  1.00  0.00    -0.086 SA
BRANCH  15  16
HETATM   16  C10 UNL     1      25.689   3.709  49.302  1.00  0.00     0.116 C 
BRANCH  16  17
HETATM   17  C11 UNL     1      26.499   4.944  49.300  1.00  0.00     0.008 C 
HETATM   18  C12 UNL     1      26.460   6.200  48.877  1.00  0.00    -0.001 C 
HETATM   19  C13 UNL     1      25.400   6.899  48.132  1.00  0.00     0.067 C 
BRANCH  18  20
HETATM   20  N2  UNL     1      27.566   7.045  49.151  1.00  0.00    -0.365 N 
HETATM   21  H14 UNL     1      28.367   6.401  49.088  1.00  0.00     0.161 HD
BRANCH  20  22
HETATM   22  C14 UNL     1      27.513   8.467  49.442  1.00  0.00     0.312 C 
HETATM   23  C15 UNL     1      28.824   9.153  49.238  1.00  0.00     0.065 C 
BRANCH  22  24
HETATM   24  N3  UNL     1      27.024   8.688  50.772  1.00  0.00     0.100 N 
HETATM   25  H19 UNL     1      26.043   9.016  50.769  1.00  0.00     0.315 HD
HETATM   26  H20 UNL     1      27.122   7.807  51.346  1.00  0.00     0.315 HD
ENDBRANCH  22  24
ENDBRANCH  20  22
ENDBRANCH  18  20
ENDBRANCH  16  17
ENDBRANCH  15  16
ENDBRANCH  14  15
ENDBRANCH   1  14
TORSDOF 9
ENDMDL
MODEL 9
REMARK VINA RESULT:      -6.1      2.108      2.810
REMARK  9 active torsions:
REMARK  status: ('A' for Active; 'I' for Inactive)
REMARK    1  A    between atoms: C2_2  and  C3_4 
REMARK    2  A    between atoms: N1_9  and  C8_10 
REMARK    3  A    between atoms: C8_10  and  C9_11 
REMARK    4  A    between atoms: C9_11  and  S1_12 
REMARK    5  A    between atoms: S1_12  and  C10_13 
REMARK    6  A    between atoms: C10_13  and  C11_14 
REMARK    7  A    between atoms: C12_15  and  N2_17 
REMARK    8  A    between atoms: N2_17  and  C14_18 
REMARK    9  A    between atoms: C14_18  and  N3_20 
ROOT
HETATM    1  C8  UNL     1      20.760   2.643  50.905  1.00  0.00     0.234 C 
ENDROOT
BRANCH   1   2
HETATM    2  N1  UNL     1      21.527   2.010  51.955  1.00  0.00    -0.313 N 
HETATM    3  C7  UNL     1      20.656   1.473  52.947  1.00  0.00     0.105 C 
HETATM    4  C6  UNL     1      20.938   0.490  53.817  1.00  0.00     0.019 C 
HETATM    5  C5  UNL     1      22.043  -0.402  54.177  1.00  0.00     0.014 C 
HETATM    6  C4  UNL     1      23.077  -0.639  53.403  1.00  0.00    -0.016 C 
HETATM    7  C3  UNL     1      23.897   0.383  53.218  1.00  0.00    -0.012 C 
HETATM    8  C16 UNL     1      23.657   1.810  52.943  1.00  0.00     0.151 C 
HETATM    9  N4  UNL     1      22.926   2.075  51.742  1.00  0.00    -0.234 NA
HETATM   10  H21 UNL     1      23.136   3.030  51.377  1.00  0.00     0.147 HD
BRANCH   7  11
HETATM   11  C2  UNL     1      25.302   0.009  53.306  1.00  0.00     0.033 C 
HETATM   12  C1  UNL     1      25.791  -0.655  54.338  1.00  0.00     0.037 C 
HETATM   13 CL1  UNL     1      26.383   0.459  51.985  1.00  0.00    -0.085 Cl
ENDBRANCH   7  11
ENDBRANCH   1   2
BRANCH   1  14
HETATM   14  C9  UNL     1      21.562   3.387  50.015  1.00  0.00    -0.091 C 
BRANCH  14  15
HETATM   15  S1  UNL     1      22.274   4.071  49.229  1.00  0.00    -0.086 SA
BRANCH  15  16
HETATM   16  C10 UNL     1      23.181   4.913  48.266  1.00  0.00     0.116 C 
BRANCH  16  17
HETATM   17  C11 UNL     1      24.374   5.530  48.879  1.00  0.00     0.008 C 
HETATM   18  C12 UNL     1      25.553   5.205  49.391  1.00  0.00    -0.001 C 
HETATM   19  C13 UNL     1      26.167   3.876  49.545  1.00  0.00     0.067 C 
BRANCH  18  20
HETATM   20  N2  UNL     1      26.393   6.240  49.877  1.00  0.00    -0.365 N 
HETATM   21  H14 UNL     1      26.502   5.997  50.873  1.00  0.00     0.161 HD
BRANCH  20  22
HETATM   22  C14 UNL     1      26.935   7.344  49.106  1.00  0.00     0.312 C 
HETATM   23  C15 UNL     1      27.885   6.901  48.041  1.00  0.00     0.065 C 
BRANCH  22  24
HETATM   24  N3  UNL     1      27.555   8.304  49.973  1.00  0.00     0.100 N 
HETATM   25  H19 UNL     1      28.388   7.910  50.444  1.00  0.00     0.315 HD
HETATM   26  H20 UNL     1      27.807   9.173  49.432  1.00  0.00     0.315 HD
ENDBRANCH  22  24
ENDBRANCH  20  22
ENDBRANCH  18  20
ENDBRANCH  16  17
ENDBRANCH  15  16
ENDBRANCH  14  15
ENDBRANCH   1  14
TORSDOF 9
ENDMDL
