MODEL 1
REMARK VINA RESULT:      -6.9      0.000      0.000
REMARK  7 active torsions:
REMARK  status: ('A' for Active; 'I' for Inactive)
REMARK    1  A    between atoms: C2_2  and  C4_6 
REMARK    2  A    between atoms: C3_3  and  N1_4 
REMARK    3  A    between atoms: C4_6  and  N2_7 
REMARK    4  A    between atoms: N2_7  and  C5_8 
REMARK    5  A    between atoms: C9_12  and  S1_13 
REMARK    6  A    between atoms: S1_13  and  N3_16 
REMARK    7  A    between atoms: N3_16  and  C10_17 
ROOT
HETATM    1  C5  UNL     1      24.806   0.157  53.037  1.00  0.00     0.029 A 
HETATM    2  C6  UNL     1      25.292  -0.966  53.590  1.00  0.00     0.026 A 
HETATM    3  C7  UNL     1      26.593  -1.298  52.986  1.00  0.00    -0.000 A 
HETATM    4  C8  UNL     1      26.839  -0.355  52.090  1.00  0.00     0.001 A 
HETATM    5  C9  UNL     1      25.765   0.662  52.009  1.00  0.00     0.196 A 
ENDROOT
BRANCH   1   6
HETATM    6  N2  UNL     1      23.537   0.598  53.535  1.00  0.00    -0.388 N 
HETATM    7  H8  UNL     1      23.540   0.974  54.518  1.00  0.00     0.159 HD
BRANCH   6   8
HETATM    8  C4  UNL     1      22.247   0.586  52.843  1.00  0.00     0.155 C 
BRANCH   8   9
HETATM    9  C2  UNL     1      21.249  -0.243  53.564  1.00  0.00    -0.050 C 
HETATM   10  C1  UNL     1      21.692  -0.922  54.805  1.00  0.00     0.046 C 
HETATM   11  C3  UNL     1      19.998  -0.413  53.169  1.00  0.00     0.105 C 
BRANCH  11  12
HETATM   12  N1  UNL     1      19.222  -1.236  53.997  1.00  0.00    -0.313 N 
HETATM   13 CL1  UNL     1      17.863  -2.168  53.443  1.00  0.00    -0.104 Cl
HETATM   14  H5  UNL     1      18.697  -1.821  54.670  1.00  0.00     0.297 HD
ENDBRANCH  11  12
ENDBRANCH   8   9
ENDBRANCH   6   8
ENDBRANCH   1   6
BRANCH   5  15
HETATM   15  S1  UNL     1      26.253   2.253  52.490  1.00  0.00     0.223 S 
HETATM   16  O1  UNL     1      27.713   2.412  52.165  1.00  0.00    -0.210 OA
HETATM   17  O2  UNL     1      26.146   2.324  53.992  1.00  0.00    -0.210 OA
BRANCH  15  18
HETATM   18  N3  UNL     1      25.427   3.554  51.818  1.00  0.00    -0.211 NA
HETATM   19  H13 UNL     1      24.526   3.693  52.326  1.00  0.00     0.140 HD
BRANCH  18  20
HETATM   20  C10 UNL     1      25.175   3.562  50.427  1.00  0.00     0.014 C 
HETATM   21  C11 UNL     1      24.889   5.033  50.077  1.00  0.00     0.032 C 
HETATM   22  C12 UNL     1      26.392   3.195  49.605  1.00  0.00     0.032 C 
HETATM   23  C13 UNL     1      23.948   2.801  49.993  1.00  0.00     0.032 C 
ENDBRANCH  18  20
ENDBRANCH  15  18
ENDBRANCH   5  15
TORSDOF 7
ENDMDL
MODEL 2
REMARK VINA RESULT:      -6.7      3.830      5.572
REMARK  7 active torsions:
REMARK  status: ('A' for Active; 'I' for Inactive)
REMARK    1  A    between atoms: C2_2  and  C4_6 
REMARK    2  A    between atoms: C3_3  and  N1_4 
REMARK    3  A    between atoms: C4_6  and  N2_7 
REMARK    4  A    between atoms: N2_7  and  C5_8 
REMARK    5  A    between atoms: C9_12  and  S1_13 
REMARK    6  A    between atoms: S1_13  and  N3_16 
REMARK    7  A    between atoms: N3_16  and  C10_17 
ROOT
HETATM    1  C5  UNL     1      22.794  -0.487  53.620  1.00  0.00     0.029 A 
HETATM    2  C6  UNL     1      22.001  -1.523  53.935  1.00  0.00     0.026 A 
HETATM    3  C7  UNL     1      20.605  -1.070  54.040  1.00  0.00    -0.000 A 
HETATM    4  C8  UNL     1      20.615   0.229  53.781  1.00  0.00     0.001 A 
HETATM    5  C9  UNL     1      21.970   0.751  53.489  1.00  0.00     0.196 A 
ENDROOT
BRANCH   1   6
HETATM    6  N2  UNL     1      24.189  -0.789  53.486  1.00  0.00    -0.388 N 
HETATM    7  H8  UNL     1      24.468  -1.261  52.587  1.00  0.00     0.159 HD
BRANCH   6   8
HETATM    8  C4  UNL     1      25.263  -0.520  54.444  1.00  0.00     0.155 C 
BRANCH   8   9
HETATM    9  C2  UNL     1      26.584  -0.434  53.773  1.00  0.00    -0.050 C 
HETATM   10  C1  UNL     1      26.721  -1.083  52.448  1.00  0.00     0.046 C 
HETATM   11  C3  UNL     1      27.638   0.182  54.282  1.00  0.00     0.105 C 
BRANCH  11  12
HETATM   12  N1  UNL     1      28.788   0.145  53.483  1.00  0.00    -0.313 N 
HETATM   13 CL1  UNL     1      30.103  -0.969  53.720  1.00  0.00    -0.104 Cl
HETATM   14  H5  UNL     1      29.606   0.179  52.849  1.00  0.00     0.297 HD
ENDBRANCH  11  12
ENDBRANCH   8   9
ENDBRANCH   6   8
ENDBRANCH   1   6
BRANCH   5  15
HETATM   15  S1  UNL     1      22.173   1.343  51.873  1.00  0.00     0.223 S 
HETATM   16  O1  UNL     1      21.496   2.683  51.778  1.00  0.00    -0.210 OA
HETATM   17  O2  UNL     1      21.411   0.421  50.956  1.00  0.00    -0.210 OA
BRANCH  15  18
HETATM   18  N3  UNL     1      23.743   1.512  51.300  1.00  0.00    -0.211 NA
HETATM   19  H13 UNL     1      24.289   0.649  51.519  1.00  0.00     0.140 HD
BRANCH  18  20
HETATM   20  C10 UNL     1      24.498   2.642  51.692  1.00  0.00     0.014 C 
HETATM   21  C11 UNL     1      25.955   2.297  51.337  1.00  0.00     0.032 C 
HETATM   22  C12 UNL     1      24.180   3.875  50.875  1.00  0.00     0.032 C 
HETATM   23  C13 UNL     1      24.504   2.929  53.172  1.00  0.00     0.032 C 
ENDBRANCH  18  20
ENDBRANCH  15  18
ENDBRANCH   5  15
TORSDOF 7
ENDMDL
MODEL 3
REMARK VINA RESULT:      -6.7      4.350      7.034
REMARK  7 active torsions:
REMARK  status: ('A' for Active; 'I' for Inactive)
REMARK    1  A    between atoms: C2_2  and  C4_6 
REMARK    2  A    between atoms: C3_3  and  N1_4 
REMARK    3  A    between atoms: C4_6  and  N2_7 
REMARK    4  A    between atoms: N2_7  and  C5_8 
REMARK    5  A    between atoms: C9_12  and  S1_13 
REMARK    6  A    between atoms: S1_13  and  N3_16 
REMARK    7  A    between atoms: N3_16  and  C10_17 
ROOT
HETATM    1  C5  UNL     1      24.574   2.879  51.644  1.00  0.00     0.029 A 
HETATM    2  C6  UNL     1      23.417   2.907  52.325  1.00  0.00     0.026 A 
HETATM    3  C7  UNL     1      23.163   1.592  52.935  1.00  0.00    -0.000 A 
HETATM    4  C8  UNL     1      24.185   0.821  52.596  1.00  0.00     0.001 A 
HETATM    5  C9  UNL     1      25.185   1.520  51.755  1.00  0.00     0.196 A 
ENDROOT
BRANCH   1   6
HETATM    6  N2  UNL     1      24.945   4.101  50.995  1.00  0.00    -0.388 N 
HETATM    7  H8  UNL     1      25.007   4.946  51.620  1.00  0.00     0.159 HD
BRANCH   6   8
HETATM    8  C4  UNL     1      25.245   4.311  49.578  1.00  0.00     0.155 C 
BRANCH   8   9
HETATM    9  C2  UNL     1      26.206   5.425  49.383  1.00  0.00    -0.050 C 
HETATM   10  C1  UNL     1      27.462   5.125  48.656  1.00  0.00     0.046 C 
HETATM   11  C3  UNL     1      26.012   6.660  49.816  1.00  0.00     0.105 C 
BRANCH  11  12
HETATM   12  N1  UNL     1      27.047   7.559  49.525  1.00  0.00    -0.313 N 
HETATM   13 CL1  UNL     1      27.278   9.075  50.346  1.00  0.00    -0.104 Cl
HETATM   14  H5  UNL     1      27.836   8.171  49.253  1.00  0.00     0.297 HD
ENDBRANCH  11  12
ENDBRANCH   8   9
ENDBRANCH   6   8
ENDBRANCH   1   6
BRANCH   5  15
HETATM   15  S1  UNL     1      26.738   1.707  52.501  1.00  0.00     0.223 S 
HETATM   16  O1  UNL     1      26.537   2.354  53.843  1.00  0.00    -0.210 OA
HETATM   17  O2  UNL     1      27.521   2.691  51.671  1.00  0.00    -0.210 OA
BRANCH  15  18
HETATM   18  N3  UNL     1      27.661   0.321  52.726  1.00  0.00    -0.211 NA
HETATM   19  H13 UNL     1      27.049  -0.522  52.648  1.00  0.00     0.140 HD
BRANCH  18  20
HETATM   20  C10 UNL     1      28.453   0.206  53.891  1.00  0.00     0.014 C 
HETATM   21  C11 UNL     1      29.332  -1.036  53.662  1.00  0.00     0.032 C 
HETATM   22  C12 UNL     1      29.430   1.350  54.056  1.00  0.00     0.032 C 
HETATM   23  C13 UNL     1      27.689  -0.074  55.161  1.00  0.00     0.032 C 
ENDBRANCH  18  20
ENDBRANCH  15  18
ENDBRANCH   5  15
TORSDOF 7
ENDMDL
MODEL 4
REMARK VINA RESULT:      -6.6      1.275      3.619
REMARK  7 active torsions:
REMARK  status: ('A' for Active; 'I' for Inactive)
REMARK    1  A    between atoms: C2_2  and  C4_6 
REMARK    2  A    between atoms: C3_3  and  N1_4 
REMARK    3  A    between atoms: C4_6  and  N2_7 
REMARK    4  A    between atoms: N2_7  and  C5_8 
REMARK    5  A    between atoms: C9_12  and  S1_13 
REMARK    6  A    between atoms: S1_13  and  N3_16 
REMARK    7  A    between atoms: N3_16  and  C10_17 
ROOT
HETATM    1  C5  UNL     1      23.708   1.919  52.023  1.00  0.00     0.029 A 
HETATM    2  C6  UNL     1      23.158   1.918  50.798  1.00  0.00     0.026 A 
HETATM    3  C7  UNL     1      23.856   2.884  49.935  1.00  0.00    -0.000 A 
HETATM    4  C8  UNL     1      24.805   3.431  50.680  1.00  0.00     0.001 A 
HETATM    5  C9  UNL     1      24.831   2.902  52.064  1.00  0.00     0.196 A 
ENDROOT
BRANCH   1   6
HETATM    6  N2  UNL     1      23.121   1.018  52.970  1.00  0.00    -0.388 N 
HETATM    7  H8  UNL     1      22.925   1.424  53.922  1.00  0.00     0.159 HD
BRANCH   6   8
HETATM    8  C4  UNL     1      22.767  -0.388  52.773  1.00  0.00     0.155 C 
BRANCH   8   9
HETATM    9  C2  UNL     1      21.522  -0.744  53.498  1.00  0.00    -0.050 C 
HETATM   10  C1  UNL     1      21.654  -1.594  54.706  1.00  0.00     0.046 C 
HETATM   11  C3  UNL     1      20.312  -0.354  53.135  1.00  0.00     0.105 C 
BRANCH  11  12
HETATM   12  N1  UNL     1      19.272  -0.803  53.961  1.00  0.00    -0.313 N 
HETATM   13 CL1  UNL     1      18.142  -2.046  53.513  1.00  0.00    -0.104 Cl
HETATM   14  H5  UNL     1      18.530  -1.081  54.627  1.00  0.00     0.297 HD
ENDBRANCH  11  12
ENDBRANCH   8   9
ENDBRANCH   6   8
ENDBRANCH   1   6
BRANCH   5  15
HETATM   15  S1  UNL     1      26.274   2.029  52.465  1.00  0.00     0.223 S 
HETATM   16  O1  UNL     1      26.565   2.253  53.924  1.00  0.00    -0.210 OA
HETATM   17  O2  UNL     1      27.410   2.664  51.706  1.00  0.00    -0.210 OA
BRANCH  15  18
HETATM   18  N3  UNL     1      26.281   0.373  52.183  1.00  0.00    -0.211 NA
HETATM   19  H13 UNL     1      25.315   0.055  51.947  1.00  0.00     0.140 HD
BRANCH  18  20
HETATM   20  C10 UNL     1      26.818  -0.489  53.167  1.00  0.00     0.014 C 
HETATM   21  C11 UNL     1      26.755  -1.897  52.550  1.00  0.00     0.032 C 
HETATM   22  C12 UNL     1      28.289  -0.243  53.426  1.00  0.00     0.032 C 
HETATM   23  C13 UNL     1      26.025  -0.576  54.446  1.00  0.00     0.032 C 
ENDBRANCH  18  20
ENDBRANCH  15  18
ENDBRANCH   5  15
TORSDOF 7
ENDMDL
MODEL 5
REMARK VINA RESULT:      -6.5      1.643      2.201
REMARK  7 active torsions:
REMARK  status: ('A' for Active; 'I' for Inactive)
REMARK    1  A    between atoms: C2_2  and  C4_6 
REMARK    2  A    between atoms: C3_3  and  N1_4 
REMARK    3  A    between atoms: C4_6  and  N2_7 
REMARK    4  A    between atoms: N2_7  and  C5_8 
REMARK    5  A    between atoms: C9_12  and  S1_13 
REMARK    6  A    between atoms: S1_13  and  N3_16 
REMARK    7  A    between atoms: N3_16  and  C10_17 
ROOT
HETATM    1  C5  UNL     1      23.062   0.777  52.546  1.00  0.00     0.029 A 
HETATM    2  C6  UNL     1      23.595  -0.170  53.333  1.00  0.00     0.026 A 
HETATM    3  C7  UNL     1      25.057  -0.194  53.168  1.00  0.00    -0.000 A 
HETATM    4  C8  UNL     1      25.346   0.748  52.284  1.00  0.00     0.001 A 
HETATM    5  C9  UNL     1      24.149   1.466  51.789  1.00  0.00     0.196 A 
ENDROOT
BRANCH   1   6
HETATM    6  N2  UNL     1      21.636   0.910  52.608  1.00  0.00    -0.388 N 
HETATM    7  H8  UNL     1      21.257   1.337  53.493  1.00  0.00     0.159 HD
BRANCH   6   8
HETATM    8  C4  UNL     1      20.653   0.524  51.594  1.00  0.00     0.155 C 
BRANCH   8   9
HETATM    9  C2  UNL     1      19.441  -0.073  52.209  1.00  0.00    -0.050 C 
HETATM   10  C1  UNL     1      18.153   0.114  51.500  1.00  0.00     0.046 C 
HETATM   11  C3  UNL     1      19.440  -0.753  53.343  1.00  0.00     0.105 C 
BRANCH  11  12
HETATM   12  N1  UNL     1      18.185  -1.230  53.746  1.00  0.00    -0.313 N 
HETATM   13 CL1  UNL     1      17.744  -2.912  53.766  1.00  0.00    -0.104 Cl
HETATM   14  H5  UNL     1      17.237  -1.505  54.058  1.00  0.00     0.297 HD
ENDBRANCH  11  12
ENDBRANCH   8   9
ENDBRANCH   6   8
ENDBRANCH   1   6
BRANCH   5  15
HETATM   15  S1  UNL     1      24.098   3.145  52.215  1.00  0.00     0.223 S 
HETATM   16  O1  UNL     1      24.574   3.282  53.635  1.00  0.00    -0.210 OA
HETATM   17  O2  UNL     1      22.651   3.567  52.213  1.00  0.00    -0.210 OA
BRANCH  15  18
HETATM   18  N3  UNL     1      24.983   4.213  51.266  1.00  0.00    -0.211 NA
HETATM   19  H13 UNL     1      24.587   5.174  51.361  1.00  0.00     0.140 HD
BRANCH  18  20
HETATM   20  C10 UNL     1      25.161   3.925  49.893  1.00  0.00     0.014 C 
HETATM   21  C11 UNL     1      25.425   5.286  49.226  1.00  0.00     0.032 C 
HETATM   22  C12 UNL     1      26.405   3.108  49.618  1.00  0.00     0.032 C 
HETATM   23  C13 UNL     1      23.949   3.364  49.192  1.00  0.00     0.032 C 
ENDBRANCH  18  20
ENDBRANCH  15  18
ENDBRANCH   5  15
TORSDOF 7
ENDMDL
MODEL 6
REMARK VINA RESULT:      -6.4      3.627      5.974
REMARK  7 active torsions:
REMARK  status: ('A' for Active; 'I' for Inactive)
REMARK    1  A    between atoms: C2_2  and  C4_6 
REMARK    2  A    between atoms: C3_3  and  N1_4 
REMARK    3  A    between atoms: C4_6  and  N2_7 
REMARK    4  A    between atoms: N2_7  and  C5_8 
REMARK    5  A    between atoms: C9_12  and  S1_13 
REMARK    6  A    between atoms: S1_13  and  N3_16 
REMARK    7  A    between atoms: N3_16  and  C10_17 
ROOT
HETATM    1  C5  UNL     1      25.310   2.825  51.443  1.00  0.00     0.029 A 
HETATM    2  C6  UNL     1      25.926   3.555  50.501  1.00  0.00     0.026 A 
HETATM    3  C7  UNL     1      25.089   3.622  49.292  1.00  0.00    -0.000 A 
HETATM    4  C8  UNL     1      23.995   2.925  49.559  1.00  0.00     0.001 A 
HETATM    5  C9  UNL     1      23.996   2.345  50.922  1.00  0.00     0.196 A 
ENDROOT
BRANCH   1   6
HETATM    6  N2  UNL     1      26.019   2.677  52.680  1.00  0.00    -0.388 N 
HETATM    7  H8  UNL     1      26.770   3.393  52.862  1.00  0.00     0.159 HD
BRANCH   6   8
HETATM    8  C4  UNL     1      25.825   1.657  53.711  1.00  0.00     0.155 C 
BRANCH   8   9
HETATM    9  C2  UNL     1      26.775   0.528  53.547  1.00  0.00    -0.050 C 
HETATM   10  C1  UNL     1      26.718  -0.235  52.277  1.00  0.00     0.046 C 
HETATM   11  C3  UNL     1      27.662   0.164  54.457  1.00  0.00     0.105 C 
BRANCH  11  12
HETATM   12  N1  UNL     1      28.463  -0.930  54.100  1.00  0.00    -0.313 N 
HETATM   13 CL1  UNL     1      30.121  -0.796  53.591  1.00  0.00    -0.104 Cl
HETATM   14  H5  UNL     1      28.991  -1.785  53.852  1.00  0.00     0.297 HD
ENDBRANCH  11  12
ENDBRANCH   8   9
ENDBRANCH   6   8
ENDBRANCH   1   6
BRANCH   5  15
HETATM   15  S1  UNL     1      22.762   2.973  51.964  1.00  0.00     0.223 S 
HETATM   16  O1  UNL     1      21.717   3.634  51.106  1.00  0.00    -0.210 OA
HETATM   17  O2  UNL     1      23.384   4.070  52.790  1.00  0.00    -0.210 OA
BRANCH  15  18
HETATM   18  N3  UNL     1      21.985   1.890  52.987  1.00  0.00    -0.211 NA
HETATM   19  H13 UNL     1      22.466   1.878  53.913  1.00  0.00     0.140 HD
BRANCH  18  20
HETATM   20  C10 UNL     1      21.791   0.557  52.555  1.00  0.00     0.014 C 
HETATM   21  C11 UNL     1      20.592   0.039  53.367  1.00  0.00     0.032 C 
HETATM   22  C12 UNL     1      21.353   0.464  51.109  1.00  0.00     0.032 C 
HETATM   23  C13 UNL     1      22.924  -0.389  52.865  1.00  0.00     0.032 C 
ENDBRANCH  18  20
ENDBRANCH  15  18
ENDBRANCH   5  15
TORSDOF 7
ENDMDL
MODEL 7
REMARK VINA RESULT:      -6.4      3.550      5.984
REMARK  7 active torsions:
REMARK  status: ('A' for Active; 'I' for Inactive)
REMARK    1  A    between atoms: C2_2  and  C4_6 
REMARK    2  A    between atoms: C3_3  and  N1_4 
REMARK    3  A    between atoms: C4_6  and  N2_7 
REMARK    4  A    between atoms: N2_7  and  C5_8 
REMARK    5  A    between atoms: C9_12  and  S1_13 
REMARK    6  A    between atoms: S1_13  and  N3_16 
REMARK    7  A    between atoms: N3_16  and  C10_17 
ROOT
HETATM    1  C5  UNL     1      23.345   0.499  52.931  1.00  0.00     0.029 A 
HETATM    2  C6  UNL     1      22.152   0.825  53.452  1.00  0.00     0.026 A 
HETATM    3  C7  UNL     1      21.742  -0.189  54.437  1.00  0.00    -0.000 A 
HETATM    4  C8  UNL     1      22.713  -1.089  54.470  1.00  0.00     0.001 A 
HETATM    5  C9  UNL     1      23.825  -0.775  53.543  1.00  0.00     0.196 A 
ENDROOT
BRANCH   1   6
HETATM    6  N2  UNL     1      23.866   1.406  51.952  1.00  0.00    -0.388 N 
HETATM    7  H8  UNL     1      24.458   0.971  51.198  1.00  0.00     0.159 HD
BRANCH   6   8
HETATM    8  C4  UNL     1      23.672   2.855  51.876  1.00  0.00     0.155 C 
BRANCH   8   9
HETATM    9  C2  UNL     1      24.281   3.424  50.647  1.00  0.00    -0.050 C 
HETATM   10  C1  UNL     1      23.765   2.943  49.344  1.00  0.00     0.046 C 
HETATM   11  C3  UNL     1      25.249   4.325  50.645  1.00  0.00     0.105 C 
BRANCH  11  12
HETATM   12  N1  UNL     1      25.680   4.728  49.373  1.00  0.00    -0.313 N 
HETATM   13 CL1  UNL     1      27.302   4.516  48.784  1.00  0.00    -0.104 Cl
HETATM   14  H5  UNL     1      25.923   5.052  48.421  1.00  0.00     0.297 HD
ENDBRANCH  11  12
ENDBRANCH   8   9
ENDBRANCH   6   8
ENDBRANCH   1   6
BRANCH   5  15
HETATM   15  S1  UNL     1      25.334  -0.441  54.327  1.00  0.00     0.223 S 
HETATM   16  O1  UNL     1      25.241  -0.929  55.747  1.00  0.00    -0.210 OA
HETATM   17  O2  UNL     1      25.479   1.058  54.405  1.00  0.00    -0.210 OA
BRANCH  15  18
HETATM   18  N3  UNL     1      26.724  -1.093  53.644  1.00  0.00    -0.211 NA
HETATM   19  H13 UNL     1      26.908  -2.033  54.058  1.00  0.00     0.140 HD
BRANCH  18  20
HETATM   20  C10 UNL     1      27.920  -0.340  53.673  1.00  0.00     0.014 C 
HETATM   21  C11 UNL     1      29.024  -1.317  53.233  1.00  0.00     0.032 C 
HETATM   22  C12 UNL     1      27.945   0.766  52.639  1.00  0.00     0.032 C 
HETATM   23  C13 UNL     1      28.339   0.151  55.036  1.00  0.00     0.032 C 
ENDBRANCH  18  20
ENDBRANCH  15  18
ENDBRANCH   5  15
TORSDOF 7
ENDMDL
MODEL 8
REMARK VINA RESULT:      -6.3      3.560      5.566
REMARK  7 active torsions:
REMARK  status: ('A' for Active; 'I' for Inactive)
REMARK    1  A    between atoms: C2_2  and  C4_6 
REMARK    2  A    between atoms: C3_3  and  N1_4 
REMARK    3  A    between atoms: C4_6  and  N2_7 
REMARK    4  A    between atoms: N2_7  and  C5_8 
REMARK    5  A    between atoms: C9_12  and  S1_13 
REMARK    6  A    between atoms: S1_13  and  N3_16 
REMARK    7  A    between atoms: N3_16  and  C10_17 
ROOT
HETATM    1  C5  UNL     1      23.315   1.346  51.637  1.00  0.00     0.029 A 
HETATM    2  C6  UNL     1      22.120   1.041  52.167  1.00  0.00     0.026 A 
HETATM    3  C7  UNL     1      22.301   0.197  53.359  1.00  0.00    -0.000 A 
HETATM    4  C8  UNL     1      23.607   0.028  53.499  1.00  0.00     0.001 A 
HETATM    5  C9  UNL     1      24.396   0.717  52.452  1.00  0.00     0.196 A 
ENDROOT
BRANCH   1   6
HETATM    6  N2  UNL     1      23.285   2.168  50.464  1.00  0.00    -0.388 N 
HETATM    7  H8  UNL     1      23.967   1.904  49.707  1.00  0.00     0.159 HD
BRANCH   6   8
HETATM    8  C4  UNL     1      22.425   3.322  50.197  1.00  0.00     0.155 C 
BRANCH   8   9
HETATM    9  C2  UNL     1      22.893   4.530  50.921  1.00  0.00    -0.050 C 
HETATM   10  C1  UNL     1      22.024   5.061  51.998  1.00  0.00     0.046 C 
HETATM   11  C3  UNL     1      24.029   5.158  50.666  1.00  0.00     0.105 C 
BRANCH  11  12
HETATM   12  N1  UNL     1      24.280   6.279  51.468  1.00  0.00    -0.313 N 
HETATM   13 CL1  UNL     1      24.032   7.921  50.951  1.00  0.00    -0.104 Cl
HETATM   14  H5  UNL     1      24.488   7.056  52.120  1.00  0.00     0.297 HD
ENDBRANCH  11  12
ENDBRANCH   8   9
ENDBRANCH   6   8
ENDBRANCH   1   6
BRANCH   5  15
HETATM   15  S1  UNL     1      25.409   1.991  53.046  1.00  0.00     0.223 S 
HETATM   16  O1  UNL     1      24.522   3.089  53.566  1.00  0.00    -0.210 OA
HETATM   17  O2  UNL     1      26.147   2.569  51.865  1.00  0.00    -0.210 OA
BRANCH  15  18
HETATM   18  N3  UNL     1      26.516   1.604  54.250  1.00  0.00    -0.211 NA
HETATM   19  H13 UNL     1      26.641   2.423  54.885  1.00  0.00     0.140 HD
BRANCH  18  20
HETATM   20  C10 UNL     1      27.790   1.116  53.879  1.00  0.00     0.014 C 
HETATM   21  C11 UNL     1      28.269   0.282  55.080  1.00  0.00     0.032 C 
HETATM   22  C12 UNL     1      27.733   0.139  52.724  1.00  0.00     0.032 C 
HETATM   23  C13 UNL     1      28.848   2.171  53.677  1.00  0.00     0.032 C 
ENDBRANCH  18  20
ENDBRANCH  15  18
ENDBRANCH   5  15
TORSDOF 7
ENDMDL
MODEL 9
REMARK VINA RESULT:      -6.2      4.278      5.702
REMARK  7 active torsions:
REMARK  status: ('A' for Active; 'I' for Inactive)
REMARK    1  A    between atoms: C2_2  and  C4_6 
REMARK    2  A    between atoms: C3_3  and  N1_4 
REMARK    3  A    between atoms: C4_6  and  N2_7 
REMARK    4  A    between atoms: N2_7  and  C5_8 
REMARK    5  A    between atoms: C9_12  and  S1_13 
REMARK    6  A    between atoms: S1_13  and  N3_16 
REMARK    7  A    between atoms: N3_16  and  C10_17 
ROOT
HETATM    1  C5  UNL     1      24.502   2.578  52.642  1.00  0.00     0.029 A 
HETATM    2  C6  UNL     1      24.116   1.296  52.542  1.00  0.00     0.026 A 
HETATM    3  C7  UNL     1      22.656   1.225  52.370  1.00  0.00    -0.000 A 
HETATM    4  C8  UNL     1      22.220   2.475  52.373  1.00  0.00     0.001 A 
HETATM    5  C9  UNL     1      23.307   3.468  52.542  1.00  0.00     0.196 A 
ENDROOT
BRANCH   1   6
HETATM    6  N2  UNL     1      25.908   2.794  52.815  1.00  0.00    -0.388 N 
HETATM    7  H8  UNL     1      26.171   3.531  53.518  1.00  0.00     0.159 HD
BRANCH   6   8
HETATM    8  C4  UNL     1      27.011   2.116  52.133  1.00  0.00     0.155 C 
BRANCH   8   9
HETATM    9  C2  UNL     1      27.852   1.348  53.086  1.00  0.00    -0.050 C 
HETATM   10  C1  UNL     1      28.870   2.100  53.858  1.00  0.00     0.046 C 
HETATM   11  C3  UNL     1      27.750   0.045  53.285  1.00  0.00     0.105 C 
BRANCH  11  12
HETATM   12  N1  UNL     1      28.641  -0.482  54.230  1.00  0.00    -0.313 N 
HETATM   13 CL1  UNL     1      30.121  -1.299  53.823  1.00  0.00    -0.104 Cl
HETATM   14  H5  UNL     1      29.248  -0.843  54.986  1.00  0.00     0.297 HD
ENDBRANCH  11  12
ENDBRANCH   8   9
ENDBRANCH   6   8
ENDBRANCH   1   6
BRANCH   5  15
HETATM   15  S1  UNL     1      23.543   4.505  51.175  1.00  0.00     0.223 S 
HETATM   16  O1  UNL     1      22.951   5.849  51.500  1.00  0.00    -0.210 OA
HETATM   17  O2  UNL     1      22.724   3.947  50.039  1.00  0.00    -0.210 OA
BRANCH  15  18
HETATM   18  N3  UNL     1      25.120   4.747  50.648  1.00  0.00    -0.211 NA
HETATM   19  H13 UNL     1      25.742   4.908  51.471  1.00  0.00     0.140 HD
BRANCH  18  20
HETATM   20  C10 UNL     1      25.375   5.745  49.679  1.00  0.00     0.014 C 
HETATM   21  C11 UNL     1      26.669   5.303  48.974  1.00  0.00     0.032 C 
HETATM   22  C12 UNL     1      24.330   5.785  48.585  1.00  0.00     0.032 C 
HETATM   23  C13 UNL     1      25.669   7.116  50.232  1.00  0.00     0.032 C 
ENDBRANCH  18  20
ENDBRANCH  15  18
ENDBRANCH   5  15
TORSDOF 7
ENDMDL
