MODEL 1
REMARK VINA RESULT:      -8.9      0.000      0.000
REMARK  4 active torsions:
REMARK  status: ('A' for Active; 'I' for Inactive)
REMARK    1  A    between atoms: C5_5  and  C6_6 
REMARK    2  A    between atoms: C6_6  and  N1_7 
REMARK    3  A    between atoms: C13_15  and  O1_16 
REMARK    4  A    between atoms: N3_25  and  O3_26 
ROOT
HETATM    1  N1  UNL     1      21.435   1.966  51.777  1.00  0.00    -0.344 N 
HETATM    2  C7  UNL     1      22.051   0.637  51.489  1.00  0.00     0.128 C 
HETATM    3  C8  UNL     1      23.257   0.459  52.281  1.00  0.00     0.018 C 
HETATM    4  C9  UNL     1      23.996  -0.171  53.176  1.00  0.00     0.022 C 
HETATM    5  C10 UNL     1      25.202  -0.302  53.931  1.00  0.00    -0.023 C 
HETATM    6  C11 UNL     1      26.416   0.069  54.296  1.00  0.00    -0.008 C 
HETATM    7  C12 UNL     1      27.619   0.919  54.279  1.00  0.00     0.137 C 
HETATM    8 CL1  UNL     1      29.045  -0.050  54.829  1.00  0.00    -0.118 Cl
HETATM    9  C13 UNL     1      27.994   1.504  52.930  1.00  0.00     0.163 C 
HETATM   10  C14 UNL     1      26.945   2.317  52.310  1.00  0.00     0.006 C 
HETATM   11  C15 UNL     1      26.342   2.295  51.146  1.00  0.00    -0.002 C 
HETATM   12  C16 UNL     1      25.317   3.022  50.442  1.00  0.00    -0.002 C 
HETATM   13  C17 UNL     1      24.528   4.050  50.662  1.00  0.00     0.004 C 
HETATM   14  C18 UNL     1      23.467   4.645  49.743  1.00  0.00     0.305 C 
HETATM   15  N2  UNL     1      22.256   4.447  50.642  1.00  0.00     0.112 N 
HETATM   16  C19 UNL     1      21.629   3.336  51.333  1.00  0.00     0.446 A 
HETATM   17  O2  UNL     1      22.651   3.091  50.654  1.00  0.00    -0.125 OA
HETATM   18  H23 UNL     1      21.633   5.280  50.895  1.00  0.00     0.325 HD
ENDROOT
BRANCH   1  19
HETATM   19  C6  UNL     1      20.286   2.024  52.698  1.00  0.00     0.181 C 
BRANCH  19  20
HETATM   20  C5  UNL     1      19.361   0.912  52.473  1.00  0.00     0.058 A 
HETATM   21  C4  UNL     1      18.421   0.673  51.468  1.00  0.00     0.031 A 
HETATM   22  C3  UNL     1      17.841  -0.550  51.792  1.00  0.00     0.029 A 
HETATM   23  C2  UNL     1      18.404  -1.039  52.949  1.00  0.00     0.036 A 
HETATM   24  C1  UNL     1      18.023  -2.323  53.592  1.00  0.00     0.071 C 
HETATM   25  N3  UNL     1      19.303  -0.134  53.316  1.00  0.00    -0.232 N 
BRANCH  25  26
HETATM   26  O3  UNL     1      20.057  -0.338  54.472  1.00  0.00    -0.283 OA
HETATM   27  H24 UNL     1      19.746   0.143  55.319  1.00  0.00     0.245 HD
ENDBRANCH  25  26
ENDBRANCH  19  20
ENDBRANCH   1  19
BRANCH   9  28
HETATM   28  O1  UNL     1      29.124   2.305  53.108  1.00  0.00    -0.390 OA
HETATM   29  H16 UNL     1      29.677   2.188  52.277  1.00  0.00     0.210 HD
ENDBRANCH   9  28
TORSDOF 4
ENDMDL
MODEL 2
REMARK VINA RESULT:      -8.7      3.333      7.511
REMARK  4 active torsions:
REMARK  status: ('A' for Active; 'I' for Inactive)
REMARK    1  A    between atoms: C5_5  and  C6_6 
REMARK    2  A    between atoms: C6_6  and  N1_7 
REMARK    3  A    between atoms: C13_15  and  O1_16 
REMARK    4  A    between atoms: N3_25  and  O3_26 
ROOT
HETATM    1  N1  UNL     1      23.845   3.475  50.617  1.00  0.00    -0.344 N 
HETATM    2  C7  UNL     1      23.261   2.426  49.730  1.00  0.00     0.128 C 
HETATM    3  C8  UNL     1      22.149   1.767  50.395  1.00  0.00     0.018 C 
HETATM    4  C9  UNL     1      20.882   1.404  50.493  1.00  0.00     0.022 C 
HETATM    5  C10 UNL     1      19.823   0.741  51.186  1.00  0.00    -0.023 C 
HETATM    6  C11 UNL     1      19.322   0.035  52.183  1.00  0.00    -0.008 C 
HETATM    7  C12 UNL     1      19.364  -0.702  53.458  1.00  0.00     0.137 C 
HETATM    8 CL1  UNL     1      18.008  -1.899  53.505  1.00  0.00    -0.118 Cl
HETATM    9  C13 UNL     1      20.636  -1.486  53.724  1.00  0.00     0.163 C 
HETATM   10  C14 UNL     1      21.858  -0.679  53.709  1.00  0.00     0.006 C 
HETATM   11  C15 UNL     1      22.994  -0.756  53.059  1.00  0.00    -0.002 C 
HETATM   12  C16 UNL     1      24.238  -0.036  52.960  1.00  0.00    -0.002 C 
HETATM   13  C17 UNL     1      24.790   1.030  53.495  1.00  0.00     0.004 C 
HETATM   14  C18 UNL     1      26.159   1.635  53.206  1.00  0.00     0.305 C 
HETATM   15  N2  UNL     1      25.702   3.004  52.727  1.00  0.00     0.112 N 
HETATM   16  C19 UNL     1      24.801   3.516  51.711  1.00  0.00     0.446 A 
HETATM   17  O2  UNL     1      24.925   2.274  51.800  1.00  0.00    -0.125 OA
HETATM   18  H23 UNL     1      26.082   3.890  53.190  1.00  0.00     0.325 HD
ENDROOT
BRANCH   1  19
HETATM   19  C6  UNL     1      23.472   4.881  50.384  1.00  0.00     0.181 C 
BRANCH  19  20
HETATM   20  C5  UNL     1      24.614   5.669  49.918  1.00  0.00     0.058 A 
HETATM   21  C4  UNL     1      25.540   5.449  48.895  1.00  0.00     0.031 A 
HETATM   22  C3  UNL     1      26.395   6.547  48.933  1.00  0.00     0.029 A 
HETATM   23  C2  UNL     1      26.007   7.403  49.938  1.00  0.00     0.036 A 
HETATM   24  C1  UNL     1      26.695   8.678  50.270  1.00  0.00     0.071 C 
HETATM   25  N3  UNL     1      24.942   6.838  50.496  1.00  0.00    -0.232 N 
BRANCH  25  26
HETATM   26  O3  UNL     1      24.304   7.468  51.564  1.00  0.00    -0.283 OA
HETATM   27  H24 UNL     1      24.636   8.403  51.815  1.00  0.00     0.245 HD
ENDBRANCH  25  26
ENDBRANCH  19  20
ENDBRANCH   1  19
BRANCH   9  28
HETATM   28  O1  UNL     1      20.517  -2.084  54.981  1.00  0.00    -0.390 OA
HETATM   29  H16 UNL     1      20.598  -3.073  54.823  1.00  0.00     0.210 HD
ENDBRANCH   9  28
TORSDOF 4
ENDMDL
MODEL 3
REMARK VINA RESULT:      -8.6      4.236      6.478
REMARK  4 active torsions:
REMARK  status: ('A' for Active; 'I' for Inactive)
REMARK    1  A    between atoms: C5_5  and  C6_6 
REMARK    2  A    between atoms: C6_6  and  N1_7 
REMARK    3  A    between atoms: C13_15  and  O1_16 
REMARK    4  A    between atoms: N3_25  and  O3_26 
ROOT
HETATM    1  N1  UNL     1      24.091   3.622  51.793  1.00  0.00    -0.344 N 
HETATM    2  C7  UNL     1      24.518   2.990  50.510  1.00  0.00     0.128 C 
HETATM    3  C8  UNL     1      25.538   3.800  49.865  1.00  0.00     0.018 C 
HETATM    4  C9  UNL     1      26.744   3.996  49.363  1.00  0.00     0.022 C 
HETATM    5  C10 UNL     1      27.711   4.834  48.727  1.00  0.00    -0.023 C 
HETATM    6  C11 UNL     1      28.123   5.968  48.190  1.00  0.00    -0.008 C 
HETATM    7  C12 UNL     1      27.995   7.369  47.755  1.00  0.00     0.137 C 
HETATM    8 CL1  UNL     1      29.177   7.695  46.424  1.00  0.00    -0.118 Cl
HETATM    9  C13 UNL     1      26.632   7.773  47.225  1.00  0.00     0.163 C 
HETATM   10  C14 UNL     1      25.530   7.564  48.167  1.00  0.00     0.006 C 
HETATM   11  C15 UNL     1      24.387   6.925  48.107  1.00  0.00    -0.002 C 
HETATM   12  C16 UNL     1      23.252   6.652  48.950  1.00  0.00    -0.002 C 
HETATM   13  C17 UNL     1      22.856   6.937  50.171  1.00  0.00     0.004 C 
HETATM   14  C18 UNL     1      21.578   6.501  50.879  1.00  0.00     0.305 C 
HETATM   15  N2  UNL     1      22.212   5.749  52.039  1.00  0.00     0.112 N 
HETATM   16  C19 UNL     1      23.162   4.664  52.196  1.00  0.00     0.446 A 
HETATM   17  O2  UNL     1      22.871   5.013  51.030  1.00  0.00    -0.125 OA
HETATM   18  H23 UNL     1      21.960   6.006  53.047  1.00  0.00     0.325 HD
ENDROOT
BRANCH   1  19
HETATM   19  C6  UNL     1      24.649   3.101  53.054  1.00  0.00     0.181 C 
BRANCH  19  20
HETATM   20  C5  UNL     1      24.713   1.639  53.049  1.00  0.00     0.058 A 
HETATM   21  C4  UNL     1      23.738   0.664  53.276  1.00  0.00     0.031 A 
HETATM   22  C3  UNL     1      24.398  -0.553  53.140  1.00  0.00     0.029 A 
HETATM   23  C2  UNL     1      25.723  -0.332  52.843  1.00  0.00     0.036 A 
HETATM   24  C1  UNL     1      26.729  -1.405  52.632  1.00  0.00     0.071 C 
HETATM   25  N3  UNL     1      25.863   0.989  52.799  1.00  0.00    -0.232 N 
BRANCH  25  26
HETATM   26  O3  UNL     1      27.110   1.543  52.517  1.00  0.00    -0.283 OA
HETATM   27  H24 UNL     1      27.224   1.985  51.601  1.00  0.00     0.245 HD
ENDBRANCH  25  26
ENDBRANCH  19  20
ENDBRANCH   1  19
BRANCH   9  28
HETATM   28  O1  UNL     1      26.683   9.130  46.899  1.00  0.00    -0.390 OA
HETATM   29  H16 UNL     1      25.791   9.347  46.490  1.00  0.00     0.210 HD
ENDBRANCH   9  28
TORSDOF 4
ENDMDL
MODEL 4
REMARK VINA RESULT:      -8.6      3.572      7.550
REMARK  4 active torsions:
REMARK  status: ('A' for Active; 'I' for Inactive)
REMARK    1  A    between atoms: C5_5  and  C6_6 
REMARK    2  A    between atoms: C6_6  and  N1_7 
REMARK    3  A    between atoms: C13_15  and  O1_16 
REMARK    4  A    between atoms: N3_25  and  O3_26 
ROOT
HETATM    1  N1  UNL     1      25.401   1.568  52.506  1.00  0.00    -0.344 N 
HETATM    2  C7  UNL     1      26.207   1.600  51.251  1.00  0.00     0.128 C 
HETATM    3  C8  UNL     1      25.972   2.843  50.533  1.00  0.00     0.018 C 
HETATM    4  C9  UNL     1      26.363   3.982  49.990  1.00  0.00     0.022 C 
HETATM    5  C10 UNL     1      26.078   5.190  49.282  1.00  0.00    -0.023 C 
HETATM    6  C11 UNL     1      25.276   6.042  48.670  1.00  0.00    -0.008 C 
HETATM    7  C12 UNL     1      23.986   6.538  48.160  1.00  0.00     0.137 C 
HETATM    8 CL1  UNL     1      24.282   7.673  46.782  1.00  0.00    -0.118 Cl
HETATM    9  C13 UNL     1      23.030   5.479  47.644  1.00  0.00     0.163 C 
HETATM   10  C14 UNL     1      22.681   4.450  48.626  1.00  0.00     0.006 C 
HETATM   11  C15 UNL     1      22.735   3.140  48.633  1.00  0.00    -0.002 C 
HETATM   12  C16 UNL     1      22.432   2.046  49.519  1.00  0.00    -0.002 C 
HETATM   13  C17 UNL     1      21.951   1.882  50.732  1.00  0.00     0.004 C 
HETATM   14  C18 UNL     1      21.734   0.581  51.497  1.00  0.00     0.305 C 
HETATM   15  N2  UNL     1      22.646   0.864  52.681  1.00  0.00     0.112 N 
HETATM   16  C19 UNL     1      24.037   1.231  52.874  1.00  0.00     0.446 A 
HETATM   17  O2  UNL     1      23.639   1.071  51.698  1.00  0.00    -0.125 OA
HETATM   18  H23 UNL     1      22.265   0.805  53.679  1.00  0.00     0.325 HD
ENDROOT
BRANCH   1  19
HETATM   19  C6  UNL     1      26.069   1.893  53.779  1.00  0.00     0.181 C 
BRANCH  19  20
HETATM   20  C5  UNL     1      27.468   1.464  53.777  1.00  0.00     0.058 A 
HETATM   21  C4  UNL     1      28.662   2.188  53.718  1.00  0.00     0.031 A 
HETATM   22  C3  UNL     1      29.672   1.231  53.745  1.00  0.00     0.029 A 
HETATM   23  C2  UNL     1      29.118  -0.027  53.817  1.00  0.00     0.036 A 
HETATM   24  C1  UNL     1      29.900  -1.289  53.860  1.00  0.00     0.071 C 
HETATM   25  N3  UNL     1      27.804   0.164  53.833  1.00  0.00    -0.232 N 
BRANCH  25  26
HETATM   26  O3  UNL     1      26.947  -0.934  53.903  1.00  0.00    -0.283 OA
HETATM   27  H24 UNL     1      26.678  -1.369  53.017  1.00  0.00     0.245 HD
ENDBRANCH  25  26
ENDBRANCH  19  20
ENDBRANCH   1  19
BRANCH   9  28
HETATM   28  O1  UNL     1      21.856   6.120  47.241  1.00  0.00    -0.390 OA
HETATM   29  H16 UNL     1      21.339   6.300  48.084  1.00  0.00     0.210 HD
ENDBRANCH   9  28
TORSDOF 4
ENDMDL
MODEL 5
REMARK VINA RESULT:      -8.5      3.279      7.113
REMARK  4 active torsions:
REMARK  status: ('A' for Active; 'I' for Inactive)
REMARK    1  A    between atoms: C5_5  and  C6_6 
REMARK    2  A    between atoms: C6_6  and  N1_7 
REMARK    3  A    between atoms: C13_15  and  O1_16 
REMARK    4  A    between atoms: N3_25  and  O3_26 
ROOT
HETATM    1  N1  UNL     1      25.199   3.210  51.537  1.00  0.00    -0.344 N 
HETATM    2  C7  UNL     1      24.680   2.752  52.859  1.00  0.00     0.128 C 
HETATM    3  C8  UNL     1      23.497   1.926  52.677  1.00  0.00     0.018 C 
HETATM    4  C9  UNL     1      22.815   0.802  52.802  1.00  0.00     0.022 C 
HETATM    5  C10 UNL     1      21.629   0.031  52.598  1.00  0.00    -0.023 C 
HETATM    6  C11 UNL     1      20.395  -0.148  52.164  1.00  0.00    -0.008 C 
HETATM    7  C12 UNL     1      19.132   0.246  51.515  1.00  0.00     0.137 C 
HETATM    8 CL1  UNL     1      17.786  -0.786  52.147  1.00  0.00    -0.118 Cl
HETATM    9  C13 UNL     1      18.702   1.685  51.727  1.00  0.00     0.163 C 
HETATM   10  C14 UNL     1      19.683   2.680  51.286  1.00  0.00     0.006 C 
HETATM   11  C15 UNL     1      20.276   3.697  51.866  1.00  0.00    -0.002 C 
HETATM   12  C16 UNL     1      21.237   4.719  51.544  1.00  0.00    -0.002 C 
HETATM   13  C17 UNL     1      21.951   5.090  50.504  1.00  0.00     0.004 C 
HETATM   14  C18 UNL     1      22.956   6.232  50.403  1.00  0.00     0.305 C 
HETATM   15  N2  UNL     1      24.186   5.414  50.041  1.00  0.00     0.112 N 
HETATM   16  C19 UNL     1      24.900   4.282  50.602  1.00  0.00     0.446 A 
HETATM   17  O2  UNL     1      23.892   4.694  51.220  1.00  0.00    -0.125 OA
HETATM   18  H23 UNL     1      24.748   5.650  49.161  1.00  0.00     0.325 HD
ENDROOT
BRANCH   1  19
HETATM   19  C6  UNL     1      26.349   2.502  50.949  1.00  0.00     0.181 C 
BRANCH  19  20
HETATM   20  C5  UNL     1      26.833   1.439  51.830  1.00  0.00     0.058 A 
HETATM   21  C4  UNL     1      26.484   0.090  51.940  1.00  0.00     0.031 A 
HETATM   22  C3  UNL     1      27.284  -0.413  52.961  1.00  0.00     0.029 A 
HETATM   23  C2  UNL     1      28.089   0.587  53.456  1.00  0.00     0.036 A 
HETATM   24  C1  UNL     1      29.070   0.409  54.558  1.00  0.00     0.071 C 
HETATM   25  N3  UNL     1      27.784   1.671  52.751  1.00  0.00    -0.232 N 
BRANCH  25  26
HETATM   26  O3  UNL     1      28.438   2.874  53.016  1.00  0.00    -0.283 OA
HETATM   27  H24 UNL     1      29.461   2.852  53.026  1.00  0.00     0.245 HD
ENDBRANCH  25  26
ENDBRANCH  19  20
ENDBRANCH   1  19
BRANCH   9  28
HETATM   28  O1  UNL     1      17.518   1.889  51.016  1.00  0.00    -0.390 OA
HETATM   29  H16 UNL     1      16.840   2.192  51.693  1.00  0.00     0.210 HD
ENDBRANCH   9  28
TORSDOF 4
ENDMDL
MODEL 6
REMARK VINA RESULT:      -8.0      3.811      5.813
REMARK  4 active torsions:
REMARK  status: ('A' for Active; 'I' for Inactive)
REMARK    1  A    between atoms: C5_5  and  C6_6 
REMARK    2  A    between atoms: C6_6  and  N1_7 
REMARK    3  A    between atoms: C13_15  and  O1_16 
REMARK    4  A    between atoms: N3_25  and  O3_26 
ROOT
HETATM    1  N1  UNL     1      21.856   4.706  50.764  1.00  0.00    -0.344 N 
HETATM    2  C7  UNL     1      22.317   3.899  49.596  1.00  0.00     0.128 C 
HETATM    3  C8  UNL     1      23.753   4.045  49.419  1.00  0.00     0.018 C 
HETATM    4  C9  UNL     1      24.985   3.574  49.346  1.00  0.00     0.022 C 
HETATM    5  C10 UNL     1      26.389   3.770  49.165  1.00  0.00    -0.023 C 
HETATM    6  C11 UNL     1      27.461   4.510  48.950  1.00  0.00    -0.008 C 
HETATM    7  C12 UNL     1      28.200   5.760  48.706  1.00  0.00     0.137 C 
HETATM    8 CL1  UNL     1      29.756   5.383  47.863  1.00  0.00    -0.118 Cl
HETATM    9  C13 UNL     1      27.488   6.790  47.848  1.00  0.00     0.163 C 
HETATM   10  C14 UNL     1      26.184   7.212  48.366  1.00  0.00     0.006 C 
HETATM   11  C15 UNL     1      24.973   7.251  47.867  1.00  0.00    -0.002 C 
HETATM   12  C16 UNL     1      23.644   7.632  48.272  1.00  0.00    -0.002 C 
HETATM   13  C17 UNL     1      23.057   8.124  49.340  1.00  0.00     0.004 C 
HETATM   14  C18 UNL     1      21.579   8.434  49.551  1.00  0.00     0.305 C 
HETATM   15  N2  UNL     1      21.323   7.505  50.728  1.00  0.00     0.112 N 
HETATM   16  C19 UNL     1      21.493   6.092  51.010  1.00  0.00     0.446 A 
HETATM   17  O2  UNL     1      21.826   6.499  49.874  1.00  0.00    -0.125 OA
HETATM   18  H23 UNL     1      20.908   7.890  51.637  1.00  0.00     0.325 HD
ENDROOT
BRANCH   1  19
HETATM   19  C6  UNL     1      21.619   4.018  52.045  1.00  0.00     0.181 C 
BRANCH  19  20
HETATM   20  C5  UNL     1      22.651   3.015  52.315  1.00  0.00     0.058 A 
HETATM   21  C4  UNL     1      22.702   1.642  52.060  1.00  0.00     0.031 A 
HETATM   22  C3  UNL     1      23.938   1.225  52.547  1.00  0.00     0.029 A 
HETATM   23  C2  UNL     1      24.613   2.300  53.079  1.00  0.00     0.036 A 
HETATM   24  C1  UNL     1      25.964   2.224  53.692  1.00  0.00     0.071 C 
HETATM   25  N3  UNL     1      23.807   3.343  52.917  1.00  0.00    -0.232 N 
BRANCH  25  26
HETATM   26  O3  UNL     1      24.209   4.602  53.360  1.00  0.00    -0.283 OA
HETATM   27  H24 UNL     1      24.706   5.193  52.688  1.00  0.00     0.245 HD
ENDBRANCH  25  26
ENDBRANCH  19  20
ENDBRANCH   1  19
BRANCH   9  28
HETATM   28  O1  UNL     1      28.310   7.914  47.754  1.00  0.00    -0.390 OA
HETATM   29  H16 UNL     1      29.211   7.572  47.470  1.00  0.00     0.210 HD
ENDBRANCH   9  28
TORSDOF 4
ENDMDL
MODEL 7
REMARK VINA RESULT:      -7.8      3.185      5.906
REMARK  4 active torsions:
REMARK  status: ('A' for Active; 'I' for Inactive)
REMARK    1  A    between atoms: C5_5  and  C6_6 
REMARK    2  A    between atoms: C6_6  and  N1_7 
REMARK    3  A    between atoms: C13_15  and  O1_16 
REMARK    4  A    between atoms: N3_25  and  O3_26 
ROOT
HETATM    1  N1  UNL     1      23.212   3.580  49.753  1.00  0.00    -0.344 N 
HETATM    2  C7  UNL     1      22.772   2.333  49.060  1.00  0.00     0.128 C 
HETATM    3  C8  UNL     1      21.764   1.646  49.851  1.00  0.00     0.018 C 
HETATM    4  C9  UNL     1      20.560   1.137  50.039  1.00  0.00     0.022 C 
HETATM    5  C10 UNL     1      19.604   0.458  50.856  1.00  0.00    -0.023 C 
HETATM    6  C11 UNL     1      19.208  -0.138  51.966  1.00  0.00    -0.008 C 
HETATM    7  C12 UNL     1      19.357  -0.646  53.340  1.00  0.00     0.137 C 
HETATM    8 CL1  UNL     1      18.177  -1.992  53.613  1.00  0.00    -0.118 Cl
HETATM    9  C13 UNL     1      20.724  -1.199  53.695  1.00  0.00     0.163 C 
HETATM   10  C14 UNL     1      21.825  -0.249  53.520  1.00  0.00     0.006 C 
HETATM   11  C15 UNL     1      22.958  -0.276  52.860  1.00  0.00    -0.002 C 
HETATM   12  C16 UNL     1      24.091   0.579  52.615  1.00  0.00    -0.002 C 
HETATM   13  C17 UNL     1      24.494   1.782  52.958  1.00  0.00     0.004 C 
HETATM   14  C18 UNL     1      25.766   2.510  52.541  1.00  0.00     0.305 C 
HETATM   15  N2  UNL     1      25.124   3.710  51.861  1.00  0.00     0.112 N 
HETATM   16  C19 UNL     1      24.157   3.926  50.801  1.00  0.00     0.446 A 
HETATM   17  O2  UNL     1      24.451   2.742  51.083  1.00  0.00    -0.125 OA
HETATM   18  H23 UNL     1      25.381   4.703  52.167  1.00  0.00     0.325 HD
ENDROOT
BRANCH   1  19
HETATM   19  C6  UNL     1      22.649   4.867  49.308  1.00  0.00     0.181 C 
BRANCH  19  20
HETATM   20  C5  UNL     1      21.200   4.782  49.117  1.00  0.00     0.058 A 
HETATM   21  C4  UNL     1      20.412   4.796  47.963  1.00  0.00     0.031 A 
HETATM   22  C3  UNL     1      19.100   4.689  48.415  1.00  0.00     0.029 A 
HETATM   23  C2  UNL     1      19.087   4.612  49.789  1.00  0.00     0.036 A 
HETATM   24  C1  UNL     1      17.856   4.492  50.612  1.00  0.00     0.071 C 
HETATM   25  N3  UNL     1      20.360   4.672  50.161  1.00  0.00    -0.232 N 
BRANCH  25  26
HETATM   26  O3  UNL     1      20.688   4.618  51.515  1.00  0.00    -0.283 OA
HETATM   27  H24 UNL     1      21.017   3.720  51.877  1.00  0.00     0.245 HD
ENDBRANCH  25  26
ENDBRANCH  19  20
ENDBRANCH   1  19
BRANCH   9  28
HETATM   28  O1  UNL     1      20.694  -1.596  55.034  1.00  0.00    -0.390 OA
HETATM   29  H16 UNL     1      21.625  -1.907  55.248  1.00  0.00     0.210 HD
ENDBRANCH   9  28
TORSDOF 4
ENDMDL
MODEL 8
REMARK VINA RESULT:      -7.7      3.683      7.734
REMARK  4 active torsions:
REMARK  status: ('A' for Active; 'I' for Inactive)
REMARK    1  A    between atoms: C5_5  and  C6_6 
REMARK    2  A    between atoms: C6_6  and  N1_7 
REMARK    3  A    between atoms: C13_15  and  O1_16 
REMARK    4  A    between atoms: N3_25  and  O3_26 
ROOT
HETATM    1  N1  UNL     1      24.292   2.067  52.240  1.00  0.00    -0.344 N 
HETATM    2  C7  UNL     1      24.787   2.684  50.974  1.00  0.00     0.128 C 
HETATM    3  C8  UNL     1      24.215   4.010  50.804  1.00  0.00     0.018 C 
HETATM    4  C9  UNL     1      24.302   5.320  50.659  1.00  0.00     0.022 C 
HETATM    5  C10 UNL     1      23.692   6.602  50.492  1.00  0.00    -0.023 C 
HETATM    6  C11 UNL     1      22.656   7.411  50.364  1.00  0.00    -0.008 C 
HETATM    7  C12 UNL     1      21.226   7.753  50.275  1.00  0.00     0.137 C 
HETATM    8 CL1  UNL     1      21.038   9.313  49.376  1.00  0.00    -0.118 Cl
HETATM    9  C13 UNL     1      20.348   6.741  49.564  1.00  0.00     0.163 C 
HETATM   10  C14 UNL     1      20.382   5.397  50.144  1.00  0.00     0.006 C 
HETATM   11  C15 UNL     1      20.632   4.202  49.666  1.00  0.00    -0.002 C 
HETATM   12  C16 UNL     1      20.699   2.840  50.129  1.00  0.00    -0.002 C 
HETATM   13  C17 UNL     1      20.528   2.187  51.257  1.00  0.00     0.004 C 
HETATM   14  C18 UNL     1      20.682   0.693  51.520  1.00  0.00     0.305 C 
HETATM   15  N2  UNL     1      21.780   0.764  52.570  1.00  0.00     0.112 N 
HETATM   16  C19 UNL     1      23.109   1.340  52.666  1.00  0.00     0.446 A 
HETATM   17  O2  UNL     1      22.490   1.492  51.589  1.00  0.00    -0.125 OA
HETATM   18  H23 UNL     1      21.642   0.299  53.524  1.00  0.00     0.325 HD
ENDROOT
BRANCH   1  19
HETATM   19  C6  UNL     1      25.169   2.094  53.425  1.00  0.00     0.181 C 
BRANCH  19  20
HETATM   20  C5  UNL     1      26.257   1.122  53.309  1.00  0.00     0.058 A 
HETATM   21  C4  UNL     1      26.272  -0.213  52.896  1.00  0.00     0.031 A 
HETATM   22  C3  UNL     1      27.600  -0.615  53.004  1.00  0.00     0.029 A 
HETATM   23  C2  UNL     1      28.366   0.432  53.464  1.00  0.00     0.036 A 
HETATM   24  C1  UNL     1      29.831   0.362  53.702  1.00  0.00     0.071 C 
HETATM   25  N3  UNL     1      27.522   1.444  53.631  1.00  0.00    -0.232 N 
BRANCH  25  26
HETATM   26  O3  UNL     1      27.996   2.670  54.096  1.00  0.00    -0.283 OA
HETATM   27  H24 UNL     1      27.972   2.822  55.108  1.00  0.00     0.245 HD
ENDBRANCH  25  26
ENDBRANCH  19  20
ENDBRANCH   1  19
BRANCH   9  28
HETATM   28  O1  UNL     1      19.032   7.207  49.608  1.00  0.00    -0.390 OA
HETATM   29  H16 UNL     1      19.095   8.210  49.582  1.00  0.00     0.210 HD
ENDBRANCH   9  28
TORSDOF 4
ENDMDL
MODEL 9
REMARK VINA RESULT:      -7.6      3.703      7.680
REMARK  4 active torsions:
REMARK  status: ('A' for Active; 'I' for Inactive)
REMARK    1  A    between atoms: C5_5  and  C6_6 
REMARK    2  A    between atoms: C6_6  and  N1_7 
REMARK    3  A    between atoms: C13_15  and  O1_16 
REMARK    4  A    between atoms: N3_25  and  O3_26 
ROOT
HETATM    1  N1  UNL     1      23.710   0.257  53.216  1.00  0.00    -0.344 N 
HETATM    2  C7  UNL     1      22.745   0.280  54.355  1.00  0.00     0.128 C 
HETATM    3  C8  UNL     1      21.427  -0.138  53.906  1.00  0.00     0.018 C 
HETATM    4  C9  UNL     1      20.369  -0.928  53.934  1.00  0.00     0.022 C 
HETATM    5  C10 UNL     1      19.073  -1.297  53.458  1.00  0.00    -0.023 C 
HETATM    6  C11 UNL     1      18.011  -1.153  52.686  1.00  0.00    -0.008 C 
HETATM    7  C12 UNL     1      17.189  -0.517  51.642  1.00  0.00     0.137 C 
HETATM    8 CL1  UNL     1      15.445  -0.900  51.934  1.00  0.00    -0.118 Cl
HETATM    9  C13 UNL     1      17.286   0.995  51.556  1.00  0.00     0.163 C 
HETATM   10  C14 UNL     1      18.642   1.503  51.336  1.00  0.00     0.006 C 
HETATM   11  C15 UNL     1      19.404   2.370  51.958  1.00  0.00    -0.002 C 
HETATM   12  C16 UNL     1      20.724   2.934  51.841  1.00  0.00    -0.002 C 
HETATM   13  C17 UNL     1      21.760   2.827  51.038  1.00  0.00     0.004 C 
HETATM   14  C18 UNL     1      23.107   3.534  51.131  1.00  0.00     0.305 C 
HETATM   15  N2  UNL     1      23.995   2.305  51.255  1.00  0.00     0.112 N 
HETATM   16  C19 UNL     1      24.074   1.147  52.126  1.00  0.00     0.446 A 
HETATM   17  O2  UNL     1      23.171   1.982  52.356  1.00  0.00    -0.125 OA
HETATM   18  H23 UNL     1      24.805   2.156  50.572  1.00  0.00     0.325 HD
ENDROOT
BRANCH   1  19
HETATM   19  C6  UNL     1      24.623  -0.892  53.090  1.00  0.00     0.181 C 
BRANCH  19  20
HETATM   20  C5  UNL     1      25.968  -0.565  53.564  1.00  0.00     0.058 A 
HETATM   21  C4  UNL     1      26.426   0.398  54.468  1.00  0.00     0.031 A 
HETATM   22  C3  UNL     1      27.808   0.231  54.510  1.00  0.00     0.029 A 
HETATM   23  C2  UNL     1      28.178  -0.791  53.667  1.00  0.00     0.036 A 
HETATM   24  C1  UNL     1      29.578  -1.243  53.457  1.00  0.00     0.071 C 
HETATM   25  N3  UNL     1      27.048  -1.234  53.126  1.00  0.00    -0.232 N 
BRANCH  25  26
HETATM   26  O3  UNL     1      27.085  -2.285  52.211  1.00  0.00    -0.283 OA
HETATM   27  H24 UNL     1      27.917  -2.355  51.619  1.00  0.00     0.245 HD
ENDBRANCH  25  26
ENDBRANCH  19  20
ENDBRANCH   1  19
BRANCH   9  28
HETATM   28  O1  UNL     1      16.480   1.418  50.497  1.00  0.00    -0.390 OA
HETATM   29  H16 UNL     1      16.949   2.210  50.094  1.00  0.00     0.210 HD
ENDBRANCH   9  28
TORSDOF 4
ENDMDL
