MODEL 1
REMARK VINA RESULT:      -9.1      0.000      0.000
REMARK  2 active torsions:
REMARK  status: ('A' for Active; 'I' for Inactive)
REMARK    1  A    between atoms: O1_2  and  C2_3 
REMARK    2  A    between atoms: C12_16  and  C13_17 
ROOT
HETATM    1  C2  UNL     1      24.689  -0.722  54.250  1.00  0.00     0.105 C 
HETATM    2  C3  UNL     1      23.462  -0.193  54.116  1.00  0.00     0.057 C 
HETATM    3  C4  UNL     1      22.924   0.689  53.064  1.00  0.00     0.037 A 
HETATM    4  C5  UNL     1      21.548   0.837  53.147  1.00  0.00     0.046 A 
HETATM    5  C6  UNL     1      20.774   0.150  54.208  1.00  0.00     0.071 C 
HETATM    6  N1  UNL     1      20.989   1.631  52.215  1.00  0.00    -0.246 NA
HETATM    7  C7  UNL     1      21.703   2.245  51.261  1.00  0.00     0.235 A 
HETATM    8  N2  UNL     1      23.048   2.126  51.147  1.00  0.00    -0.223 NA
HETATM    9  C8  UNL     1      23.658   1.335  52.066  1.00  0.00     0.143 A 
HETATM   10  N3  UNL     1      25.080   1.306  51.816  1.00  0.00    -0.333 N 
HETATM   11  C9  UNL     1      25.578   2.124  50.716  1.00  0.00     0.158 C 
HETATM   12  C10 UNL     1      26.022   0.542  52.561  1.00  0.00     0.073 C 
HETATM   13  C11 UNL     1      27.272   1.093  52.366  1.00  0.00     0.048 C 
HETATM   14  C12 UNL     1      28.457   1.046  53.070  1.00  0.00     0.050 C 
HETATM   15  C14 UNL     1      29.443   0.079  53.152  1.00  0.00     0.016 C 
HETATM   16  C15 UNL     1      29.325  -1.212  53.624  1.00  0.00     0.003 C 
HETATM   17  C16 UNL     1      28.572  -2.249  53.125  1.00  0.00     0.025 C 
HETATM   18  C17 UNL     1      27.329  -2.138  52.532  1.00  0.00     0.142 C 
HETATM   19  O2  UNL     1      26.629  -1.591  53.491  1.00  0.00    -0.318 OA
HETATM   20  C18 UNL     1      25.854  -0.564  53.369  1.00  0.00     0.135 C 
ENDROOT
BRANCH  14  21
HETATM   21  C13 UNL     1      28.765   2.237  53.905  1.00  0.00     0.417 C 
HETATM   22  F1  UNL     1      27.564   2.770  54.370  1.00  0.00    -0.166 F 
HETATM   23  F2  UNL     1      29.458   3.208  53.247  1.00  0.00    -0.166 F 
HETATM   24  F3  UNL     1      29.486   1.914  55.044  1.00  0.00    -0.166 F 
ENDBRANCH  14  21
BRANCH   1  25
HETATM   25  O1  UNL     1      24.861  -1.524  55.383  1.00  0.00    -0.353 OA
HETATM   26  C1  UNL     1      25.046  -0.973  56.670  1.00  0.00     0.210 C 
ENDBRANCH   1  25
TORSDOF 2
ENDMDL
MODEL 2
REMARK VINA RESULT:      -8.3      3.389      5.377
REMARK  2 active torsions:
REMARK  status: ('A' for Active; 'I' for Inactive)
REMARK    1  A    between atoms: O1_2  and  C2_3 
REMARK    2  A    between atoms: C12_16  and  C13_17 
ROOT
HETATM    1  C2  UNL     1      26.256   2.223  52.352  1.00  0.00     0.105 C 
HETATM    2  C3  UNL     1      25.627   1.309  53.110  1.00  0.00     0.057 C 
HETATM    3  C4  UNL     1      24.300   0.692  52.938  1.00  0.00     0.037 A 
HETATM    4  C5  UNL     1      24.096  -0.378  53.795  1.00  0.00     0.046 A 
HETATM    5  C6  UNL     1      25.148  -0.794  54.752  1.00  0.00     0.071 C 
HETATM    6  N1  UNL     1      22.902  -0.990  53.692  1.00  0.00    -0.246 NA
HETATM    7  C7  UNL     1      21.960  -0.602  52.821  1.00  0.00     0.235 A 
HETATM    8  N2  UNL     1      22.121   0.439  51.967  1.00  0.00    -0.223 NA
HETATM    9  C8  UNL     1      23.310   1.088  52.034  1.00  0.00     0.143 A 
HETATM   10  N3  UNL     1      23.333   2.164  51.071  1.00  0.00    -0.333 N 
HETATM   11  C9  UNL     1      22.125   2.374  50.283  1.00  0.00     0.158 C 
HETATM   12  C10 UNL     1      24.441   3.026  50.839  1.00  0.00     0.073 C 
HETATM   13  C11 UNL     1      23.974   4.172  50.228  1.00  0.00     0.048 C 
HETATM   14  C12 UNL     1      24.462   5.456  50.105  1.00  0.00     0.050 C 
HETATM   15  C14 UNL     1      25.423   6.001  49.274  1.00  0.00     0.016 C 
HETATM   16  C15 UNL     1      26.764   5.682  49.206  1.00  0.00     0.003 C 
HETATM   17  C16 UNL     1      27.352   4.493  48.842  1.00  0.00     0.025 C 
HETATM   18  C17 UNL     1      26.858   3.229  49.104  1.00  0.00     0.142 C 
HETATM   19  O2  UNL     1      26.798   3.237  50.410  1.00  0.00    -0.318 OA
HETATM   20  C18 UNL     1      25.783   2.871  51.121  1.00  0.00     0.135 C 
ENDROOT
BRANCH  14  21
HETATM   21  C13 UNL     1      23.869   6.467  51.020  1.00  0.00     0.417 C 
HETATM   22  F1  UNL     1      23.961   5.987  52.325  1.00  0.00    -0.166 F 
HETATM   23  F2  UNL     1      22.568   6.763  50.745  1.00  0.00    -0.166 F 
HETATM   24  F3  UNL     1      24.574   7.661  51.019  1.00  0.00    -0.166 F 
ENDBRANCH  14  21
BRANCH   1  25
HETATM   25  O1  UNL     1      27.524   2.594  52.812  1.00  0.00    -0.353 OA
HETATM   26  C1  UNL     1      28.438   1.651  53.332  1.00  0.00     0.210 C 
ENDBRANCH   1  25
TORSDOF 2
ENDMDL
MODEL 3
REMARK VINA RESULT:      -8.1      3.816      6.568
REMARK  2 active torsions:
REMARK  status: ('A' for Active; 'I' for Inactive)
REMARK    1  A    between atoms: O1_2  and  C2_3 
REMARK    2  A    between atoms: C12_16  and  C13_17 
ROOT
HETATM    1  C2  UNL     1      22.426   1.259  52.972  1.00  0.00     0.105 C 
HETATM    2  C3  UNL     1      23.323   0.406  53.494  1.00  0.00     0.057 C 
HETATM    3  C4  UNL     1      24.779   0.323  53.285  1.00  0.00     0.037 A 
HETATM    4  C5  UNL     1      25.397  -0.541  54.176  1.00  0.00     0.046 A 
HETATM    5  C6  UNL     1      24.606  -1.265  55.200  1.00  0.00     0.071 C 
HETATM    6  N1  UNL     1      26.729  -0.665  54.042  1.00  0.00    -0.246 NA
HETATM    7  C7  UNL     1      27.430  -0.002  53.110  1.00  0.00     0.235 A 
HETATM    8  N2  UNL     1      26.864   0.850  52.221  1.00  0.00    -0.223 NA
HETATM    9  C8  UNL     1      25.520   1.008  52.318  1.00  0.00     0.143 A 
HETATM   10  N3  UNL     1      25.066   1.940  51.312  1.00  0.00    -0.333 N 
HETATM   11  C9  UNL     1      26.070   2.472  50.398  1.00  0.00     0.158 C 
HETATM   12  C10 UNL     1      23.719   2.372  51.151  1.00  0.00     0.073 C 
HETATM   13  C11 UNL     1      23.575   2.861  49.869  1.00  0.00     0.048 C 
HETATM   14  C12 UNL     1      22.493   3.057  49.038  1.00  0.00     0.050 C 
HETATM   15  C14 UNL     1      21.534   4.053  48.992  1.00  0.00     0.016 C 
HETATM   16  C15 UNL     1      20.614   4.389  49.965  1.00  0.00     0.003 C 
HETATM   17  C16 UNL     1      20.835   4.880  51.230  1.00  0.00     0.025 C 
HETATM   18  C17 UNL     1      21.889   4.545  52.058  1.00  0.00     0.142 C 
HETATM   19  O2  UNL     1      21.730   3.253  52.177  1.00  0.00    -0.318 OA
HETATM   20  C18 UNL     1      22.655   2.362  52.029  1.00  0.00     0.135 C 
ENDROOT
BRANCH  14  21
HETATM   21  C13 UNL     1      22.286   2.028  47.984  1.00  0.00     0.417 C 
HETATM   22  F1  UNL     1      21.311   2.491  47.103  1.00  0.00    -0.166 F 
HETATM   23  F2  UNL     1      21.909   0.812  48.468  1.00  0.00    -0.166 F 
HETATM   24  F3  UNL     1      23.418   1.831  47.207  1.00  0.00    -0.166 F 
ENDBRANCH  14  21
BRANCH   1  25
HETATM   25  O1  UNL     1      21.107   1.052  53.391  1.00  0.00    -0.353 OA
HETATM   26  C1  UNL     1      20.793   0.232  54.497  1.00  0.00     0.210 C 
ENDBRANCH   1  25
TORSDOF 2
ENDMDL
MODEL 4
REMARK VINA RESULT:      -8.0      2.782      4.511
REMARK  2 active torsions:
REMARK  status: ('A' for Active; 'I' for Inactive)
REMARK    1  A    between atoms: O1_2  and  C2_3 
REMARK    2  A    between atoms: C12_16  and  C13_17 
ROOT
HETATM    1  C2  UNL     1      25.990   2.782  50.723  1.00  0.00     0.105 C 
HETATM    2  C3  UNL     1      24.818   3.079  50.138  1.00  0.00     0.057 C 
HETATM    3  C4  UNL     1      23.442   2.811  50.593  1.00  0.00     0.037 A 
HETATM    4  C5  UNL     1      22.491   3.474  49.831  1.00  0.00     0.046 A 
HETATM    5  C6  UNL     1      22.897   4.339  48.698  1.00  0.00     0.071 C 
HETATM    6  N1  UNL     1      21.211   3.274  50.192  1.00  0.00    -0.246 NA
HETATM    7  C7  UNL     1      20.860   2.488  51.220  1.00  0.00     0.235 A 
HETATM    8  N2  UNL     1      21.758   1.824  51.987  1.00  0.00    -0.223 NA
HETATM    9  C8  UNL     1      23.064   1.993  51.661  1.00  0.00     0.143 A 
HETATM   10  N3  UNL     1      23.894   1.229  52.562  1.00  0.00    -0.333 N 
HETATM   11  C9  UNL     1      23.214   0.422  53.568  1.00  0.00     0.158 C 
HETATM   12  C10 UNL     1      25.317   1.208  52.538  1.00  0.00     0.073 C 
HETATM   13  C11 UNL     1      25.741   0.068  53.189  1.00  0.00     0.048 C 
HETATM   14  C12 UNL     1      26.908  -0.667  53.168  1.00  0.00     0.050 C 
HETATM   15  C14 UNL     1      28.136  -0.466  53.771  1.00  0.00     0.016 C 
HETATM   16  C15 UNL     1      29.011   0.585  53.581  1.00  0.00     0.003 C 
HETATM   17  C16 UNL     1      28.833   1.919  53.861  1.00  0.00     0.025 C 
HETATM   18  C17 UNL     1      27.648   2.622  53.747  1.00  0.00     0.142 C 
HETATM   19  O2  UNL     1      27.369   2.461  52.480  1.00  0.00    -0.318 OA
HETATM   20  C18 UNL     1      26.226   2.095  51.999  1.00  0.00     0.135 C 
ENDROOT
BRANCH  14  21
HETATM   21  C13 UNL     1      26.877  -1.913  52.355  1.00  0.00     0.417 C 
HETATM   22  F1  UNL     1      27.003  -1.563  51.012  1.00  0.00    -0.166 F 
HETATM   23  F2  UNL     1      25.744  -2.650  52.520  1.00  0.00    -0.166 F 
HETATM   24  F3  UNL     1      27.954  -2.744  52.619  1.00  0.00    -0.166 F 
ENDBRANCH  14  21
BRANCH   1  25
HETATM   25  O1  UNL     1      27.121   3.186  50.006  1.00  0.00    -0.353 OA
HETATM   26  C1  UNL     1      27.086   4.267  49.098  1.00  0.00     0.210 C 
ENDBRANCH   1  25
TORSDOF 2
ENDMDL
MODEL 5
REMARK VINA RESULT:      -8.0      2.763      4.241
REMARK  2 active torsions:
REMARK  status: ('A' for Active; 'I' for Inactive)
REMARK    1  A    between atoms: O1_2  and  C2_3 
REMARK    2  A    between atoms: C12_16  and  C13_17 
ROOT
HETATM    1  C2  UNL     1      23.816   1.488  51.585  1.00  0.00     0.105 C 
HETATM    2  C3  UNL     1      22.532   1.115  51.448  1.00  0.00     0.057 C 
HETATM    3  C4  UNL     1      21.681   0.315  52.346  1.00  0.00     0.037 A 
HETATM    4  C5  UNL     1      20.346   0.336  51.973  1.00  0.00     0.046 A 
HETATM    5  C6  UNL     1      19.903   1.106  50.786  1.00  0.00     0.071 C 
HETATM    6  N1  UNL     1      19.511  -0.375  52.751  1.00  0.00    -0.246 NA
HETATM    7  C7  UNL     1      19.927  -1.066  53.822  1.00  0.00     0.235 A 
HETATM    8  N2  UNL     1      21.222  -1.113  54.218  1.00  0.00    -0.223 NA
HETATM    9  C8  UNL     1      22.104  -0.410  53.464  1.00  0.00     0.143 A 
HETATM   10  N3  UNL     1      23.434  -0.555  54.007  1.00  0.00    -0.333 N 
HETATM   11  C9  UNL     1      23.585  -1.419  55.171  1.00  0.00     0.158 C 
HETATM   12  C10 UNL     1      24.598   0.082  53.491  1.00  0.00     0.073 C 
HETATM   13  C11 UNL     1      25.701  -0.618  53.935  1.00  0.00     0.048 C 
HETATM   14  C12 UNL     1      27.005  -0.723  53.497  1.00  0.00     0.050 C 
HETATM   15  C14 UNL     1      28.097   0.115  53.641  1.00  0.00     0.016 C 
HETATM   16  C15 UNL     1      28.239   1.407  53.180  1.00  0.00     0.003 C 
HETATM   17  C16 UNL     1      27.531   2.533  53.529  1.00  0.00     0.025 C 
HETATM   18  C17 UNL     1      26.186   2.581  53.845  1.00  0.00     0.142 C 
HETATM   19  O2  UNL     1      25.643   2.116  52.750  1.00  0.00    -0.318 OA
HETATM   20  C18 UNL     1      24.740   1.194  52.688  1.00  0.00     0.135 C 
ENDROOT
BRANCH  14  21
HETATM   21  C13 UNL     1      27.334  -1.949  52.722  1.00  0.00     0.417 C 
HETATM   22  F1  UNL     1      28.717  -2.008  52.561  1.00  0.00    -0.166 F 
HETATM   23  F2  UNL     1      26.740  -2.003  51.498  1.00  0.00    -0.166 F 
HETATM   24  F3  UNL     1      26.994  -3.110  53.399  1.00  0.00    -0.166 F 
ENDBRANCH  14  21
BRANCH   1  25
HETATM   25  O1  UNL     1      24.319   2.255  50.529  1.00  0.00    -0.353 OA
HETATM   26  C1  UNL     1      23.483   3.057  49.720  1.00  0.00     0.210 C 
ENDBRANCH   1  25
TORSDOF 2
ENDMDL
MODEL 6
REMARK VINA RESULT:      -7.9      4.788      7.521
REMARK  2 active torsions:
REMARK  status: ('A' for Active; 'I' for Inactive)
REMARK    1  A    between atoms: O1_2  and  C2_3 
REMARK    2  A    between atoms: C12_16  and  C13_17 
ROOT
HETATM    1  C2  UNL     1      26.137   3.317  50.178  1.00  0.00     0.105 C 
HETATM    2  C3  UNL     1      26.869   4.171  49.443  1.00  0.00     0.057 C 
HETATM    3  C4  UNL     1      26.471   5.423  48.777  1.00  0.00     0.037 A 
HETATM    4  C5  UNL     1      27.558   6.145  48.308  1.00  0.00     0.046 A 
HETATM    5  C6  UNL     1      28.939   5.643  48.497  1.00  0.00     0.071 C 
HETATM    6  N1  UNL     1      27.266   7.303  47.687  1.00  0.00    -0.246 NA
HETATM    7  C7  UNL     1      26.010   7.743  47.524  1.00  0.00     0.235 A 
HETATM    8  N2  UNL     1      24.922   7.067  47.967  1.00  0.00    -0.223 NA
HETATM    9  C8  UNL     1      25.166   5.892  48.600  1.00  0.00     0.143 A 
HETATM   10  N3  UNL     1      23.918   5.292  49.011  1.00  0.00    -0.333 N 
HETATM   11  C9  UNL     1      22.693   5.995  48.648  1.00  0.00     0.158 C 
HETATM   12  C10 UNL     1      23.801   4.075  49.739  1.00  0.00     0.073 C 
HETATM   13  C11 UNL     1      22.524   3.585  49.554  1.00  0.00     0.048 C 
HETATM   14  C12 UNL     1      21.954   2.336  49.675  1.00  0.00     0.050 C 
HETATM   15  C14 UNL     1      21.534   1.617  50.780  1.00  0.00     0.016 C 
HETATM   16  C15 UNL     1      22.297   1.169  51.839  1.00  0.00     0.003 C 
HETATM   17  C16 UNL     1      22.988   1.901  52.777  1.00  0.00     0.025 C 
HETATM   18  C17 UNL     1      23.640   3.098  52.553  1.00  0.00     0.142 C 
HETATM   19  O2  UNL     1      24.500   2.760  51.627  1.00  0.00    -0.318 OA
HETATM   20  C18 UNL     1      24.712   3.399  50.524  1.00  0.00     0.135 C 
ENDROOT
BRANCH  14  21
HETATM   21  C13 UNL     1      21.736   1.594  48.405  1.00  0.00     0.417 C 
HETATM   22  F1  UNL     1      20.589   2.098  47.794  1.00  0.00    -0.166 F 
HETATM   23  F2  UNL     1      21.599   0.249  48.568  1.00  0.00    -0.166 F 
HETATM   24  F3  UNL     1      22.757   1.798  47.490  1.00  0.00    -0.166 F 
ENDBRANCH  14  21
BRANCH   1  25
HETATM   25  O1  UNL     1      26.842   2.212  50.667  1.00  0.00    -0.353 OA
HETATM   26  C1  UNL     1      27.317   2.154  51.996  1.00  0.00     0.210 C 
ENDBRANCH   1  25
TORSDOF 2
ENDMDL
MODEL 7
REMARK VINA RESULT:      -7.7      4.264      7.023
REMARK  2 active torsions:
REMARK  status: ('A' for Active; 'I' for Inactive)
REMARK    1  A    between atoms: O1_2  and  C2_3 
REMARK    2  A    between atoms: C12_16  and  C13_17 
ROOT
HETATM    1  C2  UNL     1      22.102   1.990  52.291  1.00  0.00     0.105 C 
HETATM    2  C3  UNL     1      22.918   1.057  52.811  1.00  0.00     0.057 C 
HETATM    3  C4  UNL     1      24.369   0.868  52.635  1.00  0.00     0.037 A 
HETATM    4  C5  UNL     1      24.895  -0.064  53.516  1.00  0.00     0.046 A 
HETATM    5  C6  UNL     1      24.025  -0.753  54.498  1.00  0.00     0.071 C 
HETATM    6  N1  UNL     1      26.217  -0.286  53.410  1.00  0.00    -0.246 NA
HETATM    7  C7  UNL     1      26.991   0.345  52.516  1.00  0.00     0.235 A 
HETATM    8  N2  UNL     1      26.515   1.262  51.638  1.00  0.00    -0.223 NA
HETATM    9  C8  UNL     1      25.185   1.520  51.706  1.00  0.00     0.143 A 
HETATM   10  N3  UNL     1      24.830   2.511  50.717  1.00  0.00    -0.333 N 
HETATM   11  C9  UNL     1      25.895   2.989  49.844  1.00  0.00     0.158 C 
HETATM   12  C10 UNL     1      23.525   3.049  50.536  1.00  0.00     0.073 C 
HETATM   13  C11 UNL     1      23.453   3.582  49.265  1.00  0.00     0.048 C 
HETATM   14  C12 UNL     1      22.411   3.883  48.414  1.00  0.00     0.050 C 
HETATM   15  C14 UNL     1      21.532   4.951  48.373  1.00  0.00     0.016 C 
HETATM   16  C15 UNL     1      20.615   5.330  49.333  1.00  0.00     0.003 C 
HETATM   17  C16 UNL     1      20.839   5.768  50.617  1.00  0.00     0.025 C 
HETATM   18  C17 UNL     1      21.842   5.331  51.461  1.00  0.00     0.142 C 
HETATM   19  O2  UNL     1      21.582   4.052  51.538  1.00  0.00    -0.318 OA
HETATM   20  C18 UNL     1      22.440   3.097  51.387  1.00  0.00     0.135 C 
ENDROOT
BRANCH  14  21
HETATM   21  C13 UNL     1      22.155   2.902  47.326  1.00  0.00     0.417 C 
HETATM   22  F1  UNL     1      20.851   2.429  47.459  1.00  0.00    -0.166 F 
HETATM   23  F2  UNL     1      23.014   1.845  47.325  1.00  0.00    -0.166 F 
HETATM   24  F3  UNL     1      22.208   3.480  46.067  1.00  0.00    -0.166 F 
ENDBRANCH  14  21
BRANCH   1  25
HETATM   25  O1  UNL     1      20.761   1.873  52.672  1.00  0.00    -0.353 OA
HETATM   26  C1  UNL     1      19.879   0.970  52.039  1.00  0.00     0.210 C 
ENDBRANCH   1  25
TORSDOF 2
ENDMDL
MODEL 8
REMARK VINA RESULT:      -7.5      9.040     10.879
REMARK  2 active torsions:
REMARK  status: ('A' for Active; 'I' for Inactive)
REMARK    1  A    between atoms: O1_2  and  C2_3 
REMARK    2  A    between atoms: C12_16  and  C13_17 
ROOT
HETATM    1  C2  UNL     1      30.314   5.894  47.504  1.00  0.00     0.105 C 
HETATM    2  C3  UNL     1      29.678   7.023  47.148  1.00  0.00     0.057 C 
HETATM    3  C4  UNL     1      30.068   8.059  46.176  1.00  0.00     0.037 A 
HETATM    4  C5  UNL     1      29.043   8.955  45.914  1.00  0.00     0.046 A 
HETATM    5  C6  UNL     1      27.727   8.818  46.582  1.00  0.00     0.071 C 
HETATM    6  N1  UNL     1      29.331   9.930  45.032  1.00  0.00    -0.246 NA
HETATM    7  C7  UNL     1      30.527  10.041  44.436  1.00  0.00     0.235 A 
HETATM    8  N2  UNL     1      31.553   9.186  44.666  1.00  0.00    -0.223 NA
HETATM    9  C8  UNL     1      31.311   8.185  45.549  1.00  0.00     0.143 A 
HETATM   10  N3  UNL     1      32.490   7.362  45.687  1.00  0.00    -0.333 N 
HETATM   11  C9  UNL     1      33.671   7.763  44.934  1.00  0.00     0.158 C 
HETATM   12  C10 UNL     1      32.579   6.197  46.501  1.00  0.00     0.073 C 
HETATM   13  C11 UNL     1      33.912   5.950  46.753  1.00  0.00     0.048 C 
HETATM   14  C12 UNL     1      34.585   5.242  47.726  1.00  0.00     0.050 C 
HETATM   15  C14 UNL     1      34.816   3.887  47.887  1.00  0.00     0.016 C 
HETATM   16  C15 UNL     1      33.885   2.884  48.059  1.00  0.00     0.003 C 
HETATM   17  C16 UNL     1      32.909   2.452  47.192  1.00  0.00     0.025 C 
HETATM   18  C17 UNL     1      32.188   3.246  46.320  1.00  0.00     0.142 C 
HETATM   19  O2  UNL     1      31.618   4.088  47.143  1.00  0.00    -0.318 OA
HETATM   20  C18 UNL     1      31.597   5.374  47.012  1.00  0.00     0.135 C 
ENDROOT
BRANCH  14  21
HETATM   21  C13 UNL     1      35.185   6.049  48.821  1.00  0.00     0.417 C 
HETATM   22  F1  UNL     1      34.212   6.919  49.308  1.00  0.00    -0.166 F 
HETATM   23  F2  UNL     1      36.276   6.769  48.440  1.00  0.00    -0.166 F 
HETATM   24  F3  UNL     1      35.560   5.274  49.907  1.00  0.00    -0.166 F 
ENDBRANCH  14  21
BRANCH   1  25
HETATM   25  O1  UNL     1      29.653   5.129  48.470  1.00  0.00    -0.353 OA
HETATM   26  C1  UNL     1      28.244   5.056  48.534  1.00  0.00     0.210 C 
ENDBRANCH   1  25
TORSDOF 2
ENDMDL
MODEL 9
REMARK VINA RESULT:      -7.4      4.970      7.710
REMARK  2 active torsions:
REMARK  status: ('A' for Active; 'I' for Inactive)
REMARK    1  A    between atoms: O1_2  and  C2_3 
REMARK    2  A    between atoms: C12_16  and  C13_17 
ROOT
HETATM    1  C2  UNL     1      22.763   5.468  48.491  1.00  0.00     0.105 C 
HETATM    2  C3  UNL     1      23.592   6.508  48.302  1.00  0.00     0.057 C 
HETATM    3  C4  UNL     1      25.064   6.560  48.342  1.00  0.00     0.037 A 
HETATM    4  C5  UNL     1      25.567   7.762  47.868  1.00  0.00     0.046 A 
HETATM    5  C6  UNL     1      24.656   8.829  47.391  1.00  0.00     0.071 C 
HETATM    6  N1  UNL     1      26.907   7.878  47.876  1.00  0.00    -0.246 NA
HETATM    7  C7  UNL     1      27.719   6.904  48.311  1.00  0.00     0.235 A 
HETATM    8  N2  UNL     1      27.266   5.716  48.782  1.00  0.00    -0.223 NA
HETATM    9  C8  UNL     1      25.920   5.551  48.794  1.00  0.00     0.143 A 
HETATM   10  N3  UNL     1      25.593   4.246  49.318  1.00  0.00    -0.333 N 
HETATM   11  C9  UNL     1      26.704   3.410  49.758  1.00  0.00     0.158 C 
HETATM   12  C10 UNL     1      24.275   3.721  49.433  1.00  0.00     0.073 C 
HETATM   13  C11 UNL     1      24.299   2.702  50.363  1.00  0.00     0.048 C 
HETATM   14  C12 UNL     1      23.335   2.099  51.144  1.00  0.00     0.050 C 
HETATM   15  C14 UNL     1      22.379   1.142  50.854  1.00  0.00     0.016 C 
HETATM   16  C15 UNL     1      21.333   1.235  49.959  1.00  0.00     0.003 C 
HETATM   17  C16 UNL     1      21.375   1.377  48.591  1.00  0.00     0.025 C 
HETATM   18  C17 UNL     1      22.313   2.100  47.879  1.00  0.00     0.142 C 
HETATM   19  O2  UNL     1      22.156   3.298  48.379  1.00  0.00    -0.318 OA
HETATM   20  C18 UNL     1      23.103   4.072  48.796  1.00  0.00     0.135 C 
ENDROOT
BRANCH  14  21
HETATM   21  C13 UNL     1      23.285   2.533  52.565  1.00  0.00     0.417 C 
HETATM   22  F1  UNL     1      22.424   3.625  52.661  1.00  0.00    -0.166 F 
HETATM   23  F2  UNL     1      24.498   2.876  53.080  1.00  0.00    -0.166 F 
HETATM   24  F3  UNL     1      22.741   1.565  53.396  1.00  0.00    -0.166 F 
ENDBRANCH  14  21
BRANCH   1  25
HETATM   25  O1  UNL     1      21.403   5.776  48.380  1.00  0.00    -0.353 OA
HETATM   26  C1  UNL     1      20.666   6.314  49.458  1.00  0.00     0.210 C 
ENDBRANCH   1  25
TORSDOF 2
ENDMDL
