MODEL 1
REMARK VINA RESULT:      -7.4      0.000      0.000
REMARK  5 active torsions:
REMARK  status: ('A' for Active; 'I' for Inactive)
REMARK    1  A    between atoms: C2_2  and  C3_3 
REMARK       I    between atoms: C3_3  and  N1_5 
REMARK    2  A    between atoms: N1_5  and  C4_6 
REMARK    3  A    between atoms: C4_6  and  C5_7 
REMARK    4  A    between atoms: C7_9  and  N2_10 
REMARK    5  A    between atoms: N2_10  and  C8_11 
ROOT
HETATM    1  C5  UNL     1      27.125   2.352  52.923  1.00  0.00     0.057 A 
HETATM    2  C6  UNL     1      25.826   2.240  53.399  1.00  0.00     0.079 A 
HETATM    3  C7  UNL     1      24.798   2.267  52.481  1.00  0.00     0.131 A 
HETATM    4  N3  UNL     1      25.005   2.395  51.154  1.00  0.00    -0.224 NA
HETATM    5  C14 UNL     1      26.296   2.502  50.719  1.00  0.00     0.235 A 
HETATM    6  N4  UNL     1      27.324   2.480  51.593  1.00  0.00    -0.245 NA
ENDROOT
BRANCH   3   7
HETATM    7  N2  UNL     1      23.508   2.147  53.068  1.00  0.00    -0.341 N 
HETATM    8  H10 UNL     1      23.250   3.105  53.391  1.00  0.00     0.167 HD
BRANCH   7   9
HETATM    9  C8  UNL     1      22.702   0.986  53.210  1.00  0.00     0.034 A 
HETATM   10  C9  UNL     1      23.243  -0.102  53.843  1.00  0.00     0.029 A 
HETATM   11  C10 UNL     1      22.377  -1.195  53.935  1.00  0.00     0.004 A 
HETATM   12  C11 UNL     1      21.078  -1.185  53.429  1.00  0.00     0.019 A 
HETATM   13  C12 UNL     1      20.624  -0.041  52.808  1.00  0.00     0.013 A 
HETATM   14 BR1  UNL     1      18.846   0.007  52.103  1.00  0.00    -0.051 Br
HETATM   15  C13 UNL     1      21.445   1.065  52.694  1.00  0.00     0.048 A 
ENDBRANCH   7   9
ENDBRANCH   3   7
BRANCH   1  16
HETATM   16  C4  UNL     1      28.377   2.346  53.727  1.00  0.00     0.181 C 
BRANCH  16  17
HETATM   17  N1  UNL     1      29.216   1.188  53.473  1.00  0.00    -0.355 N 
HETATM   18  C3  UNL     1      29.062  -0.074  54.071  1.00  0.00     0.217 C 
HETATM   19  O1  UNL     1      28.144  -0.310  54.911  1.00  0.00    -0.274 OA
HETATM   20  H6  UNL     1      30.001   1.309  52.785  1.00  0.00     0.162 HD
BRANCH  18  21
HETATM   21  C2  UNL     1      30.005  -1.179  53.711  1.00  0.00     0.098 C 
HETATM   22  C1  UNL     1      29.197  -2.360  53.225  1.00  0.00     0.014 C 
ENDBRANCH  18  21
ENDBRANCH  16  17
ENDBRANCH   1  16
TORSDOF 5
ENDMDL
MODEL 2
REMARK VINA RESULT:      -7.2      3.063      6.176
REMARK  5 active torsions:
REMARK  status: ('A' for Active; 'I' for Inactive)
REMARK    1  A    between atoms: C2_2  and  C3_3 
REMARK       I    between atoms: C3_3  and  N1_5 
REMARK    2  A    between atoms: N1_5  and  C4_6 
REMARK    3  A    between atoms: C4_6  and  C5_7 
REMARK    4  A    between atoms: C7_9  and  N2_10 
REMARK    5  A    between atoms: N2_10  and  C8_11 
ROOT
HETATM    1  C5  UNL     1      26.098   0.539  53.486  1.00  0.00     0.057 A 
HETATM    2  C6  UNL     1      25.877   1.048  52.214  1.00  0.00     0.079 A 
HETATM    3  C7  UNL     1      26.759   1.994  51.736  1.00  0.00     0.131 A 
HETATM    4  N3  UNL     1      27.815   2.437  52.449  1.00  0.00    -0.224 NA
HETATM    5  C14 UNL     1      28.003   1.915  53.697  1.00  0.00     0.235 A 
HETATM    6  N4  UNL     1      27.157   0.987  54.193  1.00  0.00    -0.245 NA
ENDROOT
BRANCH   3   7
HETATM    7  N2  UNL     1      26.446   2.452  50.426  1.00  0.00    -0.341 N 
HETATM    8  H10 UNL     1      26.332   1.595  49.842  1.00  0.00     0.167 HD
BRANCH   7   9
HETATM    9  C8  UNL     1      26.307   3.787  49.962  1.00  0.00     0.034 A 
HETATM   10  C9  UNL     1      27.220   4.252  49.053  1.00  0.00     0.029 A 
HETATM   11  C10 UNL     1      27.005   5.575  48.655  1.00  0.00     0.004 A 
HETATM   12  C11 UNL     1      25.955   6.355  49.138  1.00  0.00     0.019 A 
HETATM   13  C12 UNL     1      25.087   5.797  50.051  1.00  0.00     0.013 A 
HETATM   14 BR1  UNL     1      23.635   6.840  50.733  1.00  0.00    -0.051 Br
HETATM   15  C13 UNL     1      25.261   4.493  50.473  1.00  0.00     0.048 A 
ENDBRANCH   7   9
ENDBRANCH   3   7
BRANCH   1  16
HETATM   16  C4  UNL     1      25.281  -0.482  54.195  1.00  0.00     0.181 C 
BRANCH  16  17
HETATM   17  N1  UNL     1      23.866  -0.407  53.878  1.00  0.00    -0.355 N 
HETATM   18  C3  UNL     1      22.830  -0.952  54.654  1.00  0.00     0.217 C 
HETATM   19  O1  UNL     1      23.056  -1.576  55.732  1.00  0.00    -0.274 OA
HETATM   20  H6  UNL     1      23.601   0.097  52.995  1.00  0.00     0.162 HD
BRANCH  18  21
HETATM   21  C2  UNL     1      21.412  -0.795  54.203  1.00  0.00     0.098 C 
HETATM   22  C1  UNL     1      21.414  -0.218  52.806  1.00  0.00     0.014 C 
ENDBRANCH  18  21
ENDBRANCH  16  17
ENDBRANCH   1  16
TORSDOF 5
ENDMDL
MODEL 3
REMARK VINA RESULT:      -7.2      3.025      4.990
REMARK  5 active torsions:
REMARK  status: ('A' for Active; 'I' for Inactive)
REMARK    1  A    between atoms: C2_2  and  C3_3 
REMARK       I    between atoms: C3_3  and  N1_5 
REMARK    2  A    between atoms: N1_5  and  C4_6 
REMARK    3  A    between atoms: C4_6  and  C5_7 
REMARK    4  A    between atoms: C7_9  and  N2_10 
REMARK    5  A    between atoms: N2_10  and  C8_11 
ROOT
HETATM    1  C5  UNL     1      25.455   0.704  54.049  1.00  0.00     0.057 A 
HETATM    2  C6  UNL     1      25.454   1.980  53.503  1.00  0.00     0.079 A 
HETATM    3  C7  UNL     1      24.466   2.290  52.592  1.00  0.00     0.131 A 
HETATM    4  N3  UNL     1      23.514   1.411  52.217  1.00  0.00    -0.224 NA
HETATM    5  C14 UNL     1      23.544   0.165  52.774  1.00  0.00     0.235 A 
HETATM    6  N4  UNL     1      24.498  -0.170  53.669  1.00  0.00    -0.245 NA
ENDROOT
BRANCH   3   7
HETATM    7  N2  UNL     1      24.553   3.619  52.091  1.00  0.00    -0.341 N 
HETATM    8  H10 UNL     1      23.975   4.205  52.732  1.00  0.00     0.167 HD
BRANCH   7   9
HETATM    9  C8  UNL     1      25.265   4.096  50.958  1.00  0.00     0.034 A 
HETATM   10  C9  UNL     1      26.246   3.298  50.430  1.00  0.00     0.029 A 
HETATM   11  C10 UNL     1      26.892   3.849  49.320  1.00  0.00     0.004 A 
HETATM   12  C11 UNL     1      26.569   5.099  48.793  1.00  0.00     0.019 A 
HETATM   13  C12 UNL     1      25.565   5.827  49.394  1.00  0.00     0.013 A 
HETATM   14 BR1  UNL     1      25.097   7.545  48.695  1.00  0.00    -0.051 Br
HETATM   15  C13 UNL     1      24.899   5.322  50.494  1.00  0.00     0.048 A 
ENDBRANCH   7   9
ENDBRANCH   3   7
BRANCH   1  16
HETATM   16  C4  UNL     1      26.417   0.157  55.043  1.00  0.00     0.181 C 
BRANCH  16  17
HETATM   17  N1  UNL     1      27.598  -0.431  54.436  1.00  0.00    -0.355 N 
HETATM   18  C3  UNL     1      28.860   0.180  54.355  1.00  0.00     0.217 C 
HETATM   19  O1  UNL     1      29.076   1.337  54.823  1.00  0.00    -0.274 OA
HETATM   20  H6  UNL     1      27.495  -1.393  54.025  1.00  0.00     0.162 HD
BRANCH  18  21
HETATM   21  C2  UNL     1      29.990  -0.549  53.700  1.00  0.00     0.098 C 
HETATM   22  C1  UNL     1      29.516  -1.934  53.327  1.00  0.00     0.014 C 
ENDBRANCH  18  21
ENDBRANCH  16  17
ENDBRANCH   1  16
TORSDOF 5
ENDMDL
MODEL 4
REMARK VINA RESULT:      -7.2      3.048      4.657
REMARK  5 active torsions:
REMARK  status: ('A' for Active; 'I' for Inactive)
REMARK    1  A    between atoms: C2_2  and  C3_3 
REMARK       I    between atoms: C3_3  and  N1_5 
REMARK    2  A    between atoms: N1_5  and  C4_6 
REMARK    3  A    between atoms: C4_6  and  C5_7 
REMARK    4  A    between atoms: C7_9  and  N2_10 
REMARK    5  A    between atoms: N2_10  and  C8_11 
ROOT
HETATM    1  C5  UNL     1      24.987  -0.025  54.133  1.00  0.00     0.057 A 
HETATM    2  C6  UNL     1      24.865   0.767  53.000  1.00  0.00     0.079 A 
HETATM    3  C7  UNL     1      23.664   0.744  52.324  1.00  0.00     0.131 A 
HETATM    4  N3  UNL     1      22.617  -0.010  52.717  1.00  0.00    -0.224 NA
HETATM    5  C14 UNL     1      22.770  -0.777  53.837  1.00  0.00     0.235 A 
HETATM    6  N4  UNL     1      23.934  -0.777  54.521  1.00  0.00    -0.245 NA
ENDROOT
BRANCH   3   7
HETATM    7  N2  UNL     1      23.641   1.587  51.178  1.00  0.00    -0.341 N 
HETATM    8  H10 UNL     1      23.405   0.968  50.371  1.00  0.00     0.167 HD
BRANCH   7   9
HETATM    9  C8  UNL     1      23.883   2.984  51.099  1.00  0.00     0.034 A 
HETATM   10  C9  UNL     1      23.112   3.816  51.867  1.00  0.00     0.029 A 
HETATM   11  C10 UNL     1      23.421   5.172  51.724  1.00  0.00     0.004 A 
HETATM   12  C11 UNL     1      24.423   5.640  50.876  1.00  0.00     0.019 A 
HETATM   13  C12 UNL     1      25.145   4.723  50.143  1.00  0.00     0.013 A 
HETATM   14 BR1  UNL     1      26.528   5.333  48.969  1.00  0.00    -0.051 Br
HETATM   15  C13 UNL     1      24.875   3.373  50.252  1.00  0.00     0.048 A 
ENDBRANCH   7   9
ENDBRANCH   3   7
BRANCH   1  16
HETATM   16  C4  UNL     1      26.181  -0.154  55.011  1.00  0.00     0.181 C 
BRANCH  16  17
HETATM   17  N1  UNL     1      27.380  -0.554  54.295  1.00  0.00    -0.355 N 
HETATM   18  C3  UNL     1      28.638   0.061  54.411  1.00  0.00     0.217 C 
HETATM   19  O1  UNL     1      28.833   1.050  55.177  1.00  0.00    -0.274 OA
HETATM   20  H6  UNL     1      27.294  -1.370  53.639  1.00  0.00     0.162 HD
BRANCH  18  21
HETATM   21  C2  UNL     1      29.788  -0.462  53.609  1.00  0.00     0.098 C 
HETATM   22  C1  UNL     1      29.558  -1.931  53.341  1.00  0.00     0.014 C 
ENDBRANCH  18  21
ENDBRANCH  16  17
ENDBRANCH   1  16
TORSDOF 5
ENDMDL
MODEL 5
REMARK VINA RESULT:      -7.0      3.832      6.075
REMARK  5 active torsions:
REMARK  status: ('A' for Active; 'I' for Inactive)
REMARK    1  A    between atoms: C2_2  and  C3_3 
REMARK       I    between atoms: C3_3  and  N1_5 
REMARK    2  A    between atoms: N1_5  and  C4_6 
REMARK    3  A    between atoms: C4_6  and  C5_7 
REMARK    4  A    between atoms: C7_9  and  N2_10 
REMARK    5  A    between atoms: N2_10  and  C8_11 
ROOT
HETATM    1  C5  UNL     1      25.727   1.616  52.986  1.00  0.00     0.057 A 
HETATM    2  C6  UNL     1      26.355   2.079  51.838  1.00  0.00     0.079 A 
HETATM    3  C7  UNL     1      25.563   2.572  50.823  1.00  0.00     0.131 A 
HETATM    4  N3  UNL     1      24.217   2.621  50.903  1.00  0.00    -0.224 NA
HETATM    5  C14 UNL     1      23.631   2.158  52.047  1.00  0.00     0.235 A 
HETATM    6  N4  UNL     1      24.379   1.669  53.058  1.00  0.00    -0.245 NA
ENDROOT
BRANCH   3   7
HETATM    7  N2  UNL     1      26.301   3.020  49.692  1.00  0.00    -0.341 N 
HETATM    8  H10 UNL     1      26.728   2.165  49.272  1.00  0.00     0.167 HD
BRANCH   7   9
HETATM    9  C8  UNL     1      26.455   4.343  49.199  1.00  0.00     0.034 A 
HETATM   10  C9  UNL     1      25.344   5.143  49.145  1.00  0.00     0.029 A 
HETATM   11  C10 UNL     1      25.591   6.426  48.646  1.00  0.00     0.004 A 
HETATM   12  C11 UNL     1      26.853   6.856  48.239  1.00  0.00     0.019 A 
HETATM   13  C12 UNL     1      27.909   5.975  48.332  1.00  0.00     0.013 A 
HETATM   14 BR1  UNL     1      29.654   6.534  47.782  1.00  0.00    -0.051 Br
HETATM   15  C13 UNL     1      27.712   4.697  48.819  1.00  0.00     0.048 A 
ENDBRANCH   7   9
ENDBRANCH   3   7
BRANCH   1  16
HETATM   16  C4  UNL     1      26.379   1.049  54.196  1.00  0.00     0.181 C 
BRANCH  16  17
HETATM   17  N1  UNL     1      27.547   0.240  53.893  1.00  0.00    -0.355 N 
HETATM   18  C3  UNL     1      28.876   0.598  54.173  1.00  0.00     0.217 C 
HETATM   19  O1  UNL     1      29.173   1.695  54.731  1.00  0.00    -0.274 OA
HETATM   20  H6  UNL     1      27.378  -0.686  53.428  1.00  0.00     0.162 HD
BRANCH  18  21
HETATM   21  C2  UNL     1      29.983  -0.340  53.804  1.00  0.00     0.098 C 
HETATM   22  C1  UNL     1      29.374  -1.621  53.284  1.00  0.00     0.014 C 
ENDBRANCH  18  21
ENDBRANCH  16  17
ENDBRANCH   1  16
TORSDOF 5
ENDMDL
MODEL 6
REMARK VINA RESULT:      -6.9      3.360      5.791
REMARK  5 active torsions:
REMARK  status: ('A' for Active; 'I' for Inactive)
REMARK    1  A    between atoms: C2_2  and  C3_3 
REMARK       I    between atoms: C3_3  and  N1_5 
REMARK    2  A    between atoms: N1_5  and  C4_6 
REMARK    3  A    between atoms: C4_6  and  C5_7 
REMARK    4  A    between atoms: C7_9  and  N2_10 
REMARK    5  A    between atoms: N2_10  and  C8_11 
ROOT
HETATM    1  C5  UNL     1      25.496   1.992  52.894  1.00  0.00     0.057 A 
HETATM    2  C6  UNL     1      26.145   2.477  51.767  1.00  0.00     0.079 A 
HETATM    3  C7  UNL     1      25.382   2.749  50.651  1.00  0.00     0.131 A 
HETATM    4  N3  UNL     1      24.046   2.566  50.615  1.00  0.00    -0.224 NA
HETATM    5  C14 UNL     1      23.439   2.088  51.741  1.00  0.00     0.235 A 
HETATM    6  N4  UNL     1      24.158   1.811  52.849  1.00  0.00    -0.245 NA
ENDROOT
BRANCH   3   7
HETATM    7  N2  UNL     1      26.139   3.239  49.551  1.00  0.00    -0.341 N 
HETATM    8  H10 UNL     1      26.371   2.405  48.968  1.00  0.00     0.167 HD
BRANCH   7   9
HETATM    9  C8  UNL     1      26.525   4.575  49.263  1.00  0.00     0.034 A 
HETATM   10  C9  UNL     1      27.709   4.777  48.606  1.00  0.00     0.029 A 
HETATM   11  C10 UNL     1      28.006   6.122  48.367  1.00  0.00     0.004 A 
HETATM   12  C11 UNL     1      27.174   7.168  48.761  1.00  0.00     0.019 A 
HETATM   13  C12 UNL     1      26.001   6.863  49.418  1.00  0.00     0.013 A 
HETATM   14 BR1  UNL     1      24.835   8.276  49.972  1.00  0.00    -0.051 Br
HETATM   15  C13 UNL     1      25.666   5.548  49.675  1.00  0.00     0.048 A 
ENDBRANCH   7   9
ENDBRANCH   3   7
BRANCH   1  16
HETATM   16  C4  UNL     1      26.114   1.635  54.198  1.00  0.00     0.181 C 
BRANCH  16  17
HETATM   17  N1  UNL     1      27.531   1.329  54.097  1.00  0.00    -0.355 N 
HETATM   18  C3  UNL     1      28.074   0.045  53.926  1.00  0.00     0.217 C 
HETATM   19  O1  UNL     1      27.345  -0.987  53.844  1.00  0.00    -0.274 OA
HETATM   20  H6  UNL     1      28.199   2.137  54.157  1.00  0.00     0.162 HD
BRANCH  18  21
HETATM   21  C2  UNL     1      29.559  -0.119  53.836  1.00  0.00     0.098 C 
HETATM   22  C1  UNL     1      29.863  -1.563  53.511  1.00  0.00     0.014 C 
ENDBRANCH  18  21
ENDBRANCH  16  17
ENDBRANCH   1  16
TORSDOF 5
ENDMDL
MODEL 7
REMARK VINA RESULT:      -6.9      1.945      2.882
REMARK  5 active torsions:
REMARK  status: ('A' for Active; 'I' for Inactive)
REMARK    1  A    between atoms: C2_2  and  C3_3 
REMARK       I    between atoms: C3_3  and  N1_5 
REMARK    2  A    between atoms: N1_5  and  C4_6 
REMARK    3  A    between atoms: C4_6  and  C5_7 
REMARK    4  A    between atoms: C7_9  and  N2_10 
REMARK    5  A    between atoms: N2_10  and  C8_11 
ROOT
HETATM    1  C5  UNL     1      25.119  -0.222  52.874  1.00  0.00     0.057 A 
HETATM    2  C6  UNL     1      23.805  -0.137  53.314  1.00  0.00     0.079 A 
HETATM    3  C7  UNL     1      23.068   0.964  52.933  1.00  0.00     0.131 A 
HETATM    4  N3  UNL     1      23.569   1.948  52.159  1.00  0.00    -0.224 NA
HETATM    5  C14 UNL     1      24.865   1.833  51.743  1.00  0.00     0.235 A 
HETATM    6  N4  UNL     1      25.613   0.767  52.099  1.00  0.00    -0.245 NA
ENDROOT
BRANCH   3   7
HETATM    7  N2  UNL     1      21.737   0.957  53.435  1.00  0.00    -0.341 N 
HETATM    8  H10 UNL     1      21.795   1.332  54.407  1.00  0.00     0.167 HD
BRANCH   7   9
HETATM    9  C8  UNL     1      20.545   0.537  52.787  1.00  0.00     0.034 A 
HETATM   10  C9  UNL     1      20.169   1.190  51.643  1.00  0.00     0.029 A 
HETATM   11  C10 UNL     1      18.985   0.709  51.076  1.00  0.00     0.004 A 
HETATM   12  C11 UNL     1      18.250  -0.341  51.622  1.00  0.00     0.019 A 
HETATM   13  C12 UNL     1      18.711  -0.935  52.778  1.00  0.00     0.013 A 
HETATM   14 BR1  UNL     1      17.724  -2.379  53.554  1.00  0.00    -0.051 Br
HETATM   15  C13 UNL     1      19.876  -0.493  53.373  1.00  0.00     0.048 A 
ENDBRANCH   7   9
ENDBRANCH   3   7
BRANCH   1  16
HETATM   16  C4  UNL     1      26.090  -1.312  53.160  1.00  0.00     0.181 C 
BRANCH  16  17
HETATM   17  N1  UNL     1      27.448  -0.835  53.354  1.00  0.00    -0.355 N 
HETATM   18  C3  UNL     1      28.601  -1.637  53.330  1.00  0.00     0.217 C 
HETATM   19  O1  UNL     1      28.546  -2.886  53.131  1.00  0.00    -0.274 OA
HETATM   20  H6  UNL     1      27.573   0.194  53.525  1.00  0.00     0.162 HD
BRANCH  18  21
HETATM   21  C2  UNL     1      29.941  -1.005  53.544  1.00  0.00     0.098 C 
HETATM   22  C1  UNL     1      29.747   0.484  53.714  1.00  0.00     0.014 C 
ENDBRANCH  18  21
ENDBRANCH  16  17
ENDBRANCH   1  16
TORSDOF 5
ENDMDL
MODEL 8
REMARK VINA RESULT:      -6.6      1.996      3.172
REMARK  5 active torsions:
REMARK  status: ('A' for Active; 'I' for Inactive)
REMARK    1  A    between atoms: C2_2  and  C3_3 
REMARK       I    between atoms: C3_3  and  N1_5 
REMARK    2  A    between atoms: N1_5  and  C4_6 
REMARK    3  A    between atoms: C4_6  and  C5_7 
REMARK    4  A    between atoms: C7_9  and  N2_10 
REMARK    5  A    between atoms: N2_10  and  C8_11 
ROOT
HETATM    1  C5  UNL     1      25.056   1.031  52.657  1.00  0.00     0.057 A 
HETATM    2  C6  UNL     1      23.790   1.570  52.480  1.00  0.00     0.079 A 
HETATM    3  C7  UNL     1      22.727   0.931  53.083  1.00  0.00     0.131 A 
HETATM    4  N3  UNL     1      22.871  -0.184  53.829  1.00  0.00    -0.224 NA
HETATM    5  C14 UNL     1      24.130  -0.688  53.983  1.00  0.00     0.235 A 
HETATM    6  N4  UNL     1      25.191  -0.086  53.406  1.00  0.00    -0.245 NA
ENDROOT
BRANCH   3   7
HETATM    7  N2  UNL     1      21.474   1.560  52.840  1.00  0.00    -0.341 N 
HETATM    8  H10 UNL     1      21.518   2.483  53.324  1.00  0.00     0.167 HD
BRANCH   7   9
HETATM    9  C8  UNL     1      20.364   1.072  52.101  1.00  0.00     0.034 A 
HETATM   10  C9  UNL     1      20.206   1.508  50.812  1.00  0.00     0.029 A 
HETATM   11  C10 UNL     1      19.087   0.977  50.164  1.00  0.00     0.004 A 
HETATM   12  C11 UNL     1      18.208   0.081  50.771  1.00  0.00     0.019 A 
HETATM   13  C12 UNL     1      18.453  -0.299  52.073  1.00  0.00     0.013 A 
HETATM   14 BR1  UNL     1      17.266  -1.527  52.936  1.00  0.00    -0.051 Br
HETATM   15  C13 UNL     1      19.546   0.201  52.753  1.00  0.00     0.048 A 
ENDBRANCH   7   9
ENDBRANCH   3   7
BRANCH   1  16
HETATM   16  C4  UNL     1      26.335   1.551  52.105  1.00  0.00     0.181 C 
BRANCH  16  17
HETATM   17  N1  UNL     1      27.509   0.914  52.678  1.00  0.00    -0.355 N 
HETATM   18  C3  UNL     1      28.367   1.495  53.626  1.00  0.00     0.217 C 
HETATM   19  O1  UNL     1      28.179   2.665  54.073  1.00  0.00    -0.274 OA
HETATM   20  H6  UNL     1      27.729  -0.061  52.354  1.00  0.00     0.162 HD
BRANCH  18  21
HETATM   21  C2  UNL     1      29.541   0.717  54.130  1.00  0.00     0.098 C 
HETATM   22  C1  UNL     1      29.506  -0.660  53.509  1.00  0.00     0.014 C 
ENDBRANCH  18  21
ENDBRANCH  16  17
ENDBRANCH   1  16
TORSDOF 5
ENDMDL
MODEL 9
REMARK VINA RESULT:      -6.5      2.497      4.513
REMARK  5 active torsions:
REMARK  status: ('A' for Active; 'I' for Inactive)
REMARK    1  A    between atoms: C2_2  and  C3_3 
REMARK       I    between atoms: C3_3  and  N1_5 
REMARK    2  A    between atoms: N1_5  and  C4_6 
REMARK    3  A    between atoms: C4_6  and  C5_7 
REMARK    4  A    between atoms: C7_9  and  N2_10 
REMARK    5  A    between atoms: N2_10  and  C8_11 
ROOT
HETATM    1  C5  UNL     1      26.847   2.106  51.839  1.00  0.00     0.057 A 
HETATM    2  C6  UNL     1      26.009   1.080  52.253  1.00  0.00     0.079 A 
HETATM    3  C7  UNL     1      26.375   0.361  53.372  1.00  0.00     0.131 A 
HETATM    4  N3  UNL     1      27.501   0.614  54.069  1.00  0.00    -0.224 NA
HETATM    5  C14 UNL     1      28.303   1.631  53.635  1.00  0.00     0.235 A 
HETATM    6  N4  UNL     1      27.973   2.353  52.543  1.00  0.00    -0.245 NA
ENDROOT
BRANCH   3   7
HETATM    7  N2  UNL     1      25.452  -0.667  53.712  1.00  0.00    -0.341 N 
HETATM    8  H10 UNL     1      26.023  -1.529  53.857  1.00  0.00     0.167 HD
BRANCH   7   9
HETATM    9  C8  UNL     1      24.040  -0.586  53.840  1.00  0.00     0.034 A 
HETATM   10  C9  UNL     1      23.466  -1.087  54.979  1.00  0.00     0.029 A 
HETATM   11  C10 UNL     1      22.074  -0.965  55.016  1.00  0.00     0.004 A 
HETATM   12  C11 UNL     1      21.332  -0.386  53.988  1.00  0.00     0.019 A 
HETATM   13  C12 UNL     1      22.002   0.089  52.880  1.00  0.00     0.013 A 
HETATM   14 BR1  UNL     1      21.013   0.890  51.451  1.00  0.00    -0.051 Br
HETATM   15  C13 UNL     1      23.377  -0.010  52.800  1.00  0.00     0.048 A 
ENDBRANCH   7   9
ENDBRANCH   3   7
BRANCH   1  16
HETATM   16  C4  UNL     1      26.651   3.005  50.671  1.00  0.00     0.181 C 
BRANCH  16  17
HETATM   17  N1  UNL     1      25.633   4.018  50.890  1.00  0.00    -0.355 N 
HETATM   18  C3  UNL     1      24.274   3.888  50.562  1.00  0.00     0.217 C 
HETATM   19  O1  UNL     1      23.810   2.838  50.028  1.00  0.00    -0.274 OA
HETATM   20  H6  UNL     1      25.945   4.920  51.331  1.00  0.00     0.162 HD
BRANCH  18  21
HETATM   21  C2  UNL     1      23.337   5.019  50.849  1.00  0.00     0.098 C 
HETATM   22  C1  UNL     1      22.561   4.694  52.104  1.00  0.00     0.014 C 
ENDBRANCH  18  21
ENDBRANCH  16  17
ENDBRANCH   1  16
TORSDOF 5
ENDMDL
