MODEL 1
REMARK VINA RESULT:      -7.9      0.000      0.000
REMARK  8 active torsions:
REMARK  status: ('A' for Active; 'I' for Inactive)
REMARK    1  A    between atoms: O1_1  and  C1_2 
REMARK    2  A    between atoms: C6_7  and  O2_8 
REMARK    3  A    between atoms: O2_8  and  C7_9 
REMARK    4  A    between atoms: C7_9  and  O3_10 
REMARK    5  A    between atoms: O3_10  and  C8_11 
REMARK    6  A    between atoms: C8_11  and  N1_12 
REMARK    7  A    between atoms: N1_12  and  C9_13 
REMARK    8  A    between atoms: N4_22  and  C16_23 
ROOT
HETATM    1  C9  UNL     1      23.130   4.002  51.925  1.00  0.00     0.008 C 
HETATM    2  C10 UNL     1      22.728   2.741  51.962  1.00  0.00     0.031 C 
HETATM    3  C11 UNL     1      21.243   2.585  52.034  1.00  0.00     0.184 A 
HETATM    4  C12 UNL     1      20.710   3.440  50.932  1.00  0.00     0.061 A 
HETATM    5  C13 UNL     1      21.124   4.697  50.883  1.00  0.00     0.009 C 
HETATM    6  C14 UNL     1      22.084   5.086  51.960  1.00  0.00     0.085 C 
HETATM    7  N2  UNL     1      19.794   2.910  49.980  1.00  0.00    -0.245 NA
HETATM    8  C15 UNL     1      19.426   1.672  49.976  1.00  0.00     0.223 A 
HETATM    9  N3  UNL     1      19.931   0.762  50.946  1.00  0.00    -0.291 N 
HETATM   10  N4  UNL     1      20.836   1.220  51.910  1.00  0.00    -0.281 N 
HETATM   11  H17 UNL     1      19.607  -0.232  50.906  1.00  0.00     0.188 HD
ENDROOT
BRANCH   1  12
HETATM   12  N1  UNL     1      24.496   4.400  51.856  1.00  0.00    -0.372 N 
HETATM   13  H10 UNL     1      25.095   4.298  52.704  1.00  0.00     0.161 HD
BRANCH  12  14
HETATM   14  C8  UNL     1      24.701   4.886  50.498  1.00  0.00     0.293 C 
BRANCH  14  15
HETATM   15  O3  UNL     1      25.945   4.530  50.012  1.00  0.00    -0.348 OA
BRANCH  15  16
HETATM   16  C7  UNL     1      26.135   3.164  50.183  1.00  0.00     0.347 C 
BRANCH  16  17
HETATM   17  O2  UNL     1      27.173   2.940  51.115  1.00  0.00    -0.323 OA
BRANCH  17  18
HETATM   18  C6  UNL     1      27.081   1.925  52.059  1.00  0.00     0.104 A 
HETATM   19  C1  UNL     1      28.006   1.884  53.082  1.00  0.00     0.099 A 
HETATM   20  C2  UNL     1      27.878   0.867  53.991  1.00  0.00     0.039 A 
HETATM   21  C3  UNL     1      26.893  -0.099  53.941  1.00  0.00     0.003 A 
HETATM   22  C4  UNL     1      25.970  -0.061  52.924  1.00  0.00     0.003 A 
HETATM   23  C5  UNL     1      26.086   0.961  51.998  1.00  0.00     0.040 A 
BRANCH  19  24
HETATM   24  O1  UNL     1      28.991   2.857  53.124  1.00  0.00    -0.358 OA
HETATM   25  H1  UNL     1      29.608   2.989  52.323  1.00  0.00     0.217 HD
ENDBRANCH  19  24
ENDBRANCH  17  18
ENDBRANCH  16  17
ENDBRANCH  15  16
ENDBRANCH  14  15
ENDBRANCH  12  14
ENDBRANCH   1  12
BRANCH  10  26
HETATM   26  C16 UNL     1      21.405   0.302  52.840  1.00  0.00     0.033 A 
HETATM   27  C17 UNL     1      22.330  -0.640  52.825  1.00  0.00     0.027 A 
HETATM   28  C18 UNL     1      22.486  -1.270  54.133  1.00  0.00    -0.002 A 
HETATM   29  C19 UNL     1      21.623  -0.680  54.951  1.00  0.00    -0.021 A 
HETATM   30  C20 UNL     1      20.856   0.369  54.218  1.00  0.00     0.086 A 
ENDBRANCH  10  26
TORSDOF 8
ENDMDL
MODEL 2
REMARK VINA RESULT:      -7.9      2.129      5.088
REMARK  8 active torsions:
REMARK  status: ('A' for Active; 'I' for Inactive)
REMARK    1  A    between atoms: O1_1  and  C1_2 
REMARK    2  A    between atoms: C6_7  and  O2_8 
REMARK    3  A    between atoms: O2_8  and  C7_9 
REMARK    4  A    between atoms: C7_9  and  O3_10 
REMARK    5  A    between atoms: O3_10  and  C8_11 
REMARK    6  A    between atoms: C8_11  and  N1_12 
REMARK    7  A    between atoms: N1_12  and  C9_13 
REMARK    8  A    between atoms: N4_22  and  C16_23 
ROOT
HETATM    1  C9  UNL     1      25.742   1.515  52.331  1.00  0.00     0.008 C 
HETATM    2  C10 UNL     1      24.493   1.264  52.692  1.00  0.00     0.031 C 
HETATM    3  C11 UNL     1      24.243  -0.169  53.033  1.00  0.00     0.184 A 
HETATM    4  C12 UNL     1      25.319  -0.530  54.003  1.00  0.00     0.061 A 
HETATM    5  C13 UNL     1      26.569  -0.263  53.653  1.00  0.00     0.009 C 
HETATM    6  C14 UNL     1      26.723   0.372  52.308  1.00  0.00     0.085 C 
HETATM    7  N2  UNL     1      24.999  -1.135  55.252  1.00  0.00    -0.245 NA
HETATM    8  C15 UNL     1      23.785  -1.347  55.636  1.00  0.00     0.223 A 
HETATM    9  N3  UNL     1      22.687  -0.977  54.810  1.00  0.00    -0.291 N 
HETATM   10  N4  UNL     1      22.934  -0.377  53.570  1.00  0.00    -0.281 N 
HETATM   11  H17 UNL     1      21.720  -1.167  55.160  1.00  0.00     0.188 HD
ENDROOT
BRANCH   1  12
HETATM   12  N1  UNL     1      26.219   2.806  51.960  1.00  0.00    -0.372 N 
HETATM   13  H10 UNL     1      26.283   3.549  52.689  1.00  0.00     0.161 HD
BRANCH  12  14
HETATM   14  C8  UNL     1      26.514   2.727  50.535  1.00  0.00     0.293 C 
BRANCH  14  15
HETATM   15  O3  UNL     1      26.741   3.977  49.992  1.00  0.00    -0.348 OA
BRANCH  15  16
HETATM   16  C7  UNL     1      25.548   4.490  49.496  1.00  0.00     0.347 C 
BRANCH  16  17
HETATM   17  O2  UNL     1      24.853   5.162  50.527  1.00  0.00    -0.323 OA
BRANCH  17  18
HETATM   18  C6  UNL     1      23.519   4.881  50.793  1.00  0.00     0.104 A 
HETATM   19  C1  UNL     1      23.131   4.683  52.102  1.00  0.00     0.099 A 
HETATM   20  C2  UNL     1      21.807   4.409  52.319  1.00  0.00     0.039 A 
HETATM   21  C3  UNL     1      20.858   4.321  51.320  1.00  0.00     0.003 A 
HETATM   22  C4  UNL     1      21.240   4.518  50.016  1.00  0.00     0.003 A 
HETATM   23  C5  UNL     1      22.576   4.796  49.780  1.00  0.00     0.040 A 
BRANCH  19  24
HETATM   24  O1  UNL     1      24.089   4.773  53.098  1.00  0.00    -0.358 OA
HETATM   25  H1  UNL     1      24.142   4.051  53.817  1.00  0.00     0.217 HD
ENDBRANCH  19  24
ENDBRANCH  17  18
ENDBRANCH  16  17
ENDBRANCH  15  16
ENDBRANCH  14  15
ENDBRANCH  12  14
ENDBRANCH   1  12
BRANCH  10  26
HETATM   26  C16 UNL     1      21.842   0.065  52.767  1.00  0.00     0.033 A 
HETATM   27  C17 UNL     1      21.527   0.074  51.486  1.00  0.00     0.027 A 
HETATM   28  C18 UNL     1      20.221   0.684  51.251  1.00  0.00    -0.002 A 
HETATM   29  C19 UNL     1      19.747   1.049  52.436  1.00  0.00    -0.021 A 
HETATM   30  C20 UNL     1      20.720   0.695  53.510  1.00  0.00     0.086 A 
ENDBRANCH  10  26
TORSDOF 8
ENDMDL
MODEL 3
REMARK VINA RESULT:      -7.8      2.927      5.490
REMARK  8 active torsions:
REMARK  status: ('A' for Active; 'I' for Inactive)
REMARK    1  A    between atoms: O1_1  and  C1_2 
REMARK    2  A    between atoms: C6_7  and  O2_8 
REMARK    3  A    between atoms: O2_8  and  C7_9 
REMARK    4  A    between atoms: C7_9  and  O3_10 
REMARK    5  A    between atoms: O3_10  and  C8_11 
REMARK    6  A    between atoms: C8_11  and  N1_12 
REMARK    7  A    between atoms: N1_12  and  C9_13 
REMARK    8  A    between atoms: N4_22  and  C16_23 
ROOT
HETATM    1  C9  UNL     1      24.671   3.146  52.040  1.00  0.00     0.008 C 
HETATM    2  C10 UNL     1      24.370   2.083  52.769  1.00  0.00     0.031 C 
HETATM    3  C11 UNL     1      25.005   0.821  52.281  1.00  0.00     0.184 A 
HETATM    4  C12 UNL     1      26.452   1.152  52.121  1.00  0.00     0.061 A 
HETATM    5  C13 UNL     1      26.755   2.226  51.407  1.00  0.00     0.009 C 
HETATM    6  C14 UNL     1      25.580   2.965  50.853  1.00  0.00     0.085 C 
HETATM    7  N2  UNL     1      27.454   0.336  52.718  1.00  0.00    -0.245 NA
HETATM    8  C15 UNL     1      27.177  -0.679  53.467  1.00  0.00     0.223 A 
HETATM    9  N3  UNL     1      25.825  -1.035  53.734  1.00  0.00    -0.291 N 
HETATM   10  N4  UNL     1      24.792  -0.273  53.176  1.00  0.00    -0.281 N 
HETATM   11  H17 UNL     1      25.645  -1.865  54.345  1.00  0.00     0.188 HD
ENDROOT
BRANCH   1  12
HETATM   12  N1  UNL     1      24.185   4.459  52.309  1.00  0.00    -0.372 N 
HETATM   13  H10 UNL     1      24.561   4.977  53.132  1.00  0.00     0.161 HD
BRANCH  12  14
HETATM   14  C8  UNL     1      23.207   4.743  51.266  1.00  0.00     0.293 C 
BRANCH  14  15
HETATM   15  O3  UNL     1      22.753   6.046  51.335  1.00  0.00    -0.348 OA
BRANCH  15  16
HETATM   16  C7  UNL     1      23.415   6.818  50.387  1.00  0.00     0.347 C 
BRANCH  16  17
HETATM   17  O2  UNL     1      24.693   7.178  50.872  1.00  0.00    -0.323 OA
BRANCH  17  18
HETATM   18  C6  UNL     1      25.801   7.184  50.035  1.00  0.00     0.104 A 
HETATM   19  C1  UNL     1      26.570   8.327  49.962  1.00  0.00     0.099 A 
HETATM   20  C2  UNL     1      27.654   8.289  49.125  1.00  0.00     0.039 A 
HETATM   21  C3  UNL     1      28.012   7.193  48.366  1.00  0.00     0.003 A 
HETATM   22  C4  UNL     1      27.248   6.053  48.437  1.00  0.00     0.003 A 
HETATM   23  C5  UNL     1      26.149   6.075  49.279  1.00  0.00     0.040 A 
BRANCH  19  24
HETATM   24  O1  UNL     1      26.204   9.422  50.726  1.00  0.00    -0.358 OA
HETATM   25  H1  UNL     1      26.656  10.323  50.570  1.00  0.00     0.217 HD
ENDBRANCH  19  24
ENDBRANCH  17  18
ENDBRANCH  16  17
ENDBRANCH  15  16
ENDBRANCH  14  15
ENDBRANCH  12  14
ENDBRANCH   1  12
BRANCH  10  26
HETATM   26  C16 UNL     1      23.437  -0.576  53.496  1.00  0.00     0.033 A 
HETATM   27  C17 UNL     1      22.274  -0.582  52.871  1.00  0.00     0.027 A 
HETATM   28  C18 UNL     1      21.186  -1.001  53.750  1.00  0.00    -0.002 A 
HETATM   29  C19 UNL     1      21.724  -1.252  54.938  1.00  0.00    -0.021 A 
HETATM   30  C20 UNL     1      23.195  -1.010  54.897  1.00  0.00     0.086 A 
ENDBRANCH  10  26
TORSDOF 8
ENDMDL
MODEL 4
REMARK VINA RESULT:      -7.7      2.734      5.588
REMARK  8 active torsions:
REMARK  status: ('A' for Active; 'I' for Inactive)
REMARK    1  A    between atoms: O1_1  and  C1_2 
REMARK    2  A    between atoms: C6_7  and  O2_8 
REMARK    3  A    between atoms: O2_8  and  C7_9 
REMARK    4  A    between atoms: C7_9  and  O3_10 
REMARK    5  A    between atoms: O3_10  and  C8_11 
REMARK    6  A    between atoms: C8_11  and  N1_12 
REMARK    7  A    between atoms: N1_12  and  C9_13 
REMARK    8  A    between atoms: N4_22  and  C16_23 
ROOT
HETATM    1  C9  UNL     1      24.572   3.138  52.229  1.00  0.00     0.008 C 
HETATM    2  C10 UNL     1      24.344   2.067  52.974  1.00  0.00     0.031 C 
HETATM    3  C11 UNL     1      24.916   0.808  52.407  1.00  0.00     0.184 A 
HETATM    4  C12 UNL     1      26.340   1.134  52.098  1.00  0.00     0.061 A 
HETATM    5  C13 UNL     1      26.572   2.215  51.368  1.00  0.00     0.009 C 
HETATM    6  C14 UNL     1      25.349   2.967  50.950  1.00  0.00     0.085 C 
HETATM    7  N2  UNL     1      27.395   0.306  52.576  1.00  0.00    -0.245 NA
HETATM    8  C15 UNL     1      27.192  -0.717  53.338  1.00  0.00     0.223 A 
HETATM    9  N3  UNL     1      25.874  -1.069  53.743  1.00  0.00    -0.291 N 
HETATM   10  N4  UNL     1      24.793  -0.296  53.307  1.00  0.00    -0.281 N 
HETATM   11  H17 UNL     1      25.755  -1.906  54.361  1.00  0.00     0.188 HD
ENDROOT
BRANCH   1  12
HETATM   12  N1  UNL     1      24.125   4.449  52.563  1.00  0.00    -0.372 N 
HETATM   13  H10 UNL     1      23.951   4.683  53.564  1.00  0.00     0.161 HD
BRANCH  12  14
HETATM   14  C8  UNL     1      24.026   5.169  51.300  1.00  0.00     0.293 C 
BRANCH  14  15
HETATM   15  O3  UNL     1      22.924   6.003  51.275  1.00  0.00    -0.348 OA
BRANCH  15  16
HETATM   16  C7  UNL     1      21.871   5.360  50.634  1.00  0.00     0.347 C 
BRANCH  16  17
HETATM   17  O2  UNL     1      21.318   4.381  51.490  1.00  0.00    -0.323 OA
BRANCH  17  18
HETATM   18  C6  UNL     1      20.916   3.146  50.999  1.00  0.00     0.104 A 
HETATM   19  C1  UNL     1      19.687   2.648  51.381  1.00  0.00     0.099 A 
HETATM   20  C2  UNL     1      19.330   1.427  50.874  1.00  0.00     0.039 A 
HETATM   21  C3  UNL     1      20.117   0.682  50.018  1.00  0.00     0.003 A 
HETATM   22  C4  UNL     1      21.341   1.174  49.635  1.00  0.00     0.003 A 
HETATM   23  C5  UNL     1      21.716   2.408  50.139  1.00  0.00     0.040 A 
BRANCH  19  24
HETATM   24  O1  UNL     1      18.905   3.402  52.240  1.00  0.00    -0.358 OA
HETATM   25  H1  UNL     1      19.021   4.414  52.275  1.00  0.00     0.217 HD
ENDBRANCH  19  24
ENDBRANCH  17  18
ENDBRANCH  16  17
ENDBRANCH  15  16
ENDBRANCH  14  15
ENDBRANCH  12  14
ENDBRANCH   1  12
BRANCH  10  26
HETATM   26  C16 UNL     1      23.477  -0.596  53.766  1.00  0.00     0.033 A 
HETATM   27  C17 UNL     1      22.912  -0.988  54.893  1.00  0.00     0.027 A 
HETATM   28  C18 UNL     1      21.466  -1.135  54.755  1.00  0.00    -0.002 A 
HETATM   29  C19 UNL     1      21.164  -0.818  53.501  1.00  0.00    -0.021 A 
HETATM   30  C20 UNL     1      22.401  -0.447  52.753  1.00  0.00     0.086 A 
ENDBRANCH  10  26
TORSDOF 8
ENDMDL
MODEL 5
REMARK VINA RESULT:      -7.6      2.616      5.233
REMARK  8 active torsions:
REMARK  status: ('A' for Active; 'I' for Inactive)
REMARK    1  A    between atoms: O1_1  and  C1_2 
REMARK    2  A    between atoms: C6_7  and  O2_8 
REMARK    3  A    between atoms: O2_8  and  C7_9 
REMARK    4  A    between atoms: C7_9  and  O3_10 
REMARK    5  A    between atoms: O3_10  and  C8_11 
REMARK    6  A    between atoms: C8_11  and  N1_12 
REMARK    7  A    between atoms: N1_12  and  C9_13 
REMARK    8  A    between atoms: N4_22  and  C16_23 
ROOT
HETATM    1  C9  UNL     1      25.275   1.967  52.284  1.00  0.00     0.008 C 
HETATM    2  C10 UNL     1      24.197   1.447  52.850  1.00  0.00     0.031 C 
HETATM    3  C11 UNL     1      24.320  -0.012  53.148  1.00  0.00     0.184 A 
HETATM    4  C12 UNL     1      25.612  -0.150  53.885  1.00  0.00     0.061 A 
HETATM    5  C13 UNL     1      26.689   0.387  53.329  1.00  0.00     0.009 C 
HETATM    6  C14 UNL     1      26.450   1.063  52.018  1.00  0.00     0.085 C 
HETATM    7  N2  UNL     1      25.667  -0.831  55.133  1.00  0.00    -0.245 NA
HETATM    8  C15 UNL     1      24.619  -1.307  55.718  1.00  0.00     0.223 A 
HETATM    9  N3  UNL     1      23.332  -1.167  55.127  1.00  0.00    -0.291 N 
HETATM   10  N4  UNL     1      23.209  -0.507  53.900  1.00  0.00    -0.281 N 
HETATM   11  H17 UNL     1      22.509  -1.568  55.635  1.00  0.00     0.188 HD
ENDROOT
BRANCH   1  12
HETATM   12  N1  UNL     1      25.393   3.337  51.907  1.00  0.00    -0.372 N 
HETATM   13  H10 UNL     1      26.285   3.667  51.479  1.00  0.00     0.161 HD
BRANCH  12  14
HETATM   14  C8  UNL     1      24.121   3.957  52.254  1.00  0.00     0.293 C 
BRANCH  14  15
HETATM   15  O3  UNL     1      23.466   4.435  51.135  1.00  0.00    -0.348 OA
BRANCH  15  16
HETATM   16  C7  UNL     1      24.233   5.429  50.539  1.00  0.00     0.347 C 
BRANCH  16  17
HETATM   17  O2  UNL     1      24.830   4.929  49.359  1.00  0.00    -0.323 OA
BRANCH  17  18
HETATM   18  C6  UNL     1      26.026   5.452  48.884  1.00  0.00     0.104 A 
HETATM   19  C1  UNL     1      27.153   4.658  48.912  1.00  0.00     0.099 A 
HETATM   20  C2  UNL     1      28.311   5.212  48.434  1.00  0.00     0.039 A 
HETATM   21  C3  UNL     1      28.409   6.496  47.936  1.00  0.00     0.003 A 
HETATM   22  C4  UNL     1      27.288   7.290  47.906  1.00  0.00     0.003 A 
HETATM   23  C5  UNL     1      26.110   6.743  48.386  1.00  0.00     0.040 A 
BRANCH  19  24
HETATM   24  O1  UNL     1      27.046   3.371  49.414  1.00  0.00    -0.358 OA
HETATM   25  H1  UNL     1      27.357   2.580  48.850  1.00  0.00     0.217 HD
ENDBRANCH  19  24
ENDBRANCH  17  18
ENDBRANCH  16  17
ENDBRANCH  15  16
ENDBRANCH  14  15
ENDBRANCH  12  14
ENDBRANCH   1  12
BRANCH  10  26
HETATM   26  C16 UNL     1      21.918  -0.297  53.335  1.00  0.00     0.033 A 
HETATM   27  C17 UNL     1      21.347  -0.428  52.152  1.00  0.00     0.027 A 
HETATM   28  C18 UNL     1      19.939  -0.045  52.181  1.00  0.00    -0.002 A 
HETATM   29  C19 UNL     1      19.666   0.327  53.426  1.00  0.00    -0.021 A 
HETATM   30  C20 UNL     1      20.885   0.206  54.277  1.00  0.00     0.086 A 
ENDBRANCH  10  26
TORSDOF 8
ENDMDL
MODEL 6
REMARK VINA RESULT:      -7.5      3.181      5.750
REMARK  8 active torsions:
REMARK  status: ('A' for Active; 'I' for Inactive)
REMARK    1  A    between atoms: O1_1  and  C1_2 
REMARK    2  A    between atoms: C6_7  and  O2_8 
REMARK    3  A    between atoms: O2_8  and  C7_9 
REMARK    4  A    between atoms: C7_9  and  O3_10 
REMARK    5  A    between atoms: O3_10  and  C8_11 
REMARK    6  A    between atoms: C8_11  and  N1_12 
REMARK    7  A    between atoms: N1_12  and  C9_13 
REMARK    8  A    between atoms: N4_22  and  C16_23 
ROOT
HETATM    1  C9  UNL     1      22.215   3.447  51.427  1.00  0.00     0.008 C 
HETATM    2  C10 UNL     1      23.446   3.238  51.866  1.00  0.00     0.031 C 
HETATM    3  C11 UNL     1      24.408   2.846  50.792  1.00  0.00     0.184 A 
HETATM    4  C12 UNL     1      24.231   3.870  49.720  1.00  0.00     0.061 A 
HETATM    5  C13 UNL     1      22.997   4.094  49.292  1.00  0.00     0.009 C 
HETATM    6  C14 UNL     1      21.941   3.272  49.957  1.00  0.00     0.085 C 
HETATM    7  N2  UNL     1      25.351   4.570  49.190  1.00  0.00    -0.245 NA
HETATM    8  C15 UNL     1      26.552   4.408  49.636  1.00  0.00     0.223 A 
HETATM    9  N3  UNL     1      26.815   3.503  50.703  1.00  0.00    -0.291 N 
HETATM   10  N4  UNL     1      25.755   2.784  51.268  1.00  0.00    -0.281 N 
HETATM   11  H17 UNL     1      27.802   3.403  51.033  1.00  0.00     0.188 HD
ENDROOT
BRANCH   1  12
HETATM   12  N1  UNL     1      21.125   3.828  52.264  1.00  0.00    -0.372 N 
HETATM   13  H10 UNL     1      21.329   4.232  53.204  1.00  0.00     0.161 HD
BRANCH  12  14
HETATM   14  C8  UNL     1      19.918   3.522  51.509  1.00  0.00     0.293 C 
BRANCH  14  15
HETATM   15  O3  UNL     1      19.268   2.413  52.016  1.00  0.00    -0.348 OA
BRANCH  15  16
HETATM   16  C7  UNL     1      19.158   1.446  51.023  1.00  0.00     0.347 C 
BRANCH  16  17
HETATM   17  O2  UNL     1      19.289   0.160  51.593  1.00  0.00    -0.323 OA
BRANCH  17  18
HETATM   18  C6  UNL     1      20.352  -0.148  52.431  1.00  0.00     0.104 A 
HETATM   19  C1  UNL     1      20.082  -0.652  53.687  1.00  0.00     0.099 A 
HETATM   20  C2  UNL     1      21.161  -0.942  54.480  1.00  0.00     0.039 A 
HETATM   21  C3  UNL     1      22.476  -0.762  54.100  1.00  0.00     0.003 A 
HETATM   22  C4  UNL     1      22.748  -0.261  52.851  1.00  0.00     0.003 A 
HETATM   23  C5  UNL     1      21.669   0.037  52.036  1.00  0.00     0.040 A 
BRANCH  19  24
HETATM   24  O1  UNL     1      18.761  -0.830  54.060  1.00  0.00    -0.358 OA
HETATM   25  H1  UNL     1      18.511  -1.586  54.696  1.00  0.00     0.217 HD
ENDBRANCH  19  24
ENDBRANCH  17  18
ENDBRANCH  16  17
ENDBRANCH  15  16
ENDBRANCH  14  15
ENDBRANCH  12  14
ENDBRANCH   1  12
BRANCH  10  26
HETATM   26  C16 UNL     1      25.995   1.931  52.384  1.00  0.00     0.033 A 
HETATM   27  C17 UNL     1      26.029   2.046  53.698  1.00  0.00     0.027 A 
HETATM   28  C18 UNL     1      26.339   0.776  54.348  1.00  0.00    -0.002 A 
HETATM   29  C19 UNL     1      26.492  -0.124  53.384  1.00  0.00    -0.021 A 
HETATM   30  C20 UNL     1      26.291   0.514  52.050  1.00  0.00     0.086 A 
ENDBRANCH  10  26
TORSDOF 8
ENDMDL
MODEL 7
REMARK VINA RESULT:      -7.4      2.978      5.513
REMARK  8 active torsions:
REMARK  status: ('A' for Active; 'I' for Inactive)
REMARK    1  A    between atoms: O1_1  and  C1_2 
REMARK    2  A    between atoms: C6_7  and  O2_8 
REMARK    3  A    between atoms: O2_8  and  C7_9 
REMARK    4  A    between atoms: C7_9  and  O3_10 
REMARK    5  A    between atoms: O3_10  and  C8_11 
REMARK    6  A    between atoms: C8_11  and  N1_12 
REMARK    7  A    between atoms: N1_12  and  C9_13 
REMARK    8  A    between atoms: N4_22  and  C16_23 
ROOT
HETATM    1  C9  UNL     1      24.907   3.381  51.721  1.00  0.00     0.008 C 
HETATM    2  C10 UNL     1      25.358   2.191  52.086  1.00  0.00     0.031 C 
HETATM    3  C11 UNL     1      24.589   1.576  53.210  1.00  0.00     0.184 A 
HETATM    4  C12 UNL     1      23.158   1.665  52.794  1.00  0.00     0.061 A 
HETATM    5  C13 UNL     1      22.708   2.851  52.411  1.00  0.00     0.009 C 
HETATM    6  C14 UNL     1      23.720   3.951  52.453  1.00  0.00     0.085 C 
HETATM    7  N2  UNL     1      22.322   0.512  52.813  1.00  0.00    -0.245 NA
HETATM    8  C15 UNL     1      22.758  -0.663  53.125  1.00  0.00     0.223 A 
HETATM    9  N3  UNL     1      24.123  -0.862  53.472  1.00  0.00    -0.291 N 
HETATM   10  N4  UNL     1      24.997   0.230  53.472  1.00  0.00    -0.281 N 
HETATM   11  H17 UNL     1      24.434  -1.831  53.718  1.00  0.00     0.188 HD
ENDROOT
BRANCH   1  12
HETATM   12  N1  UNL     1      25.478   4.163  50.675  1.00  0.00    -0.372 N 
HETATM   13  H10 UNL     1      26.409   3.890  50.293  1.00  0.00     0.161 HD
BRANCH  12  14
HETATM   14  C8  UNL     1      24.517   5.223  50.401  1.00  0.00     0.293 C 
BRANCH  14  15
HETATM   15  O3  UNL     1      24.125   5.225  49.076  1.00  0.00    -0.348 OA
BRANCH  15  16
HETATM   16  C7  UNL     1      24.735   6.283  48.414  1.00  0.00     0.347 C 
BRANCH  16  17
HETATM   17  O2  UNL     1      25.936   6.630  49.073  1.00  0.00    -0.323 OA
BRANCH  17  18
HETATM   18  C6  UNL     1      27.115   6.818  48.363  1.00  0.00     0.104 A 
HETATM   19  C1  UNL     1      28.138   5.906  48.524  1.00  0.00     0.099 A 
HETATM   20  C2  UNL     1      29.283   6.129  47.805  1.00  0.00     0.039 A 
HETATM   21  C3  UNL     1      29.464   7.194  46.945  1.00  0.00     0.003 A 
HETATM   22  C4  UNL     1      28.447   8.103  46.782  1.00  0.00     0.003 A 
HETATM   23  C5  UNL     1      27.284   7.891  47.502  1.00  0.00     0.040 A 
BRANCH  19  24
HETATM   24  O1  UNL     1      27.948   4.842  49.389  1.00  0.00    -0.358 OA
HETATM   25  H1  UNL     1      27.516   4.999  50.299  1.00  0.00     0.217 HD
ENDBRANCH  19  24
ENDBRANCH  17  18
ENDBRANCH  16  17
ENDBRANCH  15  16
ENDBRANCH  14  15
ENDBRANCH  12  14
ENDBRANCH   1  12
BRANCH  10  26
HETATM   26  C16 UNL     1      26.382   0.030  53.745  1.00  0.00     0.033 A 
HETATM   27  C17 UNL     1      27.257   0.430  54.648  1.00  0.00     0.027 A 
HETATM   28  C18 UNL     1      28.584  -0.127  54.405  1.00  0.00    -0.002 A 
HETATM   29  C19 UNL     1      28.492  -0.885  53.319  1.00  0.00    -0.021 A 
HETATM   30  C20 UNL     1      27.095  -0.862  52.794  1.00  0.00     0.086 A 
ENDBRANCH  10  26
TORSDOF 8
ENDMDL
MODEL 8
REMARK VINA RESULT:      -7.3      2.829      5.625
REMARK  8 active torsions:
REMARK  status: ('A' for Active; 'I' for Inactive)
REMARK    1  A    between atoms: O1_1  and  C1_2 
REMARK    2  A    between atoms: C6_7  and  O2_8 
REMARK    3  A    between atoms: O2_8  and  C7_9 
REMARK    4  A    between atoms: C7_9  and  O3_10 
REMARK    5  A    between atoms: O3_10  and  C8_11 
REMARK    6  A    between atoms: C8_11  and  N1_12 
REMARK    7  A    between atoms: N1_12  and  C9_13 
REMARK    8  A    between atoms: N4_22  and  C16_23 
ROOT
HETATM    1  C9  UNL     1      24.494   3.036  52.295  1.00  0.00     0.008 C 
HETATM    2  C10 UNL     1      24.337   1.963  53.054  1.00  0.00     0.031 C 
HETATM    3  C11 UNL     1      24.970   0.731  52.491  1.00  0.00     0.184 A 
HETATM    4  C12 UNL     1      26.369   1.132  52.157  1.00  0.00     0.061 A 
HETATM    5  C13 UNL     1      26.530   2.216  51.413  1.00  0.00     0.009 C 
HETATM    6  C14 UNL     1      25.261   2.894  51.006  1.00  0.00     0.085 C 
HETATM    7  N2  UNL     1      27.475   0.370  52.628  1.00  0.00    -0.245 NA
HETATM    8  C15 UNL     1      27.340  -0.654  53.404  1.00  0.00     0.223 A 
HETATM    9  N3  UNL     1      26.050  -1.075  53.833  1.00  0.00    -0.291 N 
HETATM   10  N4  UNL     1      24.921  -0.368  53.405  1.00  0.00    -0.281 N 
HETATM   11  H17 UNL     1      25.987  -1.909  54.461  1.00  0.00     0.188 HD
ENDROOT
BRANCH   1  12
HETATM   12  N1  UNL     1      23.980   4.325  52.622  1.00  0.00    -0.372 N 
HETATM   13  H10 UNL     1      24.613   5.021  53.072  1.00  0.00     0.161 HD
BRANCH  12  14
HETATM   14  C8  UNL     1      22.586   4.316  52.198  1.00  0.00     0.293 C 
BRANCH  14  15
HETATM   15  O3  UNL     1      22.417   4.968  50.991  1.00  0.00    -0.348 OA
BRANCH  15  16
HETATM   16  C7  UNL     1      21.618   6.089  51.179  1.00  0.00     0.347 C 
BRANCH  16  17
HETATM   17  O2  UNL     1      22.283   7.237  50.692  1.00  0.00    -0.323 OA
BRANCH  17  18
HETATM   18  C6  UNL     1      23.450   7.126  49.947  1.00  0.00     0.104 A 
HETATM   19  C1  UNL     1      24.656   7.044  50.613  1.00  0.00     0.099 A 
HETATM   20  C2  UNL     1      25.782   6.936  49.840  1.00  0.00     0.039 A 
HETATM   21  C3  UNL     1      25.776   6.904  48.460  1.00  0.00     0.003 A 
HETATM   22  C4  UNL     1      24.577   6.985  47.794  1.00  0.00     0.003 A 
HETATM   23  C5  UNL     1      23.430   7.095  48.561  1.00  0.00     0.040 A 
BRANCH  19  24
HETATM   24  O1  UNL     1      24.652   7.077  51.997  1.00  0.00    -0.358 OA
HETATM   25  H1  UNL     1      23.910   6.605  52.514  1.00  0.00     0.217 HD
ENDBRANCH  19  24
ENDBRANCH  17  18
ENDBRANCH  16  17
ENDBRANCH  15  16
ENDBRANCH  14  15
ENDBRANCH  12  14
ENDBRANCH   1  12
BRANCH  10  26
HETATM   26  C16 UNL     1      23.631  -0.735  53.887  1.00  0.00     0.033 A 
HETATM   27  C17 UNL     1      23.096  -1.095  55.039  1.00  0.00     0.027 A 
HETATM   28  C18 UNL     1      21.665  -1.358  54.916  1.00  0.00    -0.002 A 
HETATM   29  C19 UNL     1      21.341  -1.145  53.646  1.00  0.00    -0.021 A 
HETATM   30  C20 UNL     1      22.547  -0.731  52.871  1.00  0.00     0.086 A 
ENDBRANCH  10  26
TORSDOF 8
ENDMDL
MODEL 9
REMARK VINA RESULT:      -7.2      5.061      8.712
REMARK  8 active torsions:
REMARK  status: ('A' for Active; 'I' for Inactive)
REMARK    1  A    between atoms: O1_1  and  C1_2 
REMARK    2  A    between atoms: C6_7  and  O2_8 
REMARK    3  A    between atoms: O2_8  and  C7_9 
REMARK    4  A    between atoms: C7_9  and  O3_10 
REMARK    5  A    between atoms: O3_10  and  C8_11 
REMARK    6  A    between atoms: C8_11  and  N1_12 
REMARK    7  A    between atoms: N1_12  and  C9_13 
REMARK    8  A    between atoms: N4_22  and  C16_23 
ROOT
HETATM    1  C9  UNL     1      27.931   5.981  48.355  1.00  0.00     0.008 C 
HETATM    2  C10 UNL     1      29.165   5.502  48.405  1.00  0.00     0.031 C 
HETATM    3  C11 UNL     1      30.193   6.429  47.842  1.00  0.00     0.184 A 
HETATM    4  C12 UNL     1      29.942   7.739  48.514  1.00  0.00     0.061 A 
HETATM    5  C13 UNL     1      28.705   8.212  48.481  1.00  0.00     0.009 C 
HETATM    6  C14 UNL     1      27.720   7.349  47.761  1.00  0.00     0.085 C 
HETATM    7  N2  UNL     1      31.000   8.439  49.160  1.00  0.00    -0.245 NA
HETATM    8  C15 UNL     1      32.198   7.965  49.254  1.00  0.00     0.223 A 
HETATM    9  N3  UNL     1      32.520   6.693  48.704  1.00  0.00    -0.291 N 
HETATM   10  N4  UNL     1      31.525   5.954  48.055  1.00  0.00    -0.281 N 
HETATM   11  H17 UNL     1      33.503   6.348  48.802  1.00  0.00     0.188 HD
ENDROOT
BRANCH   1  12
HETATM   12  N1  UNL     1      26.785   5.280  48.830  1.00  0.00    -0.372 N 
HETATM   13  H10 UNL     1      25.878   5.790  48.907  1.00  0.00     0.161 HD
BRANCH  12  14
HETATM   14  C8  UNL     1      27.234   3.921  49.101  1.00  0.00     0.293 C 
BRANCH  14  15
HETATM   15  O3  UNL     1      26.169   3.062  49.297  1.00  0.00    -0.348 OA
BRANCH  15  16
HETATM   16  C7  UNL     1      25.678   3.221  50.587  1.00  0.00     0.347 C 
BRANCH  16  17
HETATM   17  O2  UNL     1      26.735   3.108  51.518  1.00  0.00    -0.323 OA
BRANCH  17  18
HETATM   18  C6  UNL     1      27.058   1.885  52.090  1.00  0.00     0.104 A 
HETATM   19  C1  UNL     1      28.155   1.811  52.923  1.00  0.00     0.099 A 
HETATM   20  C2  UNL     1      28.437   0.585  53.466  1.00  0.00     0.039 A 
HETATM   21  C3  UNL     1      27.698  -0.557  53.231  1.00  0.00     0.003 A 
HETATM   22  C4  UNL     1      26.604  -0.487  52.403  1.00  0.00     0.003 A 
HETATM   23  C5  UNL     1      26.306   0.745  51.846  1.00  0.00     0.040 A 
BRANCH  19  24
HETATM   24  O1  UNL     1      28.891   2.961  53.153  1.00  0.00    -0.358 OA
HETATM   25  H1  UNL     1      29.852   3.024  52.818  1.00  0.00     0.217 HD
ENDBRANCH  19  24
ENDBRANCH  17  18
ENDBRANCH  16  17
ENDBRANCH  15  16
ENDBRANCH  14  15
ENDBRANCH  12  14
ENDBRANCH   1  12
BRANCH  10  26
HETATM   26  C16 UNL     1      31.818   4.648  47.566  1.00  0.00     0.033 A 
HETATM   27  C17 UNL     1      31.273   3.786  46.728  1.00  0.00     0.027 A 
HETATM   28  C18 UNL     1      32.059   2.559  46.623  1.00  0.00    -0.002 A 
HETATM   29  C19 UNL     1      33.105   2.701  47.427  1.00  0.00    -0.021 A 
HETATM   30  C20 UNL     1      33.058   4.031  48.102  1.00  0.00     0.086 A 
ENDBRANCH  10  26
TORSDOF 8
ENDMDL
