MODEL 1
REMARK VINA RESULT:      -7.0      0.000      0.000
REMARK  8 active torsions:
REMARK  status: ('A' for Active; 'I' for Inactive)
REMARK    1  A    between atoms: C2_2  and  C3_4 
REMARK    2  A    between atoms: C3_4  and  C4_5 
REMARK    3  A    between atoms: C4_5  and  C5_6 
REMARK    4  A    between atoms: C5_6  and  C6_7 
REMARK    5  A    between atoms: C6_7  and  C7_8 
REMARK    6  A    between atoms: C7_8  and  N1_9 
REMARK    7  A    between atoms: N1_9  and  C8_10 
REMARK    8  A    between atoms: C13_17  and  N4_18 
ROOT
HETATM    1  C8  UNL     1      26.299   0.772  52.762  1.00  0.00     0.141 A 
HETATM    2  N2  UNL     1      26.363   2.108  52.915  1.00  0.00    -0.224 NA
HETATM    3  C9  UNL     1      27.506   2.707  53.331  1.00  0.00     0.236 A 
HETATM    4  N3  UNL     1      28.630   2.024  53.613  1.00  0.00    -0.241 NA
HETATM    5  C10 UNL     1      28.629   0.684  53.479  1.00  0.00     0.072 A 
HETATM    6  C11 UNL     1      29.759  -0.063  53.757  1.00  0.00     0.035 A 
HETATM    7  C12 UNL     1      29.728  -1.440  53.610  1.00  0.00     0.031 A 
HETATM    8  C13 UNL     1      28.598  -2.074  53.195  1.00  0.00     0.026 A 
HETATM    9  C14 UNL     1      27.483  -1.323  52.922  1.00  0.00     0.046 A 
HETATM   10  C15 UNL     1      27.453   0.059  53.050  1.00  0.00     0.041 A 
ENDROOT
BRANCH   1  11
HETATM   11  N1  UNL     1      25.115   0.080  52.324  1.00  0.00    -0.343 N 
HETATM   12  H7  UNL     1      24.885  -0.490  51.500  1.00  0.00     0.167 HD
BRANCH  11  13
HETATM   13  C7  UNL     1      24.321   0.445  53.441  1.00  0.00     0.145 C 
BRANCH  13  14
HETATM   14  C6  UNL     1      23.614  -0.513  54.029  1.00  0.00    -0.111 C 
BRANCH  14  15
HETATM   15  C5  UNL     1      22.870  -1.220  54.861  1.00  0.00     0.057 C 
BRANCH  15  16
HETATM   16  C4  UNL     1      21.454  -1.262  54.718  1.00  0.00     0.009 C 
BRANCH  16  17
HETATM   17  C3  UNL     1      20.813  -0.289  54.093  1.00  0.00     0.015 C 
BRANCH  17  18
HETATM   18  C2  UNL     1      19.639  -0.426  53.245  1.00  0.00    -0.012 A 
HETATM   19  C1  UNL     1      19.294   0.036  52.077  1.00  0.00     0.124 A 
HETATM   20 BR1  UNL     1      17.924  -1.248  53.143  1.00  0.00    -0.128 Br
ENDBRANCH  17  18
ENDBRANCH  16  17
ENDBRANCH  15  16
ENDBRANCH  14  15
ENDBRANCH  13  14
ENDBRANCH  11  13
ENDBRANCH   1  11
BRANCH   8  21
HETATM   21  N4  UNL     1      28.575  -3.503  53.045  1.00  0.00    -0.399 N 
HETATM   22  H11 UNL     1      27.886  -3.782  53.787  1.00  0.00     0.156 HD
HETATM   23  H12 UNL     1      29.097  -4.117  52.381  1.00  0.00     0.156 HD
ENDBRANCH   8  21
TORSDOF 8
ENDMDL
MODEL 2
REMARK VINA RESULT:      -7.0      1.680      1.904
REMARK  8 active torsions:
REMARK  status: ('A' for Active; 'I' for Inactive)
REMARK    1  A    between atoms: C2_2  and  C3_4 
REMARK    2  A    between atoms: C3_4  and  C4_5 
REMARK    3  A    between atoms: C4_5  and  C5_6 
REMARK    4  A    between atoms: C5_6  and  C6_7 
REMARK    5  A    between atoms: C6_7  and  C7_8 
REMARK    6  A    between atoms: C7_8  and  N1_9 
REMARK    7  A    between atoms: N1_9  and  C8_10 
REMARK    8  A    between atoms: C13_17  and  N4_18 
ROOT
HETATM    1  C8  UNL     1      25.550   0.249  53.303  1.00  0.00     0.141 A 
HETATM    2  N2  UNL     1      25.289   1.556  53.491  1.00  0.00    -0.224 NA
HETATM    3  C9  UNL     1      26.289   2.435  53.749  1.00  0.00     0.236 A 
HETATM    4  N3  UNL     1      27.581   2.071  53.833  1.00  0.00    -0.241 NA
HETATM    5  C10 UNL     1      27.905   0.777  53.653  1.00  0.00     0.072 A 
HETATM    6  C11 UNL     1      29.220   0.352  53.730  1.00  0.00     0.035 A 
HETATM    7  C12 UNL     1      29.523  -0.987  53.541  1.00  0.00     0.031 A 
HETATM    8  C13 UNL     1      28.546  -1.896  53.281  1.00  0.00     0.026 A 
HETATM    9  C14 UNL     1      27.246  -1.463  53.208  1.00  0.00     0.046 A 
HETATM   10  C15 UNL     1      26.880  -0.136  53.387  1.00  0.00     0.041 A 
ENDROOT
BRANCH   1  11
HETATM   11  N1  UNL     1      24.532  -0.731  53.027  1.00  0.00    -0.343 N 
HETATM   12  H7  UNL     1      24.311  -1.320  52.215  1.00  0.00     0.167 HD
BRANCH  11  13
HETATM   13  C7  UNL     1      23.895  -0.629  54.290  1.00  0.00     0.145 C 
BRANCH  13  14
HETATM   14  C6  UNL     1      22.591  -0.870  54.341  1.00  0.00    -0.111 C 
BRANCH  14  15
HETATM   15  C5  UNL     1      21.311  -1.028  54.052  1.00  0.00     0.057 C 
BRANCH  15  16
HETATM   16  C4  UNL     1      20.525   0.071  53.601  1.00  0.00     0.009 C 
BRANCH  16  17
HETATM   17  C3  UNL     1      20.247   0.216  52.317  1.00  0.00     0.015 C 
BRANCH  17  18
HETATM   18  C2  UNL     1      21.131   0.745  51.290  1.00  0.00    -0.012 A 
HETATM   19  C1  UNL     1      22.278   1.363  51.298  1.00  0.00     0.124 A 
HETATM   20 BR1  UNL     1      21.326   0.946  49.406  1.00  0.00    -0.128 Br
ENDBRANCH  17  18
ENDBRANCH  16  17
ENDBRANCH  15  16
ENDBRANCH  14  15
ENDBRANCH  13  14
ENDBRANCH  11  13
ENDBRANCH   1  11
BRANCH   8  21
HETATM   21  N4  UNL     1      28.870  -3.282  53.087  1.00  0.00    -0.399 N 
HETATM   22  H11 UNL     1      29.918  -3.250  53.036  1.00  0.00     0.156 HD
HETATM   23  H12 UNL     1      28.242  -4.114  53.014  1.00  0.00     0.156 HD
ENDBRANCH   8  21
TORSDOF 8
ENDMDL
MODEL 3
REMARK VINA RESULT:      -6.9      1.794      2.292
REMARK  8 active torsions:
REMARK  status: ('A' for Active; 'I' for Inactive)
REMARK    1  A    between atoms: C2_2  and  C3_4 
REMARK    2  A    between atoms: C3_4  and  C4_5 
REMARK    3  A    between atoms: C4_5  and  C5_6 
REMARK    4  A    between atoms: C5_6  and  C6_7 
REMARK    5  A    between atoms: C6_7  and  C7_8 
REMARK    6  A    between atoms: C7_8  and  N1_9 
REMARK    7  A    between atoms: N1_9  and  C8_10 
REMARK    8  A    between atoms: C13_17  and  N4_18 
ROOT
HETATM    1  C8  UNL     1      26.572   0.990  52.975  1.00  0.00     0.141 A 
HETATM    2  N2  UNL     1      26.774   2.310  53.147  1.00  0.00    -0.224 NA
HETATM    3  C9  UNL     1      27.999   2.790  53.473  1.00  0.00     0.236 A 
HETATM    4  N3  UNL     1      29.074   1.999  53.644  1.00  0.00    -0.241 NA
HETATM    5  C10 UNL     1      28.935   0.669  53.485  1.00  0.00     0.072 A 
HETATM    6  C11 UNL     1      30.010  -0.186  53.650  1.00  0.00     0.035 A 
HETATM    7  C12 UNL     1      29.837  -1.550  53.481  1.00  0.00     0.031 A 
HETATM    8  C13 UNL     1      28.622  -2.066  53.154  1.00  0.00     0.026 A 
HETATM    9  C14 UNL     1      27.564  -1.209  52.993  1.00  0.00     0.046 A 
HETATM   10  C15 UNL     1      27.675   0.166  53.149  1.00  0.00     0.041 A 
ENDROOT
BRANCH   1  11
HETATM   11  N1  UNL     1      25.296   0.421  52.629  1.00  0.00    -0.343 N 
HETATM   12  H7  UNL     1      24.792  -0.428  52.914  1.00  0.00     0.167 HD
BRANCH  11  13
HETATM   13  C7  UNL     1      24.927   1.450  51.725  1.00  0.00     0.145 C 
BRANCH  13  14
HETATM   14  C6  UNL     1      23.652   1.516  51.358  1.00  0.00    -0.111 C 
BRANCH  14  15
HETATM   15  C5  UNL     1      22.384   1.248  51.099  1.00  0.00     0.057 C 
BRANCH  15  16
HETATM   16  C4  UNL     1      21.642   0.361  51.930  1.00  0.00     0.009 C 
BRANCH  16  17
HETATM   17  C3  UNL     1      21.756   0.420  53.246  1.00  0.00     0.015 C 
BRANCH  17  18
HETATM   18  C2  UNL     1      22.063  -0.683  54.143  1.00  0.00    -0.012 A 
HETATM   19  C1  UNL     1      21.493  -1.819  54.426  1.00  0.00     0.124 A 
HETATM   20 BR1  UNL     1      23.330  -1.290  55.429  1.00  0.00    -0.128 Br
ENDBRANCH  17  18
ENDBRANCH  16  17
ENDBRANCH  15  16
ENDBRANCH  14  15
ENDBRANCH  13  14
ENDBRANCH  11  13
ENDBRANCH   1  11
BRANCH   8  21
HETATM   21  N4  UNL     1      28.452  -3.482  52.980  1.00  0.00    -0.399 N 
HETATM   22  H11 UNL     1      29.102  -3.678  52.178  1.00  0.00     0.156 HD
HETATM   23  H12 UNL     1      27.847  -4.154  53.503  1.00  0.00     0.156 HD
ENDBRANCH   8  21
TORSDOF 8
ENDMDL
MODEL 4
REMARK VINA RESULT:      -6.7      4.238      6.525
REMARK  8 active torsions:
REMARK  status: ('A' for Active; 'I' for Inactive)
REMARK    1  A    between atoms: C2_2  and  C3_4 
REMARK    2  A    between atoms: C3_4  and  C4_5 
REMARK    3  A    between atoms: C4_5  and  C5_6 
REMARK    4  A    between atoms: C5_6  and  C6_7 
REMARK    5  A    between atoms: C6_7  and  C7_8 
REMARK    6  A    between atoms: C7_8  and  N1_9 
REMARK    7  A    between atoms: N1_9  and  C8_10 
REMARK    8  A    between atoms: C13_17  and  N4_18 
ROOT
HETATM    1  C8  UNL     1      24.611   2.121  53.117  1.00  0.00     0.141 A 
HETATM    2  N2  UNL     1      23.531   1.319  53.046  1.00  0.00    -0.224 NA
HETATM    3  C9  UNL     1      23.651  -0.024  53.187  1.00  0.00     0.236 A 
HETATM    4  N3  UNL     1      24.829  -0.636  53.403  1.00  0.00    -0.241 NA
HETATM    5  C10 UNL     1      25.946   0.112  53.484  1.00  0.00     0.072 A 
HETATM    6  C11 UNL     1      27.181  -0.470  53.705  1.00  0.00     0.035 A 
HETATM    7  C12 UNL     1      28.313   0.326  53.783  1.00  0.00     0.031 A 
HETATM    8  C13 UNL     1      28.230   1.676  53.646  1.00  0.00     0.026 A 
HETATM    9  C14 UNL     1      27.000   2.242  53.427  1.00  0.00     0.046 A 
HETATM   10  C15 UNL     1      25.831   1.498  53.339  1.00  0.00     0.041 A 
ENDROOT
BRANCH   1  11
HETATM   11  N1  UNL     1      24.547   3.551  52.975  1.00  0.00    -0.343 N 
HETATM   12  H7  UNL     1      24.808   4.341  53.579  1.00  0.00     0.167 HD
BRANCH  11  13
HETATM   13  C7  UNL     1      23.985   3.536  51.673  1.00  0.00     0.145 C 
BRANCH  13  14
HETATM   14  C6  UNL     1      24.820   3.611  50.643  1.00  0.00    -0.111 C 
BRANCH  14  15
HETATM   15  C5  UNL     1      25.385   3.862  49.475  1.00  0.00     0.057 C 
BRANCH  15  16
HETATM   16  C4  UNL     1      26.801   3.946  49.354  1.00  0.00     0.009 C 
BRANCH  16  17
HETATM   17  C3  UNL     1      27.362   4.968  48.731  1.00  0.00     0.015 C 
BRANCH  17  18
HETATM   18  C2  UNL     1      26.893   6.345  48.724  1.00  0.00    -0.012 A 
HETATM   19  C1  UNL     1      26.790   7.273  47.816  1.00  0.00     0.124 A 
HETATM   20 BR1  UNL     1      26.166   7.710  49.836  1.00  0.00    -0.128 Br
ENDBRANCH  17  18
ENDBRANCH  16  17
ENDBRANCH  15  16
ENDBRANCH  14  15
ENDBRANCH  13  14
ENDBRANCH  11  13
ENDBRANCH   1  11
BRANCH   8  21
HETATM   21  N4  UNL     1      29.409   2.493  53.729  1.00  0.00    -0.399 N 
HETATM   22  H11 UNL     1      29.177   3.268  53.058  1.00  0.00     0.156 HD
HETATM   23  H12 UNL     1      30.275   2.366  54.298  1.00  0.00     0.156 HD
ENDBRANCH   8  21
TORSDOF 8
ENDMDL
MODEL 5
REMARK VINA RESULT:      -6.7      2.863      6.637
REMARK  8 active torsions:
REMARK  status: ('A' for Active; 'I' for Inactive)
REMARK    1  A    between atoms: C2_2  and  C3_4 
REMARK    2  A    between atoms: C3_4  and  C4_5 
REMARK    3  A    between atoms: C4_5  and  C5_6 
REMARK    4  A    between atoms: C5_6  and  C6_7 
REMARK    5  A    between atoms: C6_7  and  C7_8 
REMARK    6  A    between atoms: C7_8  and  N1_9 
REMARK    7  A    between atoms: N1_9  and  C8_10 
REMARK    8  A    between atoms: C13_17  and  N4_18 
ROOT
HETATM    1  C8  UNL     1      24.021   1.245  52.026  1.00  0.00     0.141 A 
HETATM    2  N2  UNL     1      23.460   2.114  51.165  1.00  0.00    -0.224 NA
HETATM    3  C9  UNL     1      22.132   2.380  51.211  1.00  0.00     0.236 A 
HETATM    4  N3  UNL     1      21.300   1.807  52.098  1.00  0.00    -0.241 NA
HETATM    5  C10 UNL     1      21.802   0.928  52.987  1.00  0.00     0.072 A 
HETATM    6  C11 UNL     1      20.987   0.312  53.920  1.00  0.00     0.035 A 
HETATM    7  C12 UNL     1      21.532  -0.588  54.822  1.00  0.00     0.031 A 
HETATM    8  C13 UNL     1      22.860  -0.879  54.805  1.00  0.00     0.026 A 
HETATM    9  C14 UNL     1      23.658  -0.262  53.875  1.00  0.00     0.046 A 
HETATM   10  C15 UNL     1      23.171   0.649  52.946  1.00  0.00     0.041 A 
ENDROOT
BRANCH   1  11
HETATM   11  N1  UNL     1      25.424   0.922  52.027  1.00  0.00    -0.343 N 
HETATM   12  H7  UNL     1      25.972   0.119  51.693  1.00  0.00     0.167 HD
BRANCH  11  13
HETATM   13  C7  UNL     1      25.841   2.119  52.663  1.00  0.00     0.145 C 
BRANCH  13  14
HETATM   14  C6  UNL     1      27.046   2.130  53.222  1.00  0.00    -0.111 C 
BRANCH  14  15
HETATM   15  C5  UNL     1      28.309   2.373  53.525  1.00  0.00     0.057 C 
BRANCH  15  16
HETATM   16  C4  UNL     1      29.114   1.377  54.147  1.00  0.00     0.009 C 
BRANCH  16  17
HETATM   17  C3  UNL     1      28.594   0.211  54.490  1.00  0.00     0.015 C 
BRANCH  17  18
HETATM   18  C2  UNL     1      28.507  -0.980  53.658  1.00  0.00    -0.012 A 
HETATM   19  C1  UNL     1      29.355  -1.889  53.269  1.00  0.00     0.124 A 
HETATM   20 BR1  UNL     1      27.299  -2.028  52.624  1.00  0.00    -0.128 Br
ENDBRANCH  17  18
ENDBRANCH  16  17
ENDBRANCH  15  16
ENDBRANCH  14  15
ENDBRANCH  13  14
ENDBRANCH  11  13
ENDBRANCH   1  11
BRANCH   8  21
HETATM   21  N4  UNL     1      23.417  -1.814  55.743  1.00  0.00    -0.399 N 
HETATM   22  H11 UNL     1      22.910  -2.698  55.487  1.00  0.00     0.156 HD
HETATM   23  H12 UNL     1      24.134  -1.670  56.489  1.00  0.00     0.156 HD
ENDBRANCH   8  21
TORSDOF 8
ENDMDL
MODEL 6
REMARK VINA RESULT:      -6.5      3.478      6.005
REMARK  8 active torsions:
REMARK  status: ('A' for Active; 'I' for Inactive)
REMARK    1  A    between atoms: C2_2  and  C3_4 
REMARK    2  A    between atoms: C3_4  and  C4_5 
REMARK    3  A    between atoms: C4_5  and  C5_6 
REMARK    4  A    between atoms: C5_6  and  C6_7 
REMARK    5  A    between atoms: C6_7  and  C7_8 
REMARK    6  A    between atoms: C7_8  and  N1_9 
REMARK    7  A    between atoms: N1_9  and  C8_10 
REMARK    8  A    between atoms: C13_17  and  N4_18 
ROOT
HETATM    1  C8  UNL     1      25.617   1.689  53.405  1.00  0.00     0.141 A 
HETATM    2  N2  UNL     1      26.577   1.307  54.268  1.00  0.00    -0.224 NA
HETATM    3  C9  UNL     1      26.455   0.161  54.982  1.00  0.00     0.236 A 
HETATM    4  N3  UNL     1      25.391  -0.655  54.882  1.00  0.00    -0.241 NA
HETATM    5  C10 UNL     1      24.397  -0.327  54.035  1.00  0.00     0.072 A 
HETATM    6  C11 UNL     1      23.281  -1.134  53.896  1.00  0.00     0.035 A 
HETATM    7  C12 UNL     1      22.274  -0.771  53.017  1.00  0.00     0.031 A 
HETATM    8  C13 UNL     1      22.363   0.372  52.285  1.00  0.00     0.026 A 
HETATM    9  C14 UNL     1      23.473   1.164  52.431  1.00  0.00     0.046 A 
HETATM   10  C15 UNL     1      24.515   0.853  53.295  1.00  0.00     0.041 A 
ENDROOT
BRANCH   1  11
HETATM   11  N1  UNL     1      25.689   2.893  52.620  1.00  0.00    -0.343 N 
HETATM   12  H7  UNL     1      25.192   3.792  52.645  1.00  0.00     0.167 HD
BRANCH  11  13
HETATM   13  C7  UNL     1      26.713   2.431  51.753  1.00  0.00     0.145 C 
BRANCH  13  14
HETATM   14  C6  UNL     1      26.736   2.918  50.518  1.00  0.00    -0.111 C 
BRANCH  14  15
HETATM   15  C5  UNL     1      26.439   3.512  49.376  1.00  0.00     0.057 C 
BRANCH  15  16
HETATM   16  C4  UNL     1      26.026   4.874  49.348  1.00  0.00     0.009 C 
BRANCH  16  17
HETATM   17  C3  UNL     1      24.747   5.191  49.455  1.00  0.00     0.015 C 
BRANCH  17  18
HETATM   18  C2  UNL     1      23.625   4.266  49.516  1.00  0.00    -0.012 A 
HETATM   19  C1  UNL     1      22.634   4.082  50.340  1.00  0.00     0.124 A 
HETATM   20 BR1  UNL     1      22.806   2.807  48.606  1.00  0.00    -0.128 Br
ENDBRANCH  17  18
ENDBRANCH  16  17
ENDBRANCH  15  16
ENDBRANCH  14  15
ENDBRANCH  13  14
ENDBRANCH  11  13
ENDBRANCH   1  11
BRANCH   8  21
HETATM   21  N4  UNL     1      21.314   0.741  51.375  1.00  0.00    -0.399 N 
HETATM   22  H11 UNL     1      20.481   0.777  52.015  1.00  0.00     0.156 HD
HETATM   23  H12 UNL     1      21.350   0.927  50.348  1.00  0.00     0.156 HD
ENDBRANCH   8  21
TORSDOF 8
ENDMDL
MODEL 7
REMARK VINA RESULT:      -6.4      4.399      7.072
REMARK  8 active torsions:
REMARK  status: ('A' for Active; 'I' for Inactive)
REMARK    1  A    between atoms: C2_2  and  C3_4 
REMARK    2  A    between atoms: C3_4  and  C4_5 
REMARK    3  A    between atoms: C4_5  and  C5_6 
REMARK    4  A    between atoms: C5_6  and  C6_7 
REMARK    5  A    between atoms: C6_7  and  C7_8 
REMARK    6  A    between atoms: C7_8  and  N1_9 
REMARK    7  A    between atoms: N1_9  and  C8_10 
REMARK    8  A    between atoms: C13_17  and  N4_18 
ROOT
HETATM    1  C8  UNL     1      25.563   0.904  52.758  1.00  0.00     0.141 A 
HETATM    2  N2  UNL     1      26.846   0.843  53.163  1.00  0.00    -0.224 NA
HETATM    3  C9  UNL     1      27.201   0.102  54.240  1.00  0.00     0.236 A 
HETATM    4  N3  UNL     1      26.317  -0.608  54.965  1.00  0.00    -0.241 NA
HETATM    5  C10 UNL     1      25.019  -0.587  54.610  1.00  0.00     0.072 A 
HETATM    6  C11 UNL     1      24.071  -1.300  55.322  1.00  0.00     0.035 A 
HETATM    7  C12 UNL     1      22.742  -1.259  54.934  1.00  0.00     0.031 A 
HETATM    8  C13 UNL     1      22.350  -0.525  53.857  1.00  0.00     0.026 A 
HETATM    9  C14 UNL     1      23.298   0.177  53.158  1.00  0.00     0.046 A 
HETATM   10  C15 UNL     1      24.644   0.176  53.499  1.00  0.00     0.041 A 
ENDROOT
BRANCH   1  11
HETATM   11  N1  UNL     1      25.125   1.673  51.622  1.00  0.00    -0.343 N 
HETATM   12  H7  UNL     1      24.211   1.839  51.182  1.00  0.00     0.167 HD
BRANCH  11  13
HETATM   13  C7  UNL     1      26.413   2.159  51.280  1.00  0.00     0.145 C 
BRANCH  13  14
HETATM   14  C6  UNL     1      26.478   3.175  50.427  1.00  0.00    -0.111 C 
BRANCH  14  15
HETATM   15  C5  UNL     1      26.409   3.949  49.358  1.00  0.00     0.057 C 
BRANCH  15  16
HETATM   16  C4  UNL     1      27.591   4.475  48.761  1.00  0.00     0.009 C 
BRANCH  16  17
HETATM   17  C3  UNL     1      27.688   5.764  48.489  1.00  0.00     0.015 C 
BRANCH  17  18
HETATM   18  C2  UNL     1      26.688   6.787  48.755  1.00  0.00    -0.012 A 
HETATM   19  C1  UNL     1      25.594   7.174  48.163  1.00  0.00     0.124 A 
HETATM   20 BR1  UNL     1      26.218   8.175  49.972  1.00  0.00    -0.128 Br
ENDBRANCH  17  18
ENDBRANCH  16  17
ENDBRANCH  15  16
ENDBRANCH  14  15
ENDBRANCH  13  14
ENDBRANCH  11  13
ENDBRANCH   1  11
BRANCH   8  21
HETATM   21  N4  UNL     1      20.970  -0.488  53.461  1.00  0.00    -0.399 N 
HETATM   22  H11 UNL     1      20.896  -1.352  52.867  1.00  0.00     0.156 HD
HETATM   23  H12 UNL     1      20.223   0.205  53.692  1.00  0.00     0.156 HD
ENDBRANCH   8  21
TORSDOF 8
ENDMDL
MODEL 8
REMARK VINA RESULT:      -6.4      5.385      8.147
REMARK  8 active torsions:
REMARK  status: ('A' for Active; 'I' for Inactive)
REMARK    1  A    between atoms: C2_2  and  C3_4 
REMARK    2  A    between atoms: C3_4  and  C4_5 
REMARK    3  A    between atoms: C4_5  and  C5_6 
REMARK    4  A    between atoms: C5_6  and  C6_7 
REMARK    5  A    between atoms: C6_7  and  C7_8 
REMARK    6  A    between atoms: C7_8  and  N1_9 
REMARK    7  A    between atoms: N1_9  and  C8_10 
REMARK    8  A    between atoms: C13_17  and  N4_18 
ROOT
HETATM    1  C8  UNL     1      25.376   2.470  51.451  1.00  0.00     0.141 A 
HETATM    2  N2  UNL     1      24.221   2.702  50.798  1.00  0.00    -0.224 NA
HETATM    3  C9  UNL     1      23.110   1.976  51.072  1.00  0.00     0.236 A 
HETATM    4  N3  UNL     1      23.083   0.996  51.992  1.00  0.00    -0.241 NA
HETATM    5  C10 UNL     1      24.207   0.717  52.679  1.00  0.00     0.072 A 
HETATM    6  C11 UNL     1      24.230  -0.281  53.637  1.00  0.00     0.035 A 
HETATM    7  C12 UNL     1      25.402  -0.546  54.327  1.00  0.00     0.031 A 
HETATM    8  C13 UNL     1      26.536   0.162  54.078  1.00  0.00     0.026 A 
HETATM    9  C14 UNL     1      26.501   1.149  53.127  1.00  0.00     0.046 A 
HETATM   10  C15 UNL     1      25.358   1.461  52.403  1.00  0.00     0.041 A 
ENDROOT
BRANCH   1  11
HETATM   11  N1  UNL     1      26.588   3.206  51.204  1.00  0.00    -0.343 N 
HETATM   12  H7  UNL     1      27.299   3.634  51.811  1.00  0.00     0.167 HD
BRANCH  11  13
HETATM   13  C7  UNL     1      26.495   3.157  49.790  1.00  0.00     0.145 C 
BRANCH  13  14
HETATM   14  C6  UNL     1      27.057   4.145  49.103  1.00  0.00    -0.111 C 
BRANCH  14  15
HETATM   15  C5  UNL     1      27.879   5.071  48.643  1.00  0.00     0.057 C 
BRANCH  15  16
HETATM   16  C4  UNL     1      27.402   6.372  48.316  1.00  0.00     0.009 C 
BRANCH  16  17
HETATM   17  C3  UNL     1      28.245   7.328  47.963  1.00  0.00     0.015 C 
BRANCH  17  18
HETATM   18  C2  UNL     1      29.696   7.285  48.057  1.00  0.00    -0.012 A 
HETATM   19  C1  UNL     1      30.587   7.921  48.762  1.00  0.00     0.124 A 
HETATM   20 BR1  UNL     1      31.241   6.418  47.356  1.00  0.00    -0.128 Br
ENDBRANCH  17  18
ENDBRANCH  16  17
ENDBRANCH  15  16
ENDBRANCH  14  15
ENDBRANCH  13  14
ENDBRANCH  11  13
ENDBRANCH   1  11
BRANCH   8  21
HETATM   21  N4  UNL     1      27.746  -0.120  54.798  1.00  0.00    -0.399 N 
HETATM   22  H11 UNL     1      28.477   0.061  54.065  1.00  0.00     0.156 HD
HETATM   23  H12 UNL     1      27.883  -0.425  55.788  1.00  0.00     0.156 HD
ENDBRANCH   8  21
TORSDOF 8
ENDMDL
MODEL 9
REMARK VINA RESULT:      -6.3      4.175      7.584
REMARK  8 active torsions:
REMARK  status: ('A' for Active; 'I' for Inactive)
REMARK    1  A    between atoms: C2_2  and  C3_4 
REMARK    2  A    between atoms: C3_4  and  C4_5 
REMARK    3  A    between atoms: C4_5  and  C5_6 
REMARK    4  A    between atoms: C5_6  and  C6_7 
REMARK    5  A    between atoms: C6_7  and  C7_8 
REMARK    6  A    between atoms: C7_8  and  N1_9 
REMARK    7  A    between atoms: N1_9  and  C8_10 
REMARK    8  A    between atoms: C13_17  and  N4_18 
ROOT
HETATM    1  C8  UNL     1      24.998   1.717  53.043  1.00  0.00     0.141 A 
HETATM    2  N2  UNL     1      25.580   0.586  53.485  1.00  0.00    -0.224 NA
HETATM    3  C9  UNL     1      24.838  -0.512  53.774  1.00  0.00     0.236 A 
HETATM    4  N3  UNL     1      23.500  -0.546  53.643  1.00  0.00    -0.241 NA
HETATM    5  C10 UNL     1      22.860   0.554  53.205  1.00  0.00     0.072 A 
HETATM    6  C11 UNL     1      21.485   0.568  53.054  1.00  0.00     0.035 A 
HETATM    7  C12 UNL     1      20.853   1.716  52.602  1.00  0.00     0.031 A 
HETATM    8  C13 UNL     1      21.566   2.835  52.303  1.00  0.00     0.026 A 
HETATM    9  C14 UNL     1      22.929   2.809  52.457  1.00  0.00     0.046 A 
HETATM   10  C15 UNL     1      23.618   1.690  52.905  1.00  0.00     0.041 A 
ENDROOT
BRANCH   1  11
HETATM   11  N1  UNL     1      25.731   2.912  52.720  1.00  0.00    -0.343 N 
HETATM   12  H7  UNL     1      25.727   3.873  53.086  1.00  0.00     0.167 HD
BRANCH  11  13
HETATM   13  C7  UNL     1      26.505   2.325  51.686  1.00  0.00     0.145 C 
BRANCH  13  14
HETATM   14  C6  UNL     1      26.571   2.971  50.528  1.00  0.00    -0.111 C 
BRANCH  14  15
HETATM   15  C5  UNL     1      26.291   3.636  49.421  1.00  0.00     0.057 C 
BRANCH  15  16
HETATM   16  C4  UNL     1      27.189   4.619  48.914  1.00  0.00     0.009 C 
BRANCH  16  17
HETATM   17  C3  UNL     1      26.776   5.855  48.693  1.00  0.00     0.015 C 
BRANCH  17  18
HETATM   18  C2  UNL     1      26.054   6.710  49.623  1.00  0.00    -0.012 A 
HETATM   19  C1  UNL     1      26.233   7.912  50.090  1.00  0.00     0.124 A 
HETATM   20 BR1  UNL     1      24.514   6.780  50.742  1.00  0.00    -0.128 Br
ENDBRANCH  17  18
ENDBRANCH  16  17
ENDBRANCH  15  16
ENDBRANCH  14  15
ENDBRANCH  13  14
ENDBRANCH  11  13
ENDBRANCH   1  11
BRANCH   8  21
HETATM   21  N4  UNL     1      20.903   4.020  51.835  1.00  0.00    -0.399 N 
HETATM   22  H11 UNL     1      21.717   4.617  51.542  1.00  0.00     0.156 HD
HETATM   23  H12 UNL     1      19.884   4.246  51.790  1.00  0.00     0.156 HD
ENDBRANCH   8  21
TORSDOF 8
ENDMDL
