MODEL 1
REMARK VINA RESULT:      -8.2      0.000      0.000
REMARK  5 active torsions:
REMARK  status: ('A' for Active; 'I' for Inactive)
REMARK    1  A    between atoms: O1_2  and  C2_3 
REMARK    2  A    between atoms: C2_3  and  C3_4 
REMARK    3  A    between atoms: C4_5  and  N1_6 
REMARK    4  A    between atoms: N1_6  and  C5_7 
REMARK    5  A    between atoms: C9_13  and  O2_14 
ROOT
HETATM    1  C5  UNL     1      24.663  -0.664  53.749  1.00  0.00     0.141 A 
HETATM    2  N2  UNL     1      25.166  -1.097  54.919  1.00  0.00    -0.224 NA
HETATM    3  C6  UNL     1      24.368  -1.447  55.953  1.00  0.00     0.236 A 
HETATM    4  N3  UNL     1      23.036  -1.341  55.755  1.00  0.00    -0.241 NA
HETATM    5  C7  UNL     1      22.511  -0.913  54.602  1.00  0.00     0.074 A 
HETATM    6  C8  UNL     1      21.134  -0.811  54.420  1.00  0.00     0.069 A 
HETATM    7  C9  UNL     1      20.588  -0.364  53.213  1.00  0.00     0.070 A 
HETATM    8  C11 UNL     1      21.451  -0.016  52.183  1.00  0.00     0.038 A 
HETATM    9  C12 UNL     1      22.822  -0.111  52.344  1.00  0.00     0.020 A 
HETATM   10  C13 UNL     1      23.324  -0.550  53.529  1.00  0.00     0.039 A 
ENDROOT
BRANCH   1  11
HETATM   11  N1  UNL     1      25.624  -0.334  52.758  1.00  0.00    -0.343 N 
HETATM   12  H6  UNL     1      25.514   0.079  51.817  1.00  0.00     0.167 HD
BRANCH  11  13
HETATM   13  C4  UNL     1      27.010  -0.563  52.983  1.00  0.00     0.019 A 
HETATM   14  C3  UNL     1      27.894   0.376  53.285  1.00  0.00    -0.012 A 
HETATM   15  C17 UNL     1      29.294  -0.014  53.490  1.00  0.00     0.007 A 
HETATM   16  C16 UNL     1      29.610  -1.297  53.363  1.00  0.00    -0.026 A 
HETATM   17  C15 UNL     1      28.693  -2.414  53.031  1.00  0.00     0.033 A 
HETATM   18  C14 UNL     1      27.270  -2.004  52.824  1.00  0.00     0.061 A 
BRANCH  14  19
HETATM   19  C2  UNL     1      27.598   1.803  53.436  1.00  0.00     0.207 C 
BRANCH  19  20
HETATM   20  O1  UNL     1      27.955   2.520  52.271  1.00  0.00    -0.391 OA
HETATM   21  C1  UNL     1      26.824   2.684  51.499  1.00  0.00     0.201 C 
ENDBRANCH  19  20
ENDBRANCH  14  19
ENDBRANCH  11  13
ENDBRANCH   1  11
BRANCH   7  22
HETATM   22  O2  UNL     1      19.212  -0.322  53.197  1.00  0.00    -0.356 OA
HETATM   23  C10 UNL     1      18.520  -0.232  51.966  1.00  0.00     0.210 C 
ENDBRANCH   7  22
TORSDOF 5
ENDMDL
MODEL 2
REMARK VINA RESULT:      -8.0      1.436      2.430
REMARK  5 active torsions:
REMARK  status: ('A' for Active; 'I' for Inactive)
REMARK    1  A    between atoms: O1_2  and  C2_3 
REMARK    2  A    between atoms: C2_3  and  C3_4 
REMARK    3  A    between atoms: C4_5  and  N1_6 
REMARK    4  A    between atoms: N1_6  and  C5_7 
REMARK    5  A    between atoms: C9_13  and  O2_14 
ROOT
HETATM    1  C5  UNL     1      24.862   0.708  53.209  1.00  0.00     0.141 A 
HETATM    2  N2  UNL     1      25.346   1.522  52.253  1.00  0.00    -0.224 NA
HETATM    3  C6  UNL     1      24.557   2.025  51.278  1.00  0.00     0.236 A 
HETATM    4  N3  UNL     1      23.253   1.672  51.309  1.00  0.00    -0.241 NA
HETATM    5  C7  UNL     1      22.748   0.865  52.247  1.00  0.00     0.074 A 
HETATM    6  C8  UNL     1      21.400   0.514  52.260  1.00  0.00     0.069 A 
HETATM    7  C9  UNL     1      20.874  -0.330  53.243  1.00  0.00     0.070 A 
HETATM    8  C11 UNL     1      21.727  -0.821  54.222  1.00  0.00     0.038 A 
HETATM    9  C12 UNL     1      23.070  -0.483  54.227  1.00  0.00     0.020 A 
HETATM   10  C13 UNL     1      23.552   0.340  53.258  1.00  0.00     0.039 A 
ENDROOT
BRANCH   1  11
HETATM   11  N1  UNL     1      25.811   0.259  54.164  1.00  0.00    -0.343 N 
HETATM   12  H6  UNL     1      25.858   0.393  55.189  1.00  0.00     0.167 HD
BRANCH  11  13
HETATM   13  C4  UNL     1      26.935  -0.516  53.766  1.00  0.00     0.019 A 
HETATM   14  C3  UNL     1      28.194  -0.240  54.074  1.00  0.00    -0.012 A 
HETATM   15  C17 UNL     1      29.251  -1.136  53.589  1.00  0.00     0.007 A 
HETATM   16  C16 UNL     1      28.894  -2.187  52.862  1.00  0.00    -0.026 A 
HETATM   17  C15 UNL     1      27.518  -2.575  52.470  1.00  0.00     0.033 A 
HETATM   18  C14 UNL     1      26.450  -1.655  52.968  1.00  0.00     0.061 A 
BRANCH  14  19
HETATM   19  C2  UNL     1      28.640   0.905  54.871  1.00  0.00     0.207 C 
BRANCH  19  20
HETATM   20  O1  UNL     1      28.039   2.102  54.419  1.00  0.00    -0.391 OA
HETATM   21  C1  UNL     1      28.801   2.608  53.387  1.00  0.00     0.201 C 
ENDBRANCH  19  20
ENDBRANCH  14  19
ENDBRANCH  11  13
ENDBRANCH   1  11
BRANCH   7  22
HETATM   22  O2  UNL     1      19.527  -0.579  53.112  1.00  0.00    -0.356 OA
HETATM   23  C10 UNL     1      18.836  -0.146  51.955  1.00  0.00     0.210 C 
ENDBRANCH   7  22
TORSDOF 5
ENDMDL
MODEL 3
REMARK VINA RESULT:      -7.6      1.715      2.216
REMARK  5 active torsions:
REMARK  status: ('A' for Active; 'I' for Inactive)
REMARK    1  A    between atoms: O1_2  and  C2_3 
REMARK    2  A    between atoms: C2_3  and  C3_4 
REMARK    3  A    between atoms: C4_5  and  N1_6 
REMARK    4  A    between atoms: N1_6  and  C5_7 
REMARK    5  A    between atoms: C9_13  and  O2_14 
ROOT
HETATM    1  C5  UNL     1      23.290  -0.316  53.170  1.00  0.00     0.141 A 
HETATM    2  N2  UNL     1      23.746  -0.831  54.325  1.00  0.00    -0.224 NA
HETATM    3  C6  UNL     1      22.909  -1.311  55.272  1.00  0.00     0.236 A 
HETATM    4  N3  UNL     1      21.587  -1.250  55.002  1.00  0.00    -0.241 NA
HETATM    5  C7  UNL     1      21.108  -0.742  53.862  1.00  0.00     0.074 A 
HETATM    6  C8  UNL     1      19.741  -0.688  53.605  1.00  0.00     0.069 A 
HETATM    7  C9  UNL     1      19.242  -0.157  52.411  1.00  0.00     0.070 A 
HETATM    8  C11 UNL     1      20.144   0.323  51.471  1.00  0.00     0.038 A 
HETATM    9  C12 UNL     1      21.507   0.278  51.708  1.00  0.00     0.020 A 
HETATM   10  C13 UNL     1      21.961  -0.244  52.878  1.00  0.00     0.039 A 
ENDROOT
BRANCH   1  11
HETATM   11  N1  UNL     1      24.288   0.148  52.273  1.00  0.00    -0.343 N 
HETATM   12  H6  UNL     1      24.283   0.246  51.244  1.00  0.00     0.167 HD
BRANCH  11  13
HETATM   13  C4  UNL     1      25.555   0.580  52.755  1.00  0.00     0.019 A 
HETATM   14  C3  UNL     1      25.812   1.789  53.232  1.00  0.00    -0.012 A 
HETATM   15  C17 UNL     1      27.172   2.089  53.694  1.00  0.00     0.007 A 
HETATM   16  C16 UNL     1      28.086   1.130  53.614  1.00  0.00    -0.026 A 
HETATM   17  C15 UNL     1      27.891  -0.247  53.099  1.00  0.00     0.033 A 
HETATM   18  C14 UNL     1      26.503  -0.541  52.630  1.00  0.00     0.061 A 
BRANCH  14  19
HETATM   19  C2  UNL     1      24.841   2.881  53.341  1.00  0.00     0.207 C 
BRANCH  19  20
HETATM   20  O1  UNL     1      24.232   3.143  52.094  1.00  0.00    -0.391 OA
HETATM   21  C1  UNL     1      22.983   3.681  52.325  1.00  0.00     0.201 C 
ENDBRANCH  19  20
ENDBRANCH  14  19
ENDBRANCH  11  13
ENDBRANCH   1  11
BRANCH   7  22
HETATM   22  O2  UNL     1      17.869  -0.177  52.314  1.00  0.00    -0.356 OA
HETATM   23  C10 UNL     1      17.128  -1.197  52.956  1.00  0.00     0.210 C 
ENDBRANCH   7  22
TORSDOF 5
ENDMDL
MODEL 4
REMARK VINA RESULT:      -7.5      3.221      6.199
REMARK  5 active torsions:
REMARK  status: ('A' for Active; 'I' for Inactive)
REMARK    1  A    between atoms: O1_2  and  C2_3 
REMARK    2  A    between atoms: C2_3  and  C3_4 
REMARK    3  A    between atoms: C4_5  and  N1_6 
REMARK    4  A    between atoms: N1_6  and  C5_7 
REMARK    5  A    between atoms: C9_13  and  O2_14 
ROOT
HETATM    1  C5  UNL     1      25.553   2.539  51.475  1.00  0.00     0.141 A 
HETATM    2  N2  UNL     1      24.545   2.510  52.365  1.00  0.00    -0.224 NA
HETATM    3  C6  UNL     1      23.650   3.518  52.463  1.00  0.00     0.236 A 
HETATM    4  N3  UNL     1      23.816   4.562  51.621  1.00  0.00    -0.241 NA
HETATM    5  C7  UNL     1      24.810   4.615  50.729  1.00  0.00     0.074 A 
HETATM    6  C8  UNL     1      24.962   5.701  49.870  1.00  0.00     0.069 A 
HETATM    7  C9  UNL     1      26.002   5.754  48.936  1.00  0.00     0.070 A 
HETATM    8  C11 UNL     1      26.894   4.693  48.876  1.00  0.00     0.038 A 
HETATM    9  C12 UNL     1      26.759   3.604  49.721  1.00  0.00     0.020 A 
HETATM   10  C13 UNL     1      25.738   3.581  50.618  1.00  0.00     0.039 A 
ENDROOT
BRANCH   1  11
HETATM   11  N1  UNL     1      26.411   1.409  51.490  1.00  0.00    -0.343 N 
HETATM   12  H6  UNL     1      26.571   0.669  50.785  1.00  0.00     0.167 HD
BRANCH  11  13
HETATM   13  C4  UNL     1      27.244   1.141  52.611  1.00  0.00     0.019 A 
HETATM   14  C3  UNL     1      27.244   0.010  53.303  1.00  0.00    -0.012 A 
HETATM   15  C17 UNL     1      28.163  -0.120  54.440  1.00  0.00     0.007 A 
HETATM   16  C16 UNL     1      28.956   0.906  54.723  1.00  0.00    -0.026 A 
HETATM   17  C15 UNL     1      29.027   2.203  54.009  1.00  0.00     0.033 A 
HETATM   18  C14 UNL     1      28.086   2.325  52.854  1.00  0.00     0.061 A 
BRANCH  14  19
HETATM   19  C2  UNL     1      26.390  -1.149  53.032  1.00  0.00     0.207 C 
BRANCH  19  20
HETATM   20  O1  UNL     1      25.026  -0.779  53.011  1.00  0.00    -0.391 OA
HETATM   21  C1  UNL     1      24.573  -0.716  54.312  1.00  0.00     0.201 C 
ENDBRANCH  19  20
ENDBRANCH  14  19
ENDBRANCH  11  13
ENDBRANCH   1  11
BRANCH   7  22
HETATM   22  O2  UNL     1      26.011   6.895  48.166  1.00  0.00    -0.356 OA
HETATM   23  C10 UNL     1      26.019   8.168  48.784  1.00  0.00     0.210 C 
ENDBRANCH   7  22
TORSDOF 5
ENDMDL
MODEL 5
REMARK VINA RESULT:      -7.5      2.335      6.779
REMARK  5 active torsions:
REMARK  status: ('A' for Active; 'I' for Inactive)
REMARK    1  A    between atoms: O1_2  and  C2_3 
REMARK    2  A    between atoms: C2_3  and  C3_4 
REMARK    3  A    between atoms: C4_5  and  N1_6 
REMARK    4  A    between atoms: N1_6  and  C5_7 
REMARK    5  A    between atoms: C9_13  and  O2_14 
ROOT
HETATM    1  C5  UNL     1      23.879   1.088  52.361  1.00  0.00     0.141 A 
HETATM    2  N2  UNL     1      23.494   2.364  52.540  1.00  0.00    -0.224 NA
HETATM    3  C6  UNL     1      24.251   3.248  53.228  1.00  0.00     0.236 A 
HETATM    4  N3  UNL     1      25.418   2.789  53.728  1.00  0.00    -0.241 NA
HETATM    5  C7  UNL     1      25.824   1.525  53.564  1.00  0.00     0.074 A 
HETATM    6  C8  UNL     1      27.032   1.072  54.088  1.00  0.00     0.069 A 
HETATM    7  C9  UNL     1      27.454  -0.250  53.915  1.00  0.00     0.070 A 
HETATM    8  C11 UNL     1      26.639  -1.118  53.202  1.00  0.00     0.038 A 
HETATM    9  C12 UNL     1      25.435  -0.686  52.672  1.00  0.00     0.020 A 
HETATM   10  C13 UNL     1      25.052   0.604  52.857  1.00  0.00     0.039 A 
ENDROOT
BRANCH   1  11
HETATM   11  N1  UNL     1      22.980   0.279  51.618  1.00  0.00    -0.343 N 
HETATM   12  H6  UNL     1      23.094  -0.207  50.713  1.00  0.00     0.167 HD
BRANCH  11  13
HETATM   13  C4  UNL     1      21.667   0.018  52.100  1.00  0.00     0.019 A 
HETATM   14  C3  UNL     1      20.550   0.405  51.502  1.00  0.00    -0.012 A 
HETATM   15  C17 UNL     1      19.264   0.060  52.122  1.00  0.00     0.007 A 
HETATM   16  C16 UNL     1      19.281  -0.628  53.257  1.00  0.00    -0.026 A 
HETATM   17  C15 UNL     1      20.477  -1.102  53.994  1.00  0.00     0.033 A 
HETATM   18  C14 UNL     1      21.780  -0.745  53.356  1.00  0.00     0.061 A 
BRANCH  14  19
HETATM   19  C2  UNL     1      20.476   1.164  50.252  1.00  0.00     0.207 C 
BRANCH  19  20
HETATM   20  O1  UNL     1      21.388   0.657  49.298  1.00  0.00    -0.391 OA
HETATM   21  C1  UNL     1      21.644   1.649  48.374  1.00  0.00     0.201 C 
ENDBRANCH  19  20
ENDBRANCH  14  19
ENDBRANCH  11  13
ENDBRANCH   1  11
BRANCH   7  22
HETATM   22  O2  UNL     1      28.669  -0.535  54.496  1.00  0.00    -0.356 OA
HETATM   23  C10 UNL     1      29.811  -0.738  53.686  1.00  0.00     0.210 C 
ENDBRANCH   7  22
TORSDOF 5
ENDMDL
MODEL 6
REMARK VINA RESULT:      -7.5      3.052      5.969
REMARK  5 active torsions:
REMARK  status: ('A' for Active; 'I' for Inactive)
REMARK    1  A    between atoms: O1_2  and  C2_3 
REMARK    2  A    between atoms: C2_3  and  C3_4 
REMARK    3  A    between atoms: C4_5  and  N1_6 
REMARK    4  A    between atoms: N1_6  and  C5_7 
REMARK    5  A    between atoms: C9_13  and  O2_14 
ROOT
HETATM    1  C5  UNL     1      22.912   1.247  52.900  1.00  0.00     0.141 A 
HETATM    2  N2  UNL     1      21.848   0.721  53.533  1.00  0.00    -0.224 NA
HETATM    3  C6  UNL     1      21.955  -0.372  54.321  1.00  0.00     0.236 A 
HETATM    4  N3  UNL     1      23.187  -0.914  54.444  1.00  0.00    -0.241 NA
HETATM    5  C7  UNL     1      24.259  -0.411  53.825  1.00  0.00     0.074 A 
HETATM    6  C8  UNL     1      25.520  -0.985  53.966  1.00  0.00     0.069 A 
HETATM    7  C9  UNL     1      26.641  -0.457  53.318  1.00  0.00     0.070 A 
HETATM    8  C11 UNL     1      26.477   0.667  52.521  1.00  0.00     0.038 A 
HETATM    9  C12 UNL     1      25.233   1.253  52.368  1.00  0.00     0.020 A 
HETATM   10  C13 UNL     1      24.162   0.717  53.011  1.00  0.00     0.039 A 
ENDROOT
BRANCH   1  11
HETATM   11  N1  UNL     1      22.644   2.395  52.109  1.00  0.00    -0.343 N 
HETATM   12  H6  UNL     1      22.482   3.380  52.376  1.00  0.00     0.167 HD
BRANCH  11  13
HETATM   13  C4  UNL     1      22.561   2.299  50.692  1.00  0.00     0.019 A 
HETATM   14  C3  UNL     1      23.252   3.044  49.841  1.00  0.00    -0.012 A 
HETATM   15  C17 UNL     1      23.060   2.829  48.401  1.00  0.00     0.007 A 
HETATM   16  C16 UNL     1      22.200   1.893  48.017  1.00  0.00    -0.026 A 
HETATM   17  C15 UNL     1      21.388   1.015  48.893  1.00  0.00     0.033 A 
HETATM   18  C14 UNL     1      21.591   1.243  50.357  1.00  0.00     0.061 A 
BRANCH  14  19
HETATM   19  C2  UNL     1      24.210   4.087  50.211  1.00  0.00     0.207 C 
BRANCH  19  20
HETATM   20  O1  UNL     1      23.729   4.854  51.297  1.00  0.00    -0.391 OA
HETATM   21  C1  UNL     1      23.183   6.018  50.798  1.00  0.00     0.201 C 
ENDBRANCH  19  20
ENDBRANCH  14  19
ENDBRANCH  11  13
ENDBRANCH   1  11
BRANCH   7  22
HETATM   22  O2  UNL     1      27.810  -1.142  53.562  1.00  0.00    -0.356 OA
HETATM   23  C10 UNL     1      28.993  -0.435  53.880  1.00  0.00     0.210 C 
ENDBRANCH   7  22
TORSDOF 5
ENDMDL
MODEL 7
REMARK VINA RESULT:      -7.3      3.227      5.621
REMARK  5 active torsions:
REMARK  status: ('A' for Active; 'I' for Inactive)
REMARK    1  A    between atoms: O1_2  and  C2_3 
REMARK    2  A    between atoms: C2_3  and  C3_4 
REMARK    3  A    between atoms: C4_5  and  N1_6 
REMARK    4  A    between atoms: N1_6  and  C5_7 
REMARK    5  A    between atoms: C9_13  and  O2_14 
ROOT
HETATM    1  C5  UNL     1      25.780   2.390  51.243  1.00  0.00     0.141 A 
HETATM    2  N2  UNL     1      27.071   2.607  51.552  1.00  0.00    -0.224 NA
HETATM    3  C6  UNL     1      27.659   2.020  52.618  1.00  0.00     0.236 A 
HETATM    4  N3  UNL     1      26.885   1.200  53.362  1.00  0.00    -0.241 NA
HETATM    5  C7  UNL     1      25.600   0.968  53.077  1.00  0.00     0.074 A 
HETATM    6  C8  UNL     1      24.820   0.119  53.858  1.00  0.00     0.069 A 
HETATM    7  C9  UNL     1      23.476  -0.123  53.558  1.00  0.00     0.070 A 
HETATM    8  C11 UNL     1      22.921   0.506  52.452  1.00  0.00     0.038 A 
HETATM    9  C12 UNL     1      23.679   1.353  51.663  1.00  0.00     0.020 A 
HETATM   10  C13 UNL     1      24.983   1.568  51.980  1.00  0.00     0.039 A 
ENDROOT
BRANCH   1  11
HETATM   11  N1  UNL     1      25.304   3.077  50.095  1.00  0.00    -0.343 N 
HETATM   12  H6  UNL     1      24.681   2.769  49.331  1.00  0.00     0.167 HD
BRANCH  11  13
HETATM   13  C4  UNL     1      25.680   4.426  49.846  1.00  0.00     0.019 A 
HETATM   14  C3  UNL     1      25.066   5.488  50.346  1.00  0.00    -0.012 A 
HETATM   15  C17 UNL     1      25.571   6.822  49.998  1.00  0.00     0.007 A 
HETATM   16  C16 UNL     1      26.626   6.902  49.196  1.00  0.00    -0.026 A 
HETATM   17  C15 UNL     1      27.375   5.774  48.593  1.00  0.00     0.033 A 
HETATM   18  C14 UNL     1      26.852   4.421  48.953  1.00  0.00     0.061 A 
BRANCH  14  19
HETATM   19  C2  UNL     1      23.901   5.455  51.233  1.00  0.00     0.207 C 
BRANCH  19  20
HETATM   20  O1  UNL     1      22.840   4.726  50.648  1.00  0.00    -0.391 OA
HETATM   21  C1  UNL     1      21.831   4.605  51.581  1.00  0.00     0.201 C 
ENDBRANCH  19  20
ENDBRANCH  14  19
ENDBRANCH  11  13
ENDBRANCH   1  11
BRANCH   7  22
HETATM   22  O2  UNL     1      22.849  -0.985  54.429  1.00  0.00    -0.356 OA
HETATM   23  C10 UNL     1      21.441  -0.958  54.562  1.00  0.00     0.210 C 
ENDBRANCH   7  22
TORSDOF 5
ENDMDL
MODEL 8
REMARK VINA RESULT:      -7.3      2.285      6.930
REMARK  5 active torsions:
REMARK  status: ('A' for Active; 'I' for Inactive)
REMARK    1  A    between atoms: O1_2  and  C2_3 
REMARK    2  A    between atoms: C2_3  and  C3_4 
REMARK    3  A    between atoms: C4_5  and  N1_6 
REMARK    4  A    between atoms: N1_6  and  C5_7 
REMARK    5  A    between atoms: C9_13  and  O2_14 
ROOT
HETATM    1  C5  UNL     1      24.398   2.087  52.167  1.00  0.00     0.141 A 
HETATM    2  N2  UNL     1      24.771   3.112  51.379  1.00  0.00    -0.224 NA
HETATM    3  C6  UNL     1      26.024   3.210  50.881  1.00  0.00     0.236 A 
HETATM    4  N3  UNL     1      26.888   2.226  51.213  1.00  0.00    -0.241 NA
HETATM    5  C7  UNL     1      26.542   1.198  51.994  1.00  0.00     0.074 A 
HETATM    6  C8  UNL     1      27.450   0.193  52.323  1.00  0.00     0.069 A 
HETATM    7  C9  UNL     1      27.085  -0.882  53.140  1.00  0.00     0.070 A 
HETATM    8  C11 UNL     1      25.786  -0.935  53.625  1.00  0.00     0.038 A 
HETATM    9  C12 UNL     1      24.870   0.053  53.309  1.00  0.00     0.020 A 
HETATM   10  C13 UNL     1      25.253   1.085  52.513  1.00  0.00     0.039 A 
ENDROOT
BRANCH   1  11
HETATM   11  N1  UNL     1      23.051   2.121  52.613  1.00  0.00    -0.343 N 
HETATM   12  H6  UNL     1      22.629   2.520  53.468  1.00  0.00     0.167 HD
BRANCH  11  13
HETATM   13  C4  UNL     1      22.012   1.539  51.835  1.00  0.00     0.019 A 
HETATM   14  C3  UNL     1      20.936   0.945  52.330  1.00  0.00    -0.012 A 
HETATM   15  C17 UNL     1      19.946   0.390  51.399  1.00  0.00     0.007 A 
HETATM   16  C16 UNL     1      20.176   0.510  50.097  1.00  0.00    -0.026 A 
HETATM   17  C15 UNL     1      21.345   1.157  49.454  1.00  0.00     0.033 A 
HETATM   18  C14 UNL     1      22.347   1.717  50.411  1.00  0.00     0.061 A 
BRANCH  14  19
HETATM   19  C2  UNL     1      20.636   0.786  53.755  1.00  0.00     0.207 C 
BRANCH  19  20
HETATM   20  O1  UNL     1      21.684   0.112  54.421  1.00  0.00    -0.391 OA
HETATM   21  C1  UNL     1      21.388  -1.235  54.444  1.00  0.00     0.201 C 
ENDBRANCH  19  20
ENDBRANCH  14  19
ENDBRANCH  11  13
ENDBRANCH   1  11
BRANCH   7  22
HETATM   22  O2  UNL     1      28.098  -1.786  53.368  1.00  0.00    -0.356 OA
HETATM   23  C10 UNL     1      29.440  -1.342  53.445  1.00  0.00     0.210 C 
ENDBRANCH   7  22
TORSDOF 5
ENDMDL
MODEL 9
REMARK VINA RESULT:      -7.3      2.971      4.671
REMARK  5 active torsions:
REMARK  status: ('A' for Active; 'I' for Inactive)
REMARK    1  A    between atoms: O1_2  and  C2_3 
REMARK    2  A    between atoms: C2_3  and  C3_4 
REMARK    3  A    between atoms: C4_5  and  N1_6 
REMARK    4  A    between atoms: N1_6  and  C5_7 
REMARK    5  A    between atoms: C9_13  and  O2_14 
ROOT
HETATM    1  C5  UNL     1      25.969   2.735  51.877  1.00  0.00     0.141 A 
HETATM    2  N2  UNL     1      26.889   2.815  50.899  1.00  0.00    -0.224 NA
HETATM    3  C6  UNL     1      26.568   3.216  49.648  1.00  0.00     0.236 A 
HETATM    4  N3  UNL     1      25.274   3.534  49.425  1.00  0.00    -0.241 NA
HETATM    5  C7  UNL     1      24.341   3.463  50.380  1.00  0.00     0.074 A 
HETATM    6  C8  UNL     1      23.012   3.796  50.128  1.00  0.00     0.069 A 
HETATM    7  C9  UNL     1      22.038   3.722  51.129  1.00  0.00     0.070 A 
HETATM    8  C11 UNL     1      22.419   3.304  52.396  1.00  0.00     0.038 A 
HETATM    9  C12 UNL     1      23.735   2.969  52.666  1.00  0.00     0.020 A 
HETATM   10  C13 UNL     1      24.660   3.052  51.673  1.00  0.00     0.039 A 
ENDROOT
BRANCH   1  11
HETATM   11  N1  UNL     1      26.455   2.300  53.137  1.00  0.00    -0.343 N 
HETATM   12  H6  UNL     1      26.292   2.664  54.090  1.00  0.00     0.167 HD
BRANCH  11  13
HETATM   13  C4  UNL     1      27.325   1.178  53.233  1.00  0.00     0.019 A 
HETATM   14  C3  UNL     1      26.948  -0.086  53.100  1.00  0.00    -0.012 A 
HETATM   15  C17 UNL     1      27.963  -1.140  53.225  1.00  0.00     0.007 A 
HETATM   16  C16 UNL     1      29.216  -0.775  53.465  1.00  0.00    -0.026 A 
HETATM   17  C15 UNL     1      29.728   0.607  53.627  1.00  0.00     0.033 A 
HETATM   18  C14 UNL     1      28.687   1.671  53.499  1.00  0.00     0.061 A 
BRANCH  14  19
HETATM   19  C2  UNL     1      25.581  -0.540  52.835  1.00  0.00     0.207 C 
BRANCH  19  20
HETATM   20  O1  UNL     1      24.692  -0.075  53.830  1.00  0.00    -0.391 OA
HETATM   21  C1  UNL     1      24.724  -0.959  54.889  1.00  0.00     0.201 C 
ENDBRANCH  19  20
ENDBRANCH  14  19
ENDBRANCH  11  13
ENDBRANCH   1  11
BRANCH   7  22
HETATM   22  O2  UNL     1      20.776   4.085  50.716  1.00  0.00    -0.356 OA
HETATM   23  C10 UNL     1      19.647   3.731  51.493  1.00  0.00     0.210 C 
ENDBRANCH   7  22
TORSDOF 5
ENDMDL
