MODEL 1
REMARK VINA RESULT:      -8.4      0.000      0.000
REMARK  4 active torsions:
REMARK  status: ('A' for Active; 'I' for Inactive)
REMARK    1  A    between atoms: C3_4  and  C4_5 
REMARK    2  A    between atoms: C9_11  and  N2_12 
REMARK    3  A    between atoms: N2_12  and  C10_13 
REMARK    4  A    between atoms: C10_13  and  C11_14 
ROOT
HETATM    1  C4  UNL     1      26.097   0.514  51.856  1.00  0.00     0.034 C 
HETATM    2  C5  UNL     1      24.951   0.858  52.413  1.00  0.00     0.057 C 
HETATM    3  C6  UNL     1      24.163   1.967  51.833  1.00  0.00     0.084 C 
HETATM    4  C7  UNL     1      22.865   1.570  51.220  1.00  0.00     0.126 C 
HETATM    5  N1  UNL     1      21.880   1.147  52.195  1.00  0.00    -0.383 N 
HETATM    6  C8  UNL     1      21.973   0.109  53.172  1.00  0.00     0.128 A 
HETATM    7  C9  UNL     1      20.750  -0.433  53.466  1.00  0.00     0.156 A 
HETATM    8  N3  UNL     1      20.784  -1.403  54.384  1.00  0.00    -0.222 NA
HETATM    9  C17 UNL     1      21.936  -1.793  54.952  1.00  0.00     0.238 A 
HETATM   10  N4  UNL     1      23.141  -1.268  54.671  1.00  0.00    -0.215 NA
HETATM   11  C18 UNL     1      23.184  -0.284  53.754  1.00  0.00     0.201 A 
HETATM   12  O2  UNL     1      24.482   0.174  53.552  1.00  0.00    -0.294 OA
HETATM   13  H10 UNL     1      20.934   1.630  52.257  1.00  0.00     0.159 HD
ENDROOT
BRANCH   7  14
HETATM   14  N2  UNL     1      19.549  -0.031  52.861  1.00  0.00    -0.369 N 
HETATM   15  H11 UNL     1      19.259   0.762  52.262  1.00  0.00     0.161 HD
BRANCH  14  16
HETATM   16  C10 UNL     1      18.406  -0.892  53.083  1.00  0.00     0.160 C 
BRANCH  16  17
HETATM   17  C11 UNL     1      17.406  -0.874  51.994  1.00  0.00    -0.041 A 
HETATM   18  C12 UNL     1      17.683  -0.143  50.862  1.00  0.00     0.009 A 
HETATM   19  C13 UNL     1      16.748  -0.126  49.843  1.00  0.00     0.001 A 
HETATM   20  C14 UNL     1      15.558  -0.803  49.907  1.00  0.00     0.000 A 
HETATM   21  C15 UNL     1      15.290  -1.530  51.040  1.00  0.00     0.001 A 
HETATM   22  C16 UNL     1      16.202  -1.563  52.068  1.00  0.00     0.009 A 
ENDBRANCH  16  17
ENDBRANCH  14  16
ENDBRANCH   7  14
BRANCH   1  23
HETATM   23  C3  UNL     1      26.865  -0.577  52.433  1.00  0.00     0.022 C 
HETATM   24  C2  UNL     1      27.847  -0.203  53.232  1.00  0.00     0.017 A 
HETATM   25  O1  UNL     1      28.610  -1.222  53.806  1.00  0.00     0.000 OA
HETATM   26  S1  UNL     1      29.195   0.185  54.326  1.00  0.00    -0.133 SA
HETATM   27  C1  UNL     1      28.753  -2.432  53.083  1.00  0.00     0.000 C 
HETATM   28  C19 UNL     1      29.417   1.964  54.553  1.00  0.00     0.095 C 
ENDBRANCH   1  23
TORSDOF 4
ENDMDL
MODEL 2
REMARK VINA RESULT:      -8.2      3.762      9.372
REMARK  4 active torsions:
REMARK  status: ('A' for Active; 'I' for Inactive)
REMARK    1  A    between atoms: C3_4  and  C4_5 
REMARK    2  A    between atoms: C9_11  and  N2_12 
REMARK    3  A    between atoms: N2_12  and  C10_13 
REMARK    4  A    between atoms: C10_13  and  C11_14 
ROOT
HETATM    1  C4  UNL     1      18.729  -0.191  52.022  1.00  0.00     0.034 C 
HETATM    2  C5  UNL     1      19.738   0.104  52.821  1.00  0.00     0.057 C 
HETATM    3  C6  UNL     1      20.180  -0.883  53.830  1.00  0.00     0.084 C 
HETATM    4  C7  UNL     1      21.533  -1.463  53.600  1.00  0.00     0.126 C 
HETATM    5  N1  UNL     1      22.604  -0.509  53.807  1.00  0.00    -0.383 N 
HETATM    6  C8  UNL     1      22.812   0.757  53.179  1.00  0.00     0.128 A 
HETATM    7  C9  UNL     1      24.140   1.086  53.108  1.00  0.00     0.156 A 
HETATM    8  N3  UNL     1      24.385   2.268  52.536  1.00  0.00    -0.222 NA
HETATM    9  C17 UNL     1      23.391   3.046  52.078  1.00  0.00     0.238 A 
HETATM   10  N4  UNL     1      22.086   2.735  52.143  1.00  0.00    -0.215 NA
HETATM   11  C18 UNL     1      21.763   1.556  52.707  1.00  0.00     0.201 A 
HETATM   12  O2  UNL     1      20.388   1.349  52.714  1.00  0.00    -0.294 OA
HETATM   13  H10 UNL     1      23.378  -0.704  54.510  1.00  0.00     0.159 HD
ENDROOT
BRANCH   7  14
HETATM   14  N2  UNL     1      25.176   0.264  53.576  1.00  0.00    -0.369 N 
HETATM   15  H11 UNL     1      25.500  -0.048  54.509  1.00  0.00     0.161 HD
BRANCH  14  16
HETATM   16  C10 UNL     1      26.028  -0.325  52.564  1.00  0.00     0.160 C 
BRANCH  16  17
HETATM   17  C11 UNL     1      27.444  -0.470  52.964  1.00  0.00    -0.041 A 
HETATM   18  C12 UNL     1      28.139   0.659  53.335  1.00  0.00     0.009 A 
HETATM   19  C13 UNL     1      29.463   0.524  53.710  1.00  0.00     0.001 A 
HETATM   20  C14 UNL     1      30.117  -0.680  53.730  1.00  0.00     0.000 A 
HETATM   21  C15 UNL     1      29.417  -1.800  53.358  1.00  0.00     0.001 A 
HETATM   22  C16 UNL     1      28.099  -1.695  52.980  1.00  0.00     0.009 A 
ENDBRANCH  16  17
ENDBRANCH  14  16
ENDBRANCH   7  14
BRANCH   1  23
HETATM   23  C3  UNL     1      18.300   0.785  51.034  1.00  0.00     0.022 C 
HETATM   24  C2  UNL     1      17.092   1.280  51.229  1.00  0.00     0.017 A 
HETATM   25  O1  UNL     1      16.643   2.221  50.301  1.00  0.00     0.000 OA
HETATM   26  S1  UNL     1      15.480   2.013  51.395  1.00  0.00    -0.133 SA
HETATM   27  C1  UNL     1      17.125   2.125  48.972  1.00  0.00     0.000 C 
HETATM   28  C19 UNL     1      14.576   1.391  52.831  1.00  0.00     0.095 C 
ENDBRANCH   1  23
TORSDOF 4
ENDMDL
MODEL 3
REMARK VINA RESULT:      -8.1      3.675      9.402
REMARK  4 active torsions:
REMARK  status: ('A' for Active; 'I' for Inactive)
REMARK    1  A    between atoms: C3_4  and  C4_5 
REMARK    2  A    between atoms: C9_11  and  N2_12 
REMARK    3  A    between atoms: N2_12  and  C10_13 
REMARK    4  A    between atoms: C10_13  and  C11_14 
ROOT
HETATM    1  C4  UNL     1      18.918  -1.021  53.243  1.00  0.00     0.034 C 
HETATM    2  C5  UNL     1      20.076  -0.478  53.569  1.00  0.00     0.057 C 
HETATM    3  C6  UNL     1      21.051  -1.263  54.357  1.00  0.00     0.084 C 
HETATM    4  C7  UNL     1      22.300  -1.633  53.634  1.00  0.00     0.126 C 
HETATM    5  N1  UNL     1      23.161  -0.498  53.369  1.00  0.00    -0.383 N 
HETATM    6  C8  UNL     1      22.865   0.708  52.664  1.00  0.00     0.128 A 
HETATM    7  C9  UNL     1      23.975   1.242  52.064  1.00  0.00     0.156 A 
HETATM    8  N3  UNL     1      23.749   2.378  51.400  1.00  0.00    -0.222 NA
HETATM    9  C17 UNL     1      22.526   2.927  51.343  1.00  0.00     0.238 A 
HETATM   10  N4  UNL     1      21.430   2.414  51.927  1.00  0.00    -0.215 NA
HETATM   11  C18 UNL     1      21.581   1.267  52.616  1.00  0.00     0.201 A 
HETATM   12  O2  UNL     1      20.381   0.838  53.170  1.00  0.00    -0.294 OA
HETATM   13  H10 UNL     1      24.167  -0.486  53.717  1.00  0.00     0.159 HD
ENDROOT
BRANCH   7  14
HETATM   14  N2  UNL     1      25.250   0.658  52.117  1.00  0.00    -0.369 N 
HETATM   15  H11 UNL     1      25.693  -0.175  51.690  1.00  0.00     0.161 HD
BRANCH  14  16
HETATM   16  C10 UNL     1      26.228   1.338  52.940  1.00  0.00     0.160 C 
BRANCH  16  17
HETATM   17  C11 UNL     1      27.478   0.579  53.159  1.00  0.00    -0.041 A 
HETATM   18  C12 UNL     1      28.611   1.273  53.520  1.00  0.00     0.009 A 
HETATM   19  C13 UNL     1      29.780   0.563  53.726  1.00  0.00     0.001 A 
HETATM   20  C14 UNL     1      29.864  -0.797  53.589  1.00  0.00     0.000 A 
HETATM   21  C15 UNL     1      28.730  -1.481  53.229  1.00  0.00     0.001 A 
HETATM   22  C16 UNL     1      27.554  -0.801  53.017  1.00  0.00     0.009 A 
ENDBRANCH  16  17
ENDBRANCH  14  16
ENDBRANCH   7  14
BRANCH   1  23
HETATM   23  C3  UNL     1      17.964  -0.242  52.469  1.00  0.00     0.022 C 
HETATM   24  C2  UNL     1      16.825  -0.856  52.209  1.00  0.00     0.017 A 
HETATM   25  O1  UNL     1      15.883  -0.142  51.468  1.00  0.00     0.000 OA
HETATM   26  S1  UNL     1      15.255  -1.586  51.804  1.00  0.00    -0.133 SA
HETATM   27  C1  UNL     1      16.358   0.817  50.539  1.00  0.00     0.000 C 
HETATM   28  C19 UNL     1      15.084  -3.270  52.438  1.00  0.00     0.095 C 
ENDBRANCH   1  23
TORSDOF 4
ENDMDL
MODEL 4
REMARK VINA RESULT:      -8.0      3.428      8.724
REMARK  4 active torsions:
REMARK  status: ('A' for Active; 'I' for Inactive)
REMARK    1  A    between atoms: C3_4  and  C4_5 
REMARK    2  A    between atoms: C9_11  and  N2_12 
REMARK    3  A    between atoms: N2_12  and  C10_13 
REMARK    4  A    between atoms: C10_13  and  C11_14 
ROOT
HETATM    1  C4  UNL     1      18.870  -0.037  51.754  1.00  0.00     0.034 C 
HETATM    2  C5  UNL     1      19.827   0.358  52.572  1.00  0.00     0.057 C 
HETATM    3  C6  UNL     1      20.399  -0.604  53.540  1.00  0.00     0.084 C 
HETATM    4  C7  UNL     1      21.819  -0.982  53.295  1.00  0.00     0.126 C 
HETATM    5  N1  UNL     1      22.749   0.099  53.552  1.00  0.00    -0.383 N 
HETATM    6  C8  UNL     1      22.782   1.408  52.981  1.00  0.00     0.128 A 
HETATM    7  C9  UNL     1      24.053   1.918  52.934  1.00  0.00     0.156 A 
HETATM    8  N3  UNL     1      24.135   3.146  52.416  1.00  0.00    -0.222 NA
HETATM    9  C17 UNL     1      23.045   3.801  51.985  1.00  0.00     0.238 A 
HETATM   10  N4  UNL     1      21.794   3.312  52.027  1.00  0.00    -0.215 NA
HETATM   11  C18 UNL     1      21.634   2.076  52.537  1.00  0.00     0.201 A 
HETATM   12  O2  UNL     1      20.301   1.684  52.525  1.00  0.00    -0.294 OA
HETATM   13  H10 UNL     1      23.541  -0.020  54.252  1.00  0.00     0.159 HD
ENDROOT
BRANCH   7  14
HETATM   14  N2  UNL     1      25.192   1.225  53.374  1.00  0.00    -0.369 N 
HETATM   15  H11 UNL     1      25.601   0.999  54.297  1.00  0.00     0.161 HD
BRANCH  14  16
HETATM   16  C10 UNL     1      26.033   0.661  52.339  1.00  0.00     0.160 C 
BRANCH  16  17
HETATM   17  C11 UNL     1      27.327   0.135  52.821  1.00  0.00    -0.041 A 
HETATM   18  C12 UNL     1      28.260   1.028  53.301  1.00  0.00     0.009 A 
HETATM   19  C13 UNL     1      29.470   0.536  53.753  1.00  0.00     0.001 A 
HETATM   20  C14 UNL     1      29.787  -0.797  53.746  1.00  0.00     0.000 A 
HETATM   21  C15 UNL     1      28.852  -1.680  53.266  1.00  0.00     0.001 A 
HETATM   22  C16 UNL     1      27.640  -1.218  52.810  1.00  0.00     0.009 A 
ENDBRANCH  16  17
ENDBRANCH  14  16
ENDBRANCH   7  14
BRANCH   1  23
HETATM   23  C3  UNL     1      18.312   0.914  50.806  1.00  0.00     0.022 C 
HETATM   24  C2  UNL     1      19.173   1.389  49.924  1.00  0.00     0.017 A 
HETATM   25  O1  UNL     1      18.676   2.306  48.996  1.00  0.00     0.000 OA
HETATM   26  S1  UNL     1      20.242   2.092  48.690  1.00  0.00    -0.133 SA
HETATM   27  C1  UNL     1      17.592   3.129  49.390  1.00  0.00     0.000 C 
HETATM   28  C19 UNL     1      21.943   1.494  48.819  1.00  0.00     0.095 C 
ENDBRANCH   1  23
TORSDOF 4
ENDMDL
MODEL 5
REMARK VINA RESULT:      -8.0      5.399      7.466
REMARK  4 active torsions:
REMARK  status: ('A' for Active; 'I' for Inactive)
REMARK    1  A    between atoms: C3_4  and  C4_5 
REMARK    2  A    between atoms: C9_11  and  N2_12 
REMARK    3  A    between atoms: N2_12  and  C10_13 
REMARK    4  A    between atoms: C10_13  and  C11_14 
ROOT
HETATM    1  C4  UNL     1      27.815   5.452  48.675  1.00  0.00     0.034 C 
HETATM    2  C5  UNL     1      26.709   4.787  48.950  1.00  0.00     0.057 C 
HETATM    3  C6  UNL     1      26.794   3.359  49.326  1.00  0.00     0.084 C 
HETATM    4  C7  UNL     1      26.418   3.050  50.734  1.00  0.00     0.126 C 
HETATM    5  N1  UNL     1      25.002   3.216  50.995  1.00  0.00    -0.383 N 
HETATM    6  C8  UNL     1      24.186   4.374  50.812  1.00  0.00     0.128 A 
HETATM    7  C9  UNL     1      23.136   4.410  51.692  1.00  0.00     0.156 A 
HETATM    8  N3  UNL     1      22.337   5.471  51.553  1.00  0.00    -0.222 NA
HETATM    9  C17 UNL     1      22.570   6.408  50.620  1.00  0.00     0.238 A 
HETATM   10  N4  UNL     1      23.595   6.383  49.752  1.00  0.00    -0.215 NA
HETATM   11  C18 UNL     1      24.443   5.342  49.833  1.00  0.00     0.201 A 
HETATM   12  O2  UNL     1      25.458   5.431  48.886  1.00  0.00    -0.294 OA
HETATM   13  H10 UNL     1      24.420   2.409  51.372  1.00  0.00     0.159 HD
ENDROOT
BRANCH   7  14
HETATM   14  N2  UNL     1      22.904   3.434  52.674  1.00  0.00    -0.369 N 
HETATM   15  H11 UNL     1      23.265   3.253  53.627  1.00  0.00     0.161 HD
BRANCH  14  16
HETATM   16  C10 UNL     1      21.933   2.413  52.339  1.00  0.00     0.160 C 
BRANCH  16  17
HETATM   17  C11 UNL     1      22.087   1.152  53.094  1.00  0.00    -0.041 A 
HETATM   18  C12 UNL     1      23.304   0.510  53.059  1.00  0.00     0.009 A 
HETATM   19  C13 UNL     1      23.448  -0.669  53.766  1.00  0.00     0.001 A 
HETATM   20  C14 UNL     1      22.437  -1.231  54.500  1.00  0.00     0.000 A 
HETATM   21  C15 UNL     1      21.226  -0.585  54.529  1.00  0.00     0.001 A 
HETATM   22  C16 UNL     1      21.055   0.589  53.835  1.00  0.00     0.009 A 
ENDBRANCH  16  17
ENDBRANCH  14  16
ENDBRANCH   7  14
BRANCH   1  23
HETATM   23  C3  UNL     1      27.723   6.855  48.305  1.00  0.00     0.022 C 
HETATM   24  C2  UNL     1      28.830   7.552  48.486  1.00  0.00     0.017 A 
HETATM   25  O1  UNL     1      28.782   8.904  48.143  1.00  0.00     0.000 OA
HETATM   26  S1  UNL     1      30.264   8.585  48.686  1.00  0.00    -0.133 SA
HETATM   27  C1  UNL     1      27.539   9.574  48.255  1.00  0.00     0.000 C 
HETATM   28  C19 UNL     1      31.680   7.688  49.363  1.00  0.00     0.095 C 
ENDBRANCH   1  23
TORSDOF 4
ENDMDL
MODEL 6
REMARK VINA RESULT:      -7.7      4.428      8.812
REMARK  4 active torsions:
REMARK  status: ('A' for Active; 'I' for Inactive)
REMARK    1  A    between atoms: C3_4  and  C4_5 
REMARK    2  A    between atoms: C9_11  and  N2_12 
REMARK    3  A    between atoms: N2_12  and  C10_13 
REMARK    4  A    between atoms: C10_13  and  C11_14 
ROOT
HETATM    1  C4  UNL     1      22.750   4.690  48.665  1.00  0.00     0.034 C 
HETATM    2  C5  UNL     1      23.360   3.617  49.131  1.00  0.00     0.057 C 
HETATM    3  C6  UNL     1      24.822   3.651  49.358  1.00  0.00     0.084 C 
HETATM    4  C7  UNL     1      25.245   3.571  50.784  1.00  0.00     0.126 C 
HETATM    5  N1  UNL     1      25.006   2.271  51.377  1.00  0.00    -0.383 N 
HETATM    6  C8  UNL     1      23.781   1.545  51.484  1.00  0.00     0.128 A 
HETATM    7  C9  UNL     1      23.761   0.725  52.582  1.00  0.00     0.156 A 
HETATM    8  N3  UNL     1      22.637   0.017  52.720  1.00  0.00    -0.222 NA
HETATM    9  C17 UNL     1      21.628   0.121  51.840  1.00  0.00     0.238 A 
HETATM   10  N4  UNL     1      21.637   0.920  50.760  1.00  0.00    -0.215 NA
HETATM   11  C18 UNL     1      22.739   1.666  50.556  1.00  0.00     0.201 A 
HETATM   12  O2  UNL     1      22.626   2.448  49.412  1.00  0.00    -0.294 OA
HETATM   13  H10 UNL     1      25.804   1.715  51.809  1.00  0.00     0.159 HD
ENDROOT
BRANCH   7  14
HETATM   14  N2  UNL     1      24.812   0.628  53.506  1.00  0.00    -0.369 N 
HETATM   15  H11 UNL     1      25.234   1.264  54.206  1.00  0.00     0.161 HD
BRANCH  14  16
HETATM   16  C10 UNL     1      25.510  -0.640  53.545  1.00  0.00     0.160 C 
BRANCH  16  17
HETATM   17  C11 UNL     1      26.981  -0.526  53.643  1.00  0.00    -0.041 A 
HETATM   18  C12 UNL     1      27.512   0.567  54.289  1.00  0.00     0.009 A 
HETATM   19  C13 UNL     1      28.888   0.673  54.382  1.00  0.00     0.001 A 
HETATM   20  C14 UNL     1      29.748  -0.258  53.861  1.00  0.00     0.000 A 
HETATM   21  C15 UNL     1      29.209  -1.345  53.219  1.00  0.00     0.001 A 
HETATM   22  C16 UNL     1      27.845  -1.475  53.112  1.00  0.00     0.009 A 
ENDBRANCH  16  17
ENDBRANCH  14  16
ENDBRANCH   7  14
BRANCH   1  23
HETATM   23  C3  UNL     1      21.314   4.648  48.445  1.00  0.00     0.022 C 
HETATM   24  C2  UNL     1      20.667   5.750  48.777  1.00  0.00     0.017 A 
HETATM   25  O1  UNL     1      19.285   5.749  48.581  1.00  0.00     0.000 OA
HETATM   26  S1  UNL     1      19.697   7.182  49.189  1.00  0.00    -0.133 SA
HETATM   27  C1  UNL     1      18.602   4.512  48.678  1.00  0.00     0.000 C 
HETATM   28  C19 UNL     1      20.695   8.530  49.862  1.00  0.00     0.095 C 
ENDBRANCH   1  23
TORSDOF 4
ENDMDL
MODEL 7
REMARK VINA RESULT:      -7.6      5.482     10.394
REMARK  4 active torsions:
REMARK  status: ('A' for Active; 'I' for Inactive)
REMARK    1  A    between atoms: C3_4  and  C4_5 
REMARK    2  A    between atoms: C9_11  and  N2_12 
REMARK    3  A    between atoms: N2_12  and  C10_13 
REMARK    4  A    between atoms: C10_13  and  C11_14 
ROOT
HETATM    1  C4  UNL     1      23.656   1.495  52.753  1.00  0.00     0.034 C 
HETATM    2  C5  UNL     1      24.492   2.470  52.448  1.00  0.00     0.057 C 
HETATM    3  C6  UNL     1      25.945   2.268  52.637  1.00  0.00     0.084 C 
HETATM    4  C7  UNL     1      26.747   2.224  51.382  1.00  0.00     0.126 C 
HETATM    5  N1  UNL     1      26.834   3.508  50.715  1.00  0.00    -0.383 N 
HETATM    6  C8  UNL     1      25.778   4.352  50.255  1.00  0.00     0.128 A 
HETATM    7  C9  UNL     1      26.154   5.108  49.176  1.00  0.00     0.156 A 
HETATM    8  N3  UNL     1      25.202   5.922  48.715  1.00  0.00    -0.222 NA
HETATM    9  C17 UNL     1      23.986   5.975  49.283  1.00  0.00     0.238 A 
HETATM   10  N4  UNL     1      23.606   5.240  50.342  1.00  0.00    -0.215 NA
HETATM   11  C18 UNL     1      24.516   4.394  50.861  1.00  0.00     0.201 A 
HETATM   12  O2  UNL     1      24.004   3.693  51.948  1.00  0.00    -0.294 OA
HETATM   13  H10 UNL     1      27.779   3.950  50.508  1.00  0.00     0.159 HD
ENDROOT
BRANCH   7  14
HETATM   14  N2  UNL     1      27.422   5.040  48.577  1.00  0.00    -0.369 N 
HETATM   15  H11 UNL     1      28.084   4.279  48.345  1.00  0.00     0.161 HD
BRANCH  14  16
HETATM   16  C10 UNL     1      27.993   6.302  48.153  1.00  0.00     0.160 C 
BRANCH  16  17
HETATM   17  C11 UNL     1      29.469   6.354  48.205  1.00  0.00    -0.041 A 
HETATM   18  C12 UNL     1      30.177   5.222  47.867  1.00  0.00     0.009 A 
HETATM   19  C13 UNL     1      31.558   5.271  47.914  1.00  0.00     0.001 A 
HETATM   20  C14 UNL     1      32.256   6.391  48.281  1.00  0.00     0.000 A 
HETATM   21  C15 UNL     1      31.542   7.515  48.616  1.00  0.00     0.001 A 
HETATM   22  C16 UNL     1      30.168   7.495  48.578  1.00  0.00     0.009 A 
ENDBRANCH  16  17
ENDBRANCH  14  16
ENDBRANCH   7  14
BRANCH   1  23
HETATM   23  C3  UNL     1      22.229   1.702  52.565  1.00  0.00     0.022 C 
HETATM   24  C2  UNL     1      21.461   0.739  53.039  1.00  0.00     0.017 A 
HETATM   25  O1  UNL     1      20.083   0.900  52.878  1.00  0.00     0.000 OA
HETATM   26  S1  UNL     1      20.331  -0.496  53.640  1.00  0.00    -0.133 SA
HETATM   27  C1  UNL     1      19.628   1.635  51.757  1.00  0.00     0.000 C 
HETATM   28  C19 UNL     1      21.175  -1.892  54.420  1.00  0.00     0.095 C 
ENDBRANCH   1  23
TORSDOF 4
ENDMDL
MODEL 8
REMARK VINA RESULT:      -7.6      5.175      9.574
REMARK  4 active torsions:
REMARK  status: ('A' for Active; 'I' for Inactive)
REMARK    1  A    between atoms: C3_4  and  C4_5 
REMARK    2  A    between atoms: C9_11  and  N2_12 
REMARK    3  A    between atoms: N2_12  and  C10_13 
REMARK    4  A    between atoms: C10_13  and  C11_14 
ROOT
HETATM    1  C4  UNL     1      23.365   0.130  52.861  1.00  0.00     0.034 C 
HETATM    2  C5  UNL     1      24.019   1.275  52.794  1.00  0.00     0.057 C 
HETATM    3  C6  UNL     1      25.484   1.289  52.995  1.00  0.00     0.084 C 
HETATM    4  C7  UNL     1      26.286   1.643  51.790  1.00  0.00     0.126 C 
HETATM    5  N1  UNL     1      26.149   3.032  51.402  1.00  0.00    -0.383 N 
HETATM    6  C8  UNL     1      24.964   3.761  51.082  1.00  0.00     0.128 A 
HETATM    7  C9  UNL     1      25.206   4.776  50.194  1.00  0.00     0.156 A 
HETATM    8  N3  UNL     1      24.127   5.494  49.870  1.00  0.00    -0.222 NA
HETATM    9  C17 UNL     1      22.920   5.220  50.388  1.00  0.00     0.238 A 
HETATM   10  N4  UNL     1      22.670   4.229  51.260  1.00  0.00    -0.215 NA
HETATM   11  C18 UNL     1      23.711   3.461  51.633  1.00  0.00     0.201 A 
HETATM   12  O2  UNL     1      23.327   2.474  52.533  1.00  0.00    -0.294 OA
HETATM   13  H10 UNL     1      27.003   3.663  51.326  1.00  0.00     0.159 HD
ENDROOT
BRANCH   7  14
HETATM   14  N2  UNL     1      26.468   5.052  49.645  1.00  0.00    -0.369 N 
HETATM   15  H11 UNL     1      27.422   4.670  49.771  1.00  0.00     0.161 HD
BRANCH  14  16
HETATM   16  C10 UNL     1      26.514   6.106  48.653  1.00  0.00     0.160 C 
BRANCH  16  17
HETATM   17  C11 UNL     1      27.866   6.396  48.130  1.00  0.00    -0.041 A 
HETATM   18  C12 UNL     1      28.049   7.537  47.384  1.00  0.00     0.009 A 
HETATM   19  C13 UNL     1      29.314   7.810  46.895  1.00  0.00     0.001 A 
HETATM   20  C14 UNL     1      30.394   6.997  47.119  1.00  0.00     0.000 A 
HETATM   21  C15 UNL     1      30.203   5.861  47.865  1.00  0.00     0.001 A 
HETATM   22  C16 UNL     1      28.956   5.566  48.362  1.00  0.00     0.009 A 
ENDBRANCH  16  17
ENDBRANCH  14  16
ENDBRANCH   7  14
BRANCH   1  23
HETATM   23  C3  UNL     1      21.925   0.125  52.663  1.00  0.00     0.022 C 
HETATM   24  C2  UNL     1      21.525   0.548  51.478  1.00  0.00     0.017 A 
HETATM   25  O1  UNL     1      20.148   0.559  51.248  1.00  0.00     0.000 OA
HETATM   26  S1  UNL     1      20.875   1.097  49.917  1.00  0.00    -0.133 SA
HETATM   27  C1  UNL     1      19.292   0.758  52.359  1.00  0.00     0.000 C 
HETATM   28  C19 UNL     1      22.169   1.613  48.765  1.00  0.00     0.095 C 
ENDBRANCH   1  23
TORSDOF 4
ENDMDL
MODEL 9
REMARK VINA RESULT:      -7.5      2.193      3.428
REMARK  4 active torsions:
REMARK  status: ('A' for Active; 'I' for Inactive)
REMARK    1  A    between atoms: C3_4  and  C4_5 
REMARK    2  A    between atoms: C9_11  and  N2_12 
REMARK    3  A    between atoms: N2_12  and  C10_13 
REMARK    4  A    between atoms: C10_13  and  C11_14 
ROOT
HETATM    1  C4  UNL     1      25.713   1.457  52.182  1.00  0.00     0.034 C 
HETATM    2  C5  UNL     1      24.542   1.885  52.616  1.00  0.00     0.057 C 
HETATM    3  C6  UNL     1      24.114   3.268  52.313  1.00  0.00     0.084 C 
HETATM    4  C7  UNL     1      22.952   3.385  51.389  1.00  0.00     0.126 C 
HETATM    5  N1  UNL     1      21.706   2.942  51.982  1.00  0.00    -0.383 N 
HETATM    6  C8  UNL     1      21.386   1.674  52.556  1.00  0.00     0.128 A 
HETATM    7  C9  UNL     1      20.054   1.375  52.437  1.00  0.00     0.156 A 
HETATM    8  N3  UNL     1      19.705   0.201  52.969  1.00  0.00    -0.222 NA
HETATM    9  C17 UNL     1      20.605  -0.598  53.564  1.00  0.00     0.238 A 
HETATM   10  N4  UNL     1      21.913  -0.314  53.687  1.00  0.00    -0.215 NA
HETATM   11  C18 UNL     1      22.340   0.854  53.173  1.00  0.00     0.201 A 
HETATM   12  O2  UNL     1      23.706   1.031  53.362  1.00  0.00    -0.294 OA
HETATM   13  H10 UNL     1      20.868   3.595  52.037  1.00  0.00     0.159 HD
ENDROOT
BRANCH   7  14
HETATM   14  N2  UNL     1      19.118   2.207  51.804  1.00  0.00    -0.369 N 
HETATM   15  H11 UNL     1      18.584   3.050  52.077  1.00  0.00     0.161 HD
BRANCH  14  16
HETATM   16  C10 UNL     1      18.783   1.862  50.438  1.00  0.00     0.160 C 
BRANCH  16  17
HETATM   17  C11 UNL     1      19.826   2.200  49.447  1.00  0.00    -0.041 A 
HETATM   18  C12 UNL     1      20.726   1.223  49.085  1.00  0.00     0.009 A 
HETATM   19  C13 UNL     1      21.702   1.538  48.157  1.00  0.00     0.001 A 
HETATM   20  C14 UNL     1      21.817   2.777  47.582  1.00  0.00     0.000 A 
HETATM   21  C15 UNL     1      20.915   3.744  47.949  1.00  0.00     0.001 A 
HETATM   22  C16 UNL     1      19.935   3.458  48.869  1.00  0.00     0.009 A 
ENDBRANCH  16  17
ENDBRANCH  14  16
ENDBRANCH   7  14
BRANCH   1  23
HETATM   23  C3  UNL     1      26.126   0.096  52.485  1.00  0.00     0.022 C 
HETATM   24  C2  UNL     1      27.237  -0.004  53.189  1.00  0.00     0.017 A 
HETATM   25  O1  UNL     1      27.668  -1.294  53.500  1.00  0.00     0.000 OA
HETATM   26  S1  UNL     1      28.722  -0.256  54.135  1.00  0.00    -0.133 SA
HETATM   27  C1  UNL     1      27.347  -2.337  52.597  1.00  0.00     0.000 C 
HETATM   28  C19 UNL     1      29.533   1.295  54.587  1.00  0.00     0.095 C 
ENDBRANCH   1  23
TORSDOF 4
ENDMDL
