MODEL 1
REMARK VINA RESULT:      -8.8      0.000      0.000
REMARK  4 active torsions:
REMARK  status: ('A' for Active; 'I' for Inactive)
REMARK    1  A    between atoms: C3_3  and  N1_4 
REMARK    2  A    between atoms: N1_4  and  C4_5 
REMARK    3  A    between atoms: C4_5  and  C5_6 
REMARK    4  A    between atoms: N4_20  and  C16_21 
ROOT
HETATM    1  C1  UNL     1      26.713   1.511  51.364  1.00  0.00     0.039 C 
HETATM    2  C2  UNL     1      25.797   1.587  52.560  1.00  0.00     0.132 C 
HETATM    3  C3  UNL     1      24.413   1.484  52.121  1.00  0.00     0.014 C 
HETATM    4  C11 UNL     1      23.613   0.722  52.843  1.00  0.00     0.070 C 
HETATM    5  C12 UNL     1      22.318   0.128  53.120  1.00  0.00     0.004 C 
HETATM    6  C13 UNL     1      22.539  -0.579  54.216  1.00  0.00     0.114 C 
HETATM    7  N2  UNL     1      22.962  -1.266  55.374  1.00  0.00    -0.254 NA
HETATM    8  C14 UNL     1      24.168  -1.494  55.709  1.00  0.00     0.233 C 
HETATM    9  N3  UNL     1      24.891  -0.910  54.674  1.00  0.00    -0.237 NA
HETATM   10  C15 UNL     1      25.454   0.244  54.794  1.00  0.00     0.212 C 
HETATM   11  N4  UNL     1      26.113   0.528  53.526  1.00  0.00    -0.332 N 
ENDROOT
BRANCH   3  12
HETATM   12  N1  UNL     1      24.519   2.377  50.975  1.00  0.00    -0.390 N 
HETATM   13  H5  UNL     1      25.135   2.160  50.141  1.00  0.00     0.159 HD
BRANCH  12  14
HETATM   14  C4  UNL     1      23.734   3.584  51.008  1.00  0.00     0.158 C 
BRANCH  14  15
HETATM   15  C5  UNL     1      24.573   4.694  50.490  1.00  0.00    -0.041 A 
HETATM   16  C6  UNL     1      24.500   6.014  50.845  1.00  0.00     0.010 A 
HETATM   17  C7  UNL     1      25.361   6.934  50.266  1.00  0.00     0.024 A 
HETATM   18  C8  UNL     1      26.306   6.567  49.329  1.00  0.00     0.034 A 
HETATM   19 CL1  UNL     1      27.396   7.744  48.599  1.00  0.00    -0.084 Cl
HETATM   20  C9  UNL     1      26.406   5.244  48.949  1.00  0.00     0.024 A 
HETATM   21  C10 UNL     1      25.536   4.350  49.542  1.00  0.00     0.010 A 
ENDBRANCH  14  15
ENDBRANCH  12  14
ENDBRANCH   3  12
BRANCH  11  22
HETATM   22  C16 UNL     1      27.180  -0.438  53.432  1.00  0.00     0.036 A 
HETATM   23  C17 UNL     1      27.083  -1.677  52.843  1.00  0.00     0.029 A 
HETATM   24  C18 UNL     1      28.124  -2.569  52.739  1.00  0.00     0.002 A 
HETATM   25  C19 UNL     1      29.357  -2.237  53.246  1.00  0.00     0.000 A 
HETATM   26  C20 UNL     1      29.557  -1.019  53.857  1.00  0.00     0.002 A 
HETATM   27  C21 UNL     1      28.468  -0.180  53.923  1.00  0.00     0.029 A 
ENDBRANCH  11  22
TORSDOF 4
ENDMDL
MODEL 2
REMARK VINA RESULT:      -8.8      2.949      3.945
REMARK  4 active torsions:
REMARK  status: ('A' for Active; 'I' for Inactive)
REMARK    1  A    between atoms: C3_3  and  N1_4 
REMARK    2  A    between atoms: N1_4  and  C4_5 
REMARK    3  A    between atoms: C4_5  and  C5_6 
REMARK    4  A    between atoms: N4_20  and  C16_21 
ROOT
HETATM    1  C1  UNL     1      26.623   1.465  51.418  1.00  0.00     0.039 C 
HETATM    2  C2  UNL     1      25.747   1.521  52.645  1.00  0.00     0.132 C 
HETATM    3  C3  UNL     1      24.356   1.344  52.259  1.00  0.00     0.014 C 
HETATM    4  C11 UNL     1      23.619   0.559  53.022  1.00  0.00     0.070 C 
HETATM    5  C12 UNL     1      22.365  -0.090  53.357  1.00  0.00     0.004 C 
HETATM    6  C13 UNL     1      22.659  -0.764  54.456  1.00  0.00     0.114 C 
HETATM    7  N2  UNL     1      23.154  -1.408  55.610  1.00  0.00    -0.254 NA
HETATM    8  C14 UNL     1      24.381  -1.573  55.904  1.00  0.00     0.233 C 
HETATM    9  N3  UNL     1      25.039  -0.975  54.833  1.00  0.00    -0.237 NA
HETATM   10  C15 UNL     1      25.549   0.206  54.912  1.00  0.00     0.212 C 
HETATM   11  N4  UNL     1      26.148   0.497  53.617  1.00  0.00    -0.332 N 
ENDROOT
BRANCH   3  12
HETATM   12  N1  UNL     1      24.377   2.219  51.093  1.00  0.00    -0.390 N 
HETATM   13  H5  UNL     1      25.130   2.155  50.350  1.00  0.00     0.159 HD
BRANCH  12  14
HETATM   14  C4  UNL     1      23.316   3.185  50.978  1.00  0.00     0.158 C 
BRANCH  14  15
HETATM   15  C5  UNL     1      22.064   2.457  50.650  1.00  0.00    -0.041 A 
HETATM   16  C6  UNL     1      21.884   1.540  49.649  1.00  0.00     0.010 A 
HETATM   17  C7  UNL     1      20.644   0.945  49.473  1.00  0.00     0.024 A 
HETATM   18  C8  UNL     1      19.564   1.243  50.279  1.00  0.00     0.034 A 
HETATM   19 CL1  UNL     1      17.993   0.480  50.046  1.00  0.00    -0.084 Cl
HETATM   20  C9  UNL     1      19.712   2.162  51.297  1.00  0.00     0.024 A 
HETATM   21  C10 UNL     1      20.957   2.740  51.451  1.00  0.00     0.010 A 
ENDBRANCH  14  15
ENDBRANCH  12  14
ENDBRANCH   3  12
BRANCH  11  22
HETATM   22  C16 UNL     1      27.257  -0.420  53.501  1.00  0.00     0.036 A 
HETATM   23  C17 UNL     1      27.209  -1.656  52.899  1.00  0.00     0.029 A 
HETATM   24  C18 UNL     1      28.287  -2.499  52.775  1.00  0.00     0.002 A 
HETATM   25  C19 UNL     1      29.509  -2.117  53.272  1.00  0.00     0.000 A 
HETATM   26  C20 UNL     1      29.662  -0.898  53.894  1.00  0.00     0.002 A 
HETATM   27  C21 UNL     1      28.537  -0.109  53.980  1.00  0.00     0.029 A 
ENDBRANCH  11  22
TORSDOF 4
ENDMDL
MODEL 3
REMARK VINA RESULT:      -8.7      2.867      7.192
REMARK  4 active torsions:
REMARK  status: ('A' for Active; 'I' for Inactive)
REMARK    1  A    between atoms: C3_3  and  N1_4 
REMARK    2  A    between atoms: N1_4  and  C4_5 
REMARK    3  A    between atoms: C4_5  and  C5_6 
REMARK    4  A    between atoms: N4_20  and  C16_21 
ROOT
HETATM    1  C1  UNL     1      24.318   3.407  53.118  1.00  0.00     0.039 C 
HETATM    2  C2  UNL     1      24.321   2.613  51.836  1.00  0.00     0.132 C 
HETATM    3  C3  UNL     1      23.330   1.551  51.918  1.00  0.00     0.014 C 
HETATM    4  C11 UNL     1      22.589   1.342  50.847  1.00  0.00     0.070 C 
HETATM    5  C12 UNL     1      21.541   0.634  50.133  1.00  0.00     0.004 C 
HETATM    6  C13 UNL     1      21.534   1.221  48.948  1.00  0.00     0.114 C 
HETATM    7  N2  UNL     1      21.675   1.959  47.754  1.00  0.00    -0.254 NA
HETATM    8  C14 UNL     1      22.281   3.071  47.630  1.00  0.00     0.233 C 
HETATM    9  N3  UNL     1      22.731   3.323  48.922  1.00  0.00    -0.237 NA
HETATM   10  C15 UNL     1      23.950   3.107  49.281  1.00  0.00     0.212 C 
HETATM   11  N4  UNL     1      24.053   3.483  50.685  1.00  0.00    -0.332 N 
ENDROOT
BRANCH   3  12
HETATM   12  N1  UNL     1      23.635   1.122  53.277  1.00  0.00    -0.390 N 
HETATM   13  H5  UNL     1      23.565   1.775  54.108  1.00  0.00     0.159 HD
BRANCH  12  14
HETATM   14  C4  UNL     1      24.034  -0.250  53.458  1.00  0.00     0.158 C 
BRANCH  14  15
HETATM   15  C5  UNL     1      25.509  -0.283  53.625  1.00  0.00    -0.041 A 
HETATM   16  C6  UNL     1      26.243   0.367  54.581  1.00  0.00     0.010 A 
HETATM   17  C7  UNL     1      27.623   0.233  54.603  1.00  0.00     0.024 A 
HETATM   18  C8  UNL     1      28.300  -0.544  53.684  1.00  0.00     0.034 A 
HETATM   19 CL1  UNL     1      30.054  -0.708  53.721  1.00  0.00    -0.084 Cl
HETATM   20  C9  UNL     1      27.591  -1.213  52.708  1.00  0.00     0.024 A 
HETATM   21  C10 UNL     1      26.218  -1.061  52.709  1.00  0.00     0.010 A 
ENDBRANCH  14  15
ENDBRANCH  12  14
ENDBRANCH   3  12
BRANCH  11  22
HETATM   22  C16 UNL     1      23.868   4.914  50.705  1.00  0.00     0.036 A 
HETATM   23  C17 UNL     1      22.692   5.562  51.004  1.00  0.00     0.029 A 
HETATM   24  C18 UNL     1      22.550   6.928  51.047  1.00  0.00     0.002 A 
HETATM   25  C19 UNL     1      23.631   7.732  50.778  1.00  0.00     0.000 A 
HETATM   26  C20 UNL     1      24.853   7.181  50.466  1.00  0.00     0.002 A 
HETATM   27  C21 UNL     1      24.918   5.806  50.444  1.00  0.00     0.029 A 
ENDBRANCH  11  22
TORSDOF 4
ENDMDL
MODEL 4
REMARK VINA RESULT:      -8.6      2.183      2.676
REMARK  4 active torsions:
REMARK  status: ('A' for Active; 'I' for Inactive)
REMARK    1  A    between atoms: C3_3  and  N1_4 
REMARK    2  A    between atoms: N1_4  and  C4_5 
REMARK    3  A    between atoms: C4_5  and  C5_6 
REMARK    4  A    between atoms: N4_20  and  C16_21 
ROOT
HETATM    1  C1  UNL     1      26.757   1.635  51.341  1.00  0.00     0.039 C 
HETATM    2  C2  UNL     1      25.849   1.668  52.545  1.00  0.00     0.132 C 
HETATM    3  C3  UNL     1      24.473   1.454  52.123  1.00  0.00     0.014 C 
HETATM    4  C11 UNL     1      23.738   0.649  52.868  1.00  0.00     0.070 C 
HETATM    5  C12 UNL     1      22.493  -0.033  53.171  1.00  0.00     0.004 C 
HETATM    6  C13 UNL     1      22.777  -0.699  54.278  1.00  0.00     0.114 C 
HETATM    7  N2  UNL     1      23.260  -1.330  55.444  1.00  0.00    -0.254 NA
HETATM    8  C14 UNL     1      24.482  -1.462  55.770  1.00  0.00     0.233 C 
HETATM    9  N3  UNL     1      25.151  -0.846  54.716  1.00  0.00    -0.237 NA
HETATM   10  C15 UNL     1      25.628   0.348  54.808  1.00  0.00     0.212 C 
HETATM   11  N4  UNL     1      26.252   0.655  53.527  1.00  0.00    -0.332 N 
ENDROOT
BRANCH   3  12
HETATM   12  N1  UNL     1      24.501   2.329  50.958  1.00  0.00    -0.390 N 
HETATM   13  H5  UNL     1      25.158   2.167  50.143  1.00  0.00     0.159 HD
BRANCH  12  14
HETATM   14  C4  UNL     1      23.581   3.436  50.947  1.00  0.00     0.158 C 
BRANCH  14  15
HETATM   15  C5  UNL     1      23.103   3.624  49.553  1.00  0.00    -0.041 A 
HETATM   16  C6  UNL     1      22.973   4.811  48.882  1.00  0.00     0.010 A 
HETATM   17  C7  UNL     1      22.510   4.817  47.575  1.00  0.00     0.024 A 
HETATM   18  C8  UNL     1      22.169   3.656  46.910  1.00  0.00     0.034 A 
HETATM   19 CL1  UNL     1      21.581   3.677  45.249  1.00  0.00    -0.084 Cl
HETATM   20  C9  UNL     1      22.288   2.444  47.558  1.00  0.00     0.024 A 
HETATM   21  C10 UNL     1      22.752   2.466  48.859  1.00  0.00     0.010 A 
ENDBRANCH  14  15
ENDBRANCH  12  14
ENDBRANCH   3  12
BRANCH  11  22
HETATM   22  C16 UNL     1      27.387  -0.232  53.441  1.00  0.00     0.036 A 
HETATM   23  C17 UNL     1      28.652   0.045  53.906  1.00  0.00     0.029 A 
HETATM   24  C18 UNL     1      29.710  -0.829  53.839  1.00  0.00     0.002 A 
HETATM   25  C19 UNL     1      29.532  -2.071  53.278  1.00  0.00     0.000 A 
HETATM   26  C20 UNL     1      28.303  -2.444  52.782  1.00  0.00     0.002 A 
HETATM   27  C21 UNL     1      27.292  -1.516  52.885  1.00  0.00     0.029 A 
ENDBRANCH  11  22
TORSDOF 4
ENDMDL
MODEL 5
REMARK VINA RESULT:      -8.4      1.663      2.371
REMARK  4 active torsions:
REMARK  status: ('A' for Active; 'I' for Inactive)
REMARK    1  A    between atoms: C3_3  and  N1_4 
REMARK    2  A    between atoms: N1_4  and  C4_5 
REMARK    3  A    between atoms: C4_5  and  C5_6 
REMARK    4  A    between atoms: N4_20  and  C16_21 
ROOT
HETATM    1  C1  UNL     1      26.388   2.738  50.661  1.00  0.00     0.039 C 
HETATM    2  C2  UNL     1      25.025   2.780  51.305  1.00  0.00     0.132 C 
HETATM    3  C3  UNL     1      24.002   2.547  50.297  1.00  0.00     0.014 C 
HETATM    4  C11 UNL     1      23.007   1.748  50.629  1.00  0.00     0.070 C 
HETATM    5  C12 UNL     1      21.764   1.059  50.332  1.00  0.00     0.004 C 
HETATM    6  C13 UNL     1      21.501   0.412  51.455  1.00  0.00     0.114 C 
HETATM    7  N2  UNL     1      21.388  -0.196  52.723  1.00  0.00    -0.254 NA
HETATM    8  C14 UNL     1      22.319  -0.312  53.582  1.00  0.00     0.233 C 
HETATM    9  N3  UNL     1      23.400   0.294  52.948  1.00  0.00    -0.237 NA
HETATM   10  C15 UNL     1      23.779   1.493  53.230  1.00  0.00     0.212 C 
HETATM   11  N4  UNL     1      24.926   1.786  52.381  1.00  0.00    -0.332 N 
ENDROOT
BRANCH   3  12
HETATM   12  N1  UNL     1      24.568   3.404  49.263  1.00  0.00    -0.390 N 
HETATM   13  H5  UNL     1      25.438   3.140  48.720  1.00  0.00     0.159 HD
BRANCH  12  14
HETATM   14  C4  UNL     1      23.885   4.643  48.991  1.00  0.00     0.158 C 
BRANCH  14  15
HETATM   15  C5  UNL     1      24.836   5.757  49.237  1.00  0.00    -0.041 A 
HETATM   16  C6  UNL     1      26.069   5.926  48.665  1.00  0.00     0.010 A 
HETATM   17  C7  UNL     1      26.841   7.028  49.002  1.00  0.00     0.024 A 
HETATM   18  C8  UNL     1      26.409   7.979  49.905  1.00  0.00     0.034 A 
HETATM   19 CL1  UNL     1      27.399   9.375  50.325  1.00  0.00    -0.084 Cl
HETATM   20  C9  UNL     1      25.172   7.838  50.499  1.00  0.00     0.024 A 
HETATM   21  C10 UNL     1      24.424   6.731  50.146  1.00  0.00     0.010 A 
ENDBRANCH  14  15
ENDBRANCH  12  14
ENDBRANCH   3  12
BRANCH  11  22
HETATM   22  C16 UNL     1      25.972   0.908  52.847  1.00  0.00     0.036 A 
HETATM   23  C17 UNL     1      26.370  -0.255  52.230  1.00  0.00     0.029 A 
HETATM   24  C18 UNL     1      27.391  -1.059  52.678  1.00  0.00     0.002 A 
HETATM   25  C19 UNL     1      28.082  -0.711  53.813  1.00  0.00     0.000 A 
HETATM   26  C20 UNL     1      27.760   0.435  54.505  1.00  0.00     0.002 A 
HETATM   27  C21 UNL     1      26.727   1.189  53.995  1.00  0.00     0.029 A 
ENDBRANCH  11  22
TORSDOF 4
ENDMDL
MODEL 6
REMARK VINA RESULT:      -8.3      3.278      5.000
REMARK  4 active torsions:
REMARK  status: ('A' for Active; 'I' for Inactive)
REMARK    1  A    between atoms: C3_3  and  N1_4 
REMARK    2  A    between atoms: N1_4  and  C4_5 
REMARK    3  A    between atoms: C4_5  and  C5_6 
REMARK    4  A    between atoms: N4_20  and  C16_21 
ROOT
HETATM    1  C1  UNL     1      24.739   2.360  52.817  1.00  0.00     0.039 C 
HETATM    2  C2  UNL     1      23.677   3.009  51.965  1.00  0.00     0.132 C 
HETATM    3  C3  UNL     1      24.142   3.095  50.589  1.00  0.00     0.014 C 
HETATM    4  C11 UNL     1      23.271   2.797  49.644  1.00  0.00     0.070 C 
HETATM    5  C12 UNL     1      22.900   2.630  48.250  1.00  0.00     0.004 C 
HETATM    6  C13 UNL     1      21.631   2.266  48.317  1.00  0.00     0.114 C 
HETATM    7  N2  UNL     1      20.297   1.893  48.586  1.00  0.00    -0.254 NA
HETATM    8  C14 UNL     1      19.840   1.510  49.710  1.00  0.00     0.233 C 
HETATM    9  N3  UNL     1      20.960   1.564  50.533  1.00  0.00    -0.237 NA
HETATM   10  C15 UNL     1      21.165   2.537  51.353  1.00  0.00     0.212 C 
HETATM   11  N4  UNL     1      22.419   2.258  52.039  1.00  0.00    -0.332 N 
ENDROOT
BRANCH   3  12
HETATM   12  N1  UNL     1      25.498   3.541  50.882  1.00  0.00    -0.390 N 
HETATM   13  H5  UNL     1      25.768   3.959  51.817  1.00  0.00     0.159 HD
BRANCH  12  14
HETATM   14  C4  UNL     1      26.481   3.381  49.842  1.00  0.00     0.158 C 
BRANCH  14  15
HETATM   15  C5  UNL     1      26.668   4.697  49.179  1.00  0.00    -0.041 A 
HETATM   16  C6  UNL     1      25.720   5.668  48.999  1.00  0.00     0.010 A 
HETATM   17  C7  UNL     1      26.056   6.850  48.356  1.00  0.00     0.024 A 
HETATM   18  C8  UNL     1      27.329   7.092  47.881  1.00  0.00     0.034 A 
HETATM   19 CL1  UNL     1      27.744   8.598  47.065  1.00  0.00    -0.084 Cl
HETATM   20  C9  UNL     1      28.308   6.134  48.046  1.00  0.00     0.024 A 
HETATM   21  C10 UNL     1      27.946   4.966  48.690  1.00  0.00     0.010 A 
ENDBRANCH  14  15
ENDBRANCH  12  14
ENDBRANCH   3  12
BRANCH  11  22
HETATM   22  C16 UNL     1      22.153   1.092  52.848  1.00  0.00     0.036 A 
HETATM   23  C17 UNL     1      22.825  -0.105  52.764  1.00  0.00     0.029 A 
HETATM   24  C18 UNL     1      22.573  -1.192  53.567  1.00  0.00     0.002 A 
HETATM   25  C19 UNL     1      21.593  -1.115  54.527  1.00  0.00     0.000 A 
HETATM   26  C20 UNL     1      20.863   0.041  54.690  1.00  0.00     0.002 A 
HETATM   27  C21 UNL     1      21.173   1.086  53.850  1.00  0.00     0.029 A 
ENDBRANCH  11  22
TORSDOF 4
ENDMDL
MODEL 7
REMARK VINA RESULT:      -8.2      1.540      4.030
REMARK  4 active torsions:
REMARK  status: ('A' for Active; 'I' for Inactive)
REMARK    1  A    between atoms: C3_3  and  N1_4 
REMARK    2  A    between atoms: N1_4  and  C4_5 
REMARK    3  A    between atoms: C4_5  and  C5_6 
REMARK    4  A    between atoms: N4_20  and  C16_21 
ROOT
HETATM    1  C1  UNL     1      23.451   2.158  52.201  1.00  0.00     0.039 C 
HETATM    2  C2  UNL     1      24.791   1.618  51.768  1.00  0.00     0.132 C 
HETATM    3  C3  UNL     1      25.822   2.613  52.021  1.00  0.00     0.014 C 
HETATM    4  C11 UNL     1      26.959   2.178  52.530  1.00  0.00     0.070 C 
HETATM    5  C12 UNL     1      28.306   2.396  53.025  1.00  0.00     0.004 C 
HETATM    6  C13 UNL     1      28.708   1.179  53.351  1.00  0.00     0.114 C 
HETATM    7  N2  UNL     1      28.958  -0.180  53.637  1.00  0.00    -0.254 NA
HETATM    8  C14 UNL     1      28.082  -1.097  53.733  1.00  0.00     0.233 C 
HETATM    9  N3  UNL     1      26.893  -0.414  53.491  1.00  0.00    -0.237 NA
HETATM   10  C15 UNL     1      26.294  -0.458  52.351  1.00  0.00     0.212 C 
HETATM   11  N4  UNL     1      25.098   0.365  52.468  1.00  0.00    -0.332 N 
ENDROOT
BRANCH   3  12
HETATM   12  N1  UNL     1      25.084   3.769  51.530  1.00  0.00    -0.390 N 
HETATM   13  H5  UNL     1      24.744   4.540  52.172  1.00  0.00     0.159 HD
BRANCH  12  14
HETATM   14  C4  UNL     1      24.835   3.835  50.113  1.00  0.00     0.158 C 
BRANCH  14  15
HETATM   15  C5  UNL     1      25.924   4.629  49.490  1.00  0.00    -0.041 A 
HETATM   16  C6  UNL     1      27.143   4.165  49.072  1.00  0.00     0.010 A 
HETATM   17  C7  UNL     1      28.058   5.040  48.505  1.00  0.00     0.024 A 
HETATM   18  C8  UNL     1      27.785   6.383  48.341  1.00  0.00     0.034 A 
HETATM   19 CL1  UNL     1      28.955   7.486  47.619  1.00  0.00    -0.084 Cl
HETATM   20  C9  UNL     1      26.567   6.883  48.752  1.00  0.00     0.024 A 
HETATM   21  C10 UNL     1      25.675   5.990  49.313  1.00  0.00     0.010 A 
ENDBRANCH  14  15
ENDBRANCH  12  14
ENDBRANCH   3  12
BRANCH  11  22
HETATM   22  C16 UNL     1      24.250  -0.336  53.401  1.00  0.00     0.036 A 
HETATM   23  C17 UNL     1      24.556  -0.594  54.717  1.00  0.00     0.029 A 
HETATM   24  C18 UNL     1      23.717  -1.237  55.595  1.00  0.00     0.002 A 
HETATM   25  C19 UNL     1      22.484  -1.666  55.167  1.00  0.00     0.000 A 
HETATM   26  C20 UNL     1      22.084  -1.457  53.867  1.00  0.00     0.002 A 
HETATM   27  C21 UNL     1      22.977  -0.806  53.047  1.00  0.00     0.029 A 
ENDBRANCH  11  22
TORSDOF 4
ENDMDL
MODEL 8
REMARK VINA RESULT:      -8.2      3.134      8.099
REMARK  4 active torsions:
REMARK  status: ('A' for Active; 'I' for Inactive)
REMARK    1  A    between atoms: C3_3  and  N1_4 
REMARK    2  A    between atoms: N1_4  and  C4_5 
REMARK    3  A    between atoms: C4_5  and  C5_6 
REMARK    4  A    between atoms: N4_20  and  C16_21 
ROOT
HETATM    1  C1  UNL     1      22.197   4.151  52.166  1.00  0.00     0.039 C 
HETATM    2  C2  UNL     1      23.641   4.566  52.032  1.00  0.00     0.132 C 
HETATM    3  C3  UNL     1      24.457   3.400  51.728  1.00  0.00     0.014 C 
HETATM    4  C11 UNL     1      25.393   3.549  50.811  1.00  0.00     0.070 C 
HETATM    5  C12 UNL     1      26.485   3.039  50.002  1.00  0.00     0.004 C 
HETATM    6  C13 UNL     1      26.846   4.090  49.285  1.00  0.00     0.114 C 
HETATM    7  N2  UNL     1      27.088   5.309  48.617  1.00  0.00    -0.254 NA
HETATM    8  C14 UNL     1      26.297   6.305  48.570  1.00  0.00     0.233 C 
HETATM    9  N3  UNL     1      25.207   5.868  49.316  1.00  0.00    -0.237 NA
HETATM   10  C15 UNL     1      25.019   6.234  50.538  1.00  0.00     0.212 C 
HETATM   11  N4  UNL     1      23.793   5.589  50.990  1.00  0.00    -0.332 N 
ENDROOT
BRANCH   3  12
HETATM   12  N1  UNL     1      23.837   2.491  52.684  1.00  0.00    -0.390 N 
HETATM   13  H5  UNL     1      23.259   2.836  53.502  1.00  0.00     0.159 HD
BRANCH  12  14
HETATM   14  C4  UNL     1      24.033   1.081  52.470  1.00  0.00     0.158 C 
BRANCH  14  15
HETATM   15  C5  UNL     1      25.397   0.728  52.942  1.00  0.00    -0.041 A 
HETATM   16  C6  UNL     1      26.068   1.279  54.000  1.00  0.00     0.010 A 
HETATM   17  C7  UNL     1      27.344   0.835  54.314  1.00  0.00     0.024 A 
HETATM   18  C8  UNL     1      27.977  -0.156  53.591  1.00  0.00     0.034 A 
HETATM   19 CL1  UNL     1      29.599  -0.711  53.999  1.00  0.00    -0.084 Cl
HETATM   20  C9  UNL     1      27.327  -0.731  52.518  1.00  0.00     0.024 A 
HETATM   21  C10 UNL     1      26.058  -0.271  52.228  1.00  0.00     0.010 A 
ENDBRANCH  14  15
ENDBRANCH  12  14
ENDBRANCH   3  12
BRANCH  11  22
HETATM   22  C16 UNL     1      22.740   6.199  50.215  1.00  0.00     0.036 A 
HETATM   23  C17 UNL     1      22.117   5.628  49.129  1.00  0.00     0.029 A 
HETATM   24  C18 UNL     1      21.094   6.217  48.425  1.00  0.00     0.002 A 
HETATM   25  C19 UNL     1      20.637   7.457  48.800  1.00  0.00     0.000 A 
HETATM   26  C20 UNL     1      21.195   8.113  49.874  1.00  0.00     0.002 A 
HETATM   27  C21 UNL     1      22.214   7.460  50.529  1.00  0.00     0.029 A 
ENDBRANCH  11  22
TORSDOF 4
ENDMDL
MODEL 9
REMARK VINA RESULT:      -8.1      3.782      6.944
REMARK  4 active torsions:
REMARK  status: ('A' for Active; 'I' for Inactive)
REMARK    1  A    between atoms: C3_3  and  N1_4 
REMARK    2  A    between atoms: N1_4  and  C4_5 
REMARK    3  A    between atoms: C4_5  and  C5_6 
REMARK    4  A    between atoms: N4_20  and  C16_21 
ROOT
HETATM    1  C1  UNL     1      22.430   1.938  51.078  1.00  0.00     0.039 C 
HETATM    2  C2  UNL     1      23.041   1.899  52.456  1.00  0.00     0.132 C 
HETATM    3  C3  UNL     1      23.157   0.518  52.900  1.00  0.00     0.014 C 
HETATM    4  C11 UNL     1      24.276   0.179  53.509  1.00  0.00     0.070 C 
HETATM    5  C12 UNL     1      25.130  -0.790  54.173  1.00  0.00     0.004 C 
HETATM    6  C13 UNL     1      26.205  -0.084  54.481  1.00  0.00     0.114 C 
HETATM    7  N2  UNL     1      27.258   0.823  54.726  1.00  0.00    -0.254 NA
HETATM    8  C14 UNL     1      27.416   1.953  54.164  1.00  0.00     0.233 C 
HETATM    9  N3  UNL     1      26.325   2.025  53.302  1.00  0.00    -0.237 NA
HETATM   10  C15 UNL     1      25.273   2.714  53.581  1.00  0.00     0.212 C 
HETATM   11  N4  UNL     1      24.353   2.556  52.462  1.00  0.00    -0.332 N 
ENDROOT
BRANCH   3  12
HETATM   12  N1  UNL     1      21.843   0.073  52.454  1.00  0.00    -0.390 N 
HETATM   13  H5  UNL     1      21.576   0.030  51.429  1.00  0.00     0.159 HD
BRANCH  12  14
HETATM   14  C4  UNL     1      20.904  -0.324  53.471  1.00  0.00     0.158 C 
BRANCH  14  15
HETATM   15  C5  UNL     1      19.566  -0.450  52.839  1.00  0.00    -0.041 A 
HETATM   16  C6  UNL     1      18.490  -1.143  53.326  1.00  0.00     0.010 A 
HETATM   17  C7  UNL     1      17.301  -1.163  52.612  1.00  0.00     0.024 A 
HETATM   18  C8  UNL     1      17.155  -0.501  51.409  1.00  0.00     0.034 A 
HETATM   19 CL1  UNL     1      15.640  -0.533  50.510  1.00  0.00    -0.084 Cl
HETATM   20  C9  UNL     1      18.221   0.206  50.891  1.00  0.00     0.024 A 
HETATM   21  C10 UNL     1      19.392   0.210  51.623  1.00  0.00     0.010 A 
ENDBRANCH  14  15
ENDBRANCH  12  14
ENDBRANCH   3  12
BRANCH  11  22
HETATM   22  C16 UNL     1      24.994   3.221  51.353  1.00  0.00     0.036 A 
HETATM   23  C17 UNL     1      25.947   2.664  50.533  1.00  0.00     0.029 A 
HETATM   24  C18 UNL     1      26.521   3.308  49.463  1.00  0.00     0.002 A 
HETATM   25  C19 UNL     1      26.143   4.594  49.163  1.00  0.00     0.000 A 
HETATM   26  C20 UNL     1      25.197   5.242  49.924  1.00  0.00     0.002 A 
HETATM   27  C21 UNL     1      24.668   4.532  50.978  1.00  0.00     0.029 A 
ENDBRANCH  11  22
TORSDOF 4
ENDMDL
