MODEL 1
REMARK VINA RESULT:      -7.5      0.000      0.000
REMARK  7 active torsions:
REMARK  status: ('A' for Active; 'I' for Inactive)
REMARK    1  A    between atoms: C6_8  and  N3_9 
REMARK    2  A    between atoms: N3_9  and  C7_10 
REMARK    3  A    between atoms: C7_10  and  C8_11 
REMARK    4  A    between atoms: C8_11  and  C9_12 
REMARK    5  A    between atoms: C10_13  and  C11_14 
REMARK    6  A    between atoms: C14_18  and  C15_19 
REMARK    7  A    between atoms: C15_19  and  N4_20 
ROOT
HETATM    1  C1  UNL     1      23.578  -0.374  53.404  1.00  0.00     0.049 C 
HETATM    2  C2  UNL     1      23.462   1.060  53.076  1.00  0.00    -0.052 A 
HETATM    3  C3  UNL     1      22.263   1.459  52.550  1.00  0.00     0.040 A 
HETATM    4  C4  UNL     1      22.088   2.794  52.189  1.00  0.00     0.072 A 
HETATM    5  N1  UNL     1      20.915   3.195  51.670  1.00  0.00    -0.241 NA
HETATM    6  C5  UNL     1      20.776   4.487  51.327  1.00  0.00     0.235 A 
HETATM    7  N2  UNL     1      21.816   5.279  51.527  1.00  0.00    -0.224 NA
HETATM    8  C6  UNL     1      23.002   4.974  52.029  1.00  0.00     0.137 A 
HETATM    9  C12 UNL     1      23.155   3.639  52.386  1.00  0.00     0.039 A 
HETATM   10  C13 UNL     1      24.350   3.220  52.915  1.00  0.00     0.027 A 
HETATM   11  C14 UNL     1      24.536   1.887  53.282  1.00  0.00    -0.034 A 
ENDROOT
BRANCH   8  12
HETATM   12  N3  UNL     1      24.017   5.965  52.178  1.00  0.00    -0.374 N 
HETATM   13  H6  UNL     1      24.668   6.042  52.987  1.00  0.00     0.161 HD
BRANCH  12  14
HETATM   14  C7  UNL     1      24.161   6.950  51.125  1.00  0.00     0.125 C 
BRANCH  14  15
HETATM   15  C8  UNL     1      25.460   6.839  50.375  1.00  0.00     0.046 C 
BRANCH  15  16
HETATM   16  C9  UNL     1      25.281   5.907  49.233  1.00  0.00    -0.027 C 
HETATM   17  C10 UNL     1      25.702   4.668  49.098  1.00  0.00     0.000 C 
BRANCH  17  18
HETATM   18  C11 UNL     1      26.479   3.808  50.020  1.00  0.00     0.249 C 
HETATM   19  F1  UNL     1      25.842   2.572  50.148  1.00  0.00    -0.251 F 
ENDBRANCH  17  18
ENDBRANCH  15  16
ENDBRANCH  14  15
ENDBRANCH  12  14
ENDBRANCH   8  12
BRANCH  11  20
HETATM   20  C15 UNL     1      25.851   1.533  53.868  1.00  0.00     0.156 C 
BRANCH  20  21
HETATM   21  N4  UNL     1      26.918   1.317  52.993  1.00  0.00    -0.404 N 
HETATM   22  C16 UNL     1      26.864   0.133  52.181  1.00  0.00     0.143 C 
HETATM   23  C17 UNL     1      27.371  -1.036  52.965  1.00  0.00     0.187 C 
HETATM   24  O1  UNL     1      28.195  -0.689  54.008  1.00  0.00    -0.388 OA
HETATM   25  C18 UNL     1      28.979   0.421  53.813  1.00  0.00     0.187 C 
HETATM   26  C19 UNL     1      28.246   1.630  53.328  1.00  0.00     0.143 C 
ENDBRANCH  20  21
ENDBRANCH  11  20
TORSDOF 7
ENDMDL
MODEL 2
REMARK VINA RESULT:      -7.4      2.228      2.805
REMARK  7 active torsions:
REMARK  status: ('A' for Active; 'I' for Inactive)
REMARK    1  A    between atoms: C6_8  and  N3_9 
REMARK    2  A    between atoms: N3_9  and  C7_10 
REMARK    3  A    between atoms: C7_10  and  C8_11 
REMARK    4  A    between atoms: C8_11  and  C9_12 
REMARK    5  A    between atoms: C10_13  and  C11_14 
REMARK    6  A    between atoms: C14_18  and  C15_19 
REMARK    7  A    between atoms: C15_19  and  N4_20 
ROOT
HETATM    1  C1  UNL     1      21.779  -1.376  54.263  1.00  0.00     0.049 C 
HETATM    2  C2  UNL     1      21.917  -0.065  53.600  1.00  0.00    -0.052 A 
HETATM    3  C3  UNL     1      20.750   0.606  53.349  1.00  0.00     0.040 A 
HETATM    4  C4  UNL     1      20.800   1.838  52.699  1.00  0.00     0.072 A 
HETATM    5  N1  UNL     1      19.660   2.504  52.446  1.00  0.00    -0.241 NA
HETATM    6  C5  UNL     1      19.737   3.689  51.816  1.00  0.00     0.235 A 
HETATM    7  N2  UNL     1      20.944   4.117  51.486  1.00  0.00    -0.224 NA
HETATM    8  C6  UNL     1      22.113   3.535  51.693  1.00  0.00     0.137 A 
HETATM    9  C12 UNL     1      22.042   2.308  52.345  1.00  0.00     0.039 A 
HETATM   10  C13 UNL     1      23.201   1.621  52.605  1.00  0.00     0.027 A 
HETATM   11  C14 UNL     1      23.165   0.388  53.256  1.00  0.00    -0.034 A 
ENDROOT
BRANCH   8  12
HETATM   12  N3  UNL     1      23.329   4.148  51.269  1.00  0.00    -0.374 N 
HETATM   13  H6  UNL     1      24.099   4.454  51.898  1.00  0.00     0.161 HD
BRANCH  12  14
HETATM   14  C7  UNL     1      23.516   4.368  49.849  1.00  0.00     0.125 C 
BRANCH  14  15
HETATM   15  C8  UNL     1      23.749   3.101  49.072  1.00  0.00     0.046 C 
BRANCH  15  16
HETATM   16  C9  UNL     1      22.630   2.908  48.115  1.00  0.00    -0.027 C 
HETATM   17  C10 UNL     1      21.672   2.007  48.127  1.00  0.00     0.000 C 
BRANCH  17  18
HETATM   18  C11 UNL     1      21.396   0.906  49.080  1.00  0.00     0.249 C 
HETATM   19  F1  UNL     1      20.089   1.024  49.557  1.00  0.00    -0.251 F 
ENDBRANCH  17  18
ENDBRANCH  15  16
ENDBRANCH  14  15
ENDBRANCH  12  14
ENDBRANCH   8  12
BRANCH  11  20
HETATM   20  C15 UNL     1      24.469  -0.269  53.517  1.00  0.00     0.156 C 
BRANCH  20  21
HETATM   21  N4  UNL     1      25.630   0.461  53.253  1.00  0.00    -0.404 N 
HETATM   22  C16 UNL     1      26.500  -0.047  52.230  1.00  0.00     0.143 C 
HETATM   23  C17 UNL     1      27.389  -1.104  52.808  1.00  0.00     0.187 C 
HETATM   24  O1  UNL     1      27.547  -1.012  54.169  1.00  0.00    -0.388 OA
HETATM   25  C18 UNL     1      27.528   0.257  54.694  1.00  0.00     0.187 C 
HETATM   26  C19 UNL     1      26.370   1.097  54.264  1.00  0.00     0.143 C 
ENDBRANCH  20  21
ENDBRANCH  11  20
TORSDOF 7
ENDMDL
MODEL 3
REMARK VINA RESULT:      -7.2      2.201      2.683
REMARK  7 active torsions:
REMARK  status: ('A' for Active; 'I' for Inactive)
REMARK    1  A    between atoms: C6_8  and  N3_9 
REMARK    2  A    between atoms: N3_9  and  C7_10 
REMARK    3  A    between atoms: C7_10  and  C8_11 
REMARK    4  A    between atoms: C8_11  and  C9_12 
REMARK    5  A    between atoms: C10_13  and  C11_14 
REMARK    6  A    between atoms: C14_18  and  C15_19 
REMARK    7  A    between atoms: C15_19  and  N4_20 
ROOT
HETATM    1  C1  UNL     1      22.300  -1.314  54.945  1.00  0.00     0.049 C 
HETATM    2  C2  UNL     1      22.252  -0.505  53.713  1.00  0.00    -0.052 A 
HETATM    3  C3  UNL     1      21.021  -0.373  53.130  1.00  0.00     0.040 A 
HETATM    4  C4  UNL     1      20.903   0.354  51.946  1.00  0.00     0.072 A 
HETATM    5  N1  UNL     1      19.698   0.489  51.364  1.00  0.00    -0.241 NA
HETATM    6  C5  UNL     1      19.615   1.193  50.222  1.00  0.00     0.235 A 
HETATM    7  N2  UNL     1      20.736   1.707  49.748  1.00  0.00    -0.224 NA
HETATM    8  C6  UNL     1      21.958   1.627  50.248  1.00  0.00     0.137 A 
HETATM    9  C12 UNL     1      22.054   0.900  51.430  1.00  0.00     0.039 A 
HETATM   10  C13 UNL     1      23.281   0.756  52.029  1.00  0.00     0.027 A 
HETATM   11  C14 UNL     1      23.412   0.032  53.215  1.00  0.00    -0.034 A 
ENDROOT
BRANCH   8  12
HETATM   12  N3  UNL     1      23.064   2.251  49.599  1.00  0.00    -0.374 N 
HETATM   13  H6  UNL     1      23.762   1.765  48.999  1.00  0.00     0.161 HD
BRANCH  12  14
HETATM   14  C7  UNL     1      23.239   3.678  49.784  1.00  0.00     0.125 C 
BRANCH  14  15
HETATM   15  C8  UNL     1      24.423   4.031  50.643  1.00  0.00     0.046 C 
BRANCH  15  16
HETATM   16  C9  UNL     1      25.575   3.181  50.250  1.00  0.00    -0.027 C 
HETATM   17  C10 UNL     1      26.643   3.500  49.551  1.00  0.00     0.000 C 
BRANCH  17  18
HETATM   18  C11 UNL     1      27.043   4.786  48.936  1.00  0.00     0.249 C 
HETATM   19  F1  UNL     1      28.260   4.623  48.271  1.00  0.00    -0.251 F 
ENDBRANCH  17  18
ENDBRANCH  15  16
ENDBRANCH  14  15
ENDBRANCH  12  14
ENDBRANCH   8  12
BRANCH  11  20
HETATM   20  C15 UNL     1      24.771  -0.047  53.802  1.00  0.00     0.156 C 
BRANCH  20  21
HETATM   21  N4  UNL     1      25.829   0.496  53.071  1.00  0.00    -0.404 N 
HETATM   22  C16 UNL     1      26.565  -0.403  52.225  1.00  0.00     0.143 C 
HETATM   23  C17 UNL     1      27.597  -1.122  53.037  1.00  0.00     0.187 C 
HETATM   24  O1  UNL     1      27.953  -0.466  54.189  1.00  0.00    -0.388 OA
HETATM   25  C18 UNL     1      27.934   0.906  54.131  1.00  0.00     0.187 C 
HETATM   26  C19 UNL     1      26.672   1.494  53.588  1.00  0.00     0.143 C 
ENDBRANCH  20  21
ENDBRANCH  11  20
TORSDOF 7
ENDMDL
MODEL 4
REMARK VINA RESULT:      -7.1      3.588      6.626
REMARK  7 active torsions:
REMARK  status: ('A' for Active; 'I' for Inactive)
REMARK    1  A    between atoms: C6_8  and  N3_9 
REMARK    2  A    between atoms: N3_9  and  C7_10 
REMARK    3  A    between atoms: C7_10  and  C8_11 
REMARK    4  A    between atoms: C8_11  and  C9_12 
REMARK    5  A    between atoms: C10_13  and  C11_14 
REMARK    6  A    between atoms: C14_18  and  C15_19 
REMARK    7  A    between atoms: C15_19  and  N4_20 
ROOT
HETATM    1  C1  UNL     1      18.739  -0.748  53.080  1.00  0.00     0.049 C 
HETATM    2  C2  UNL     1      20.204  -0.596  53.168  1.00  0.00    -0.052 A 
HETATM    3  C3  UNL     1      20.801  -1.165  54.260  1.00  0.00     0.040 A 
HETATM    4  C4  UNL     1      22.179  -1.037  54.427  1.00  0.00     0.072 A 
HETATM    5  N1  UNL     1      22.775  -1.591  55.497  1.00  0.00    -0.241 NA
HETATM    6  C5  UNL     1      24.104  -1.450  55.633  1.00  0.00     0.235 A 
HETATM    7  N2  UNL     1      24.737  -0.767  54.694  1.00  0.00    -0.224 NA
HETATM    8  C6  UNL     1      24.237  -0.190  53.614  1.00  0.00     0.137 A 
HETATM    9  C12 UNL     1      22.862  -0.331  53.465  1.00  0.00     0.039 A 
HETATM   10  C13 UNL     1      22.245   0.233  52.376  1.00  0.00     0.027 A 
HETATM   11  C14 UNL     1      20.867   0.110  52.197  1.00  0.00    -0.034 A 
ENDROOT
BRANCH   8  12
HETATM   12  N3  UNL     1      25.075   0.511  52.696  1.00  0.00    -0.374 N 
HETATM   13  H6  UNL     1      24.844   1.419  52.245  1.00  0.00     0.161 HD
BRANCH  12  14
HETATM   14  C7  UNL     1      26.354  -0.082  52.360  1.00  0.00     0.125 C 
BRANCH  14  15
HETATM   15  C8  UNL     1      27.523   0.833  52.606  1.00  0.00     0.046 C 
BRANCH  15  16
HETATM   16  C9  UNL     1      28.008   0.634  53.995  1.00  0.00    -0.027 C 
HETATM   17  C10 UNL     1      29.032  -0.071  54.425  1.00  0.00     0.000 C 
BRANCH  17  18
HETATM   18  C11 UNL     1      30.022  -0.884  53.682  1.00  0.00     0.249 C 
HETATM   19  F1  UNL     1      29.373  -1.954  53.063  1.00  0.00    -0.251 F 
ENDBRANCH  17  18
ENDBRANCH  15  16
ENDBRANCH  14  15
ENDBRANCH  12  14
ENDBRANCH   8  12
BRANCH  11  20
HETATM   20  C15 UNL     1      20.294   0.730  50.979  1.00  0.00     0.156 C 
BRANCH  20  21
HETATM   21  N4  UNL     1      19.769   2.020  51.089  1.00  0.00    -0.404 N 
HETATM   22  C16 UNL     1      19.698   2.799  49.885  1.00  0.00     0.143 C 
HETATM   23  C17 UNL     1      21.023   3.444  49.626  1.00  0.00     0.187 C 
HETATM   24  O1  UNL     1      21.802   3.581  50.748  1.00  0.00    -0.388 OA
HETATM   25  C18 UNL     1      21.130   3.801  51.925  1.00  0.00     0.187 C 
HETATM   26  C19 UNL     1      20.015   2.844  52.200  1.00  0.00     0.143 C 
ENDBRANCH  20  21
ENDBRANCH  11  20
TORSDOF 7
ENDMDL
MODEL 5
REMARK VINA RESULT:      -7.1      2.929      5.704
REMARK  7 active torsions:
REMARK  status: ('A' for Active; 'I' for Inactive)
REMARK    1  A    between atoms: C6_8  and  N3_9 
REMARK    2  A    between atoms: N3_9  and  C7_10 
REMARK    3  A    between atoms: C7_10  and  C8_11 
REMARK    4  A    between atoms: C8_11  and  C9_12 
REMARK    5  A    between atoms: C10_13  and  C11_14 
REMARK    6  A    between atoms: C14_18  and  C15_19 
REMARK    7  A    between atoms: C15_19  and  N4_20 
ROOT
HETATM    1  C1  UNL     1      21.914  -1.296  54.575  1.00  0.00     0.049 C 
HETATM    2  C2  UNL     1      23.079  -0.513  54.124  1.00  0.00    -0.052 A 
HETATM    3  C3  UNL     1      24.300  -0.943  54.569  1.00  0.00     0.040 A 
HETATM    4  C4  UNL     1      25.445  -0.235  54.208  1.00  0.00     0.072 A 
HETATM    5  N1  UNL     1      26.648  -0.649  54.641  1.00  0.00    -0.241 NA
HETATM    6  C5  UNL     1      27.735   0.055  54.279  1.00  0.00     0.235 A 
HETATM    7  N2  UNL     1      27.538   1.116  53.515  1.00  0.00    -0.224 NA
HETATM    8  C6  UNL     1      26.399   1.595  53.044  1.00  0.00     0.137 A 
HETATM    9  C12 UNL     1      25.269   0.873  53.413  1.00  0.00     0.039 A 
HETATM   10  C13 UNL     1      24.037   1.290  52.977  1.00  0.00     0.027 A 
HETATM   11  C14 UNL     1      22.884   0.589  53.330  1.00  0.00    -0.034 A 
ENDROOT
BRANCH   8  12
HETATM   12  N3  UNL     1      26.372   2.761  52.223  1.00  0.00    -0.374 N 
HETATM   13  H6  UNL     1      26.240   3.735  52.566  1.00  0.00     0.161 HD
BRANCH  12  14
HETATM   14  C7  UNL     1      26.542   2.587  50.794  1.00  0.00     0.125 C 
BRANCH  14  15
HETATM   15  C8  UNL     1      25.911   3.682  49.977  1.00  0.00     0.046 C 
BRANCH  15  16
HETATM   16  C9  UNL     1      24.443   3.463  49.929  1.00  0.00    -0.027 C 
HETATM   17  C10 UNL     1      23.491   4.067  50.607  1.00  0.00     0.000 C 
BRANCH  17  18
HETATM   18  C11 UNL     1      23.563   5.142  51.622  1.00  0.00     0.249 C 
HETATM   19  F1  UNL     1      23.790   4.579  52.880  1.00  0.00    -0.251 F 
ENDBRANCH  17  18
ENDBRANCH  15  16
ENDBRANCH  14  15
ENDBRANCH  12  14
ENDBRANCH   8  12
BRANCH  11  20
HETATM   20  C15 UNL     1      21.600   1.098  52.791  1.00  0.00     0.156 C 
BRANCH  20  21
HETATM   21  N4  UNL     1      20.983   0.364  51.775  1.00  0.00    -0.404 N 
HETATM   22  C16 UNL     1      21.402   0.637  50.429  1.00  0.00     0.143 C 
HETATM   23  C17 UNL     1      20.665   1.830  49.907  1.00  0.00     0.187 C 
HETATM   24  O1  UNL     1      19.480   2.078  50.555  1.00  0.00    -0.388 OA
HETATM   25  C18 UNL     1      18.801   0.975  51.010  1.00  0.00     0.187 C 
HETATM   26  C19 UNL     1      19.622   0.019  51.812  1.00  0.00     0.143 C 
ENDBRANCH  20  21
ENDBRANCH  11  20
TORSDOF 7
ENDMDL
MODEL 6
REMARK VINA RESULT:      -6.9      2.844      6.770
REMARK  7 active torsions:
REMARK  status: ('A' for Active; 'I' for Inactive)
REMARK    1  A    between atoms: C6_8  and  N3_9 
REMARK    2  A    between atoms: N3_9  and  C7_10 
REMARK    3  A    between atoms: C7_10  and  C8_11 
REMARK    4  A    between atoms: C8_11  and  C9_12 
REMARK    5  A    between atoms: C10_13  and  C11_14 
REMARK    6  A    between atoms: C14_18  and  C15_19 
REMARK    7  A    between atoms: C15_19  and  N4_20 
ROOT
HETATM    1  C1  UNL     1      26.214   3.592  49.718  1.00  0.00     0.049 C 
HETATM    2  C2  UNL     1      25.776   2.635  50.751  1.00  0.00    -0.052 A 
HETATM    3  C3  UNL     1      26.734   1.775  51.216  1.00  0.00     0.040 A 
HETATM    4  C4  UNL     1      26.387   0.822  52.173  1.00  0.00     0.072 A 
HETATM    5  N1  UNL     1      27.320  -0.029  52.635  1.00  0.00    -0.241 NA
HETATM    6  C5  UNL     1      26.956  -0.939  53.554  1.00  0.00     0.235 A 
HETATM    7  N2  UNL     1      25.693  -0.931  53.942  1.00  0.00    -0.224 NA
HETATM    8  C6  UNL     1      24.711  -0.138  53.546  1.00  0.00     0.137 A 
HETATM    9  C12 UNL     1      25.078   0.807  52.594  1.00  0.00     0.039 A 
HETATM   10  C13 UNL     1      24.132   1.678  52.115  1.00  0.00     0.027 A 
HETATM   11  C14 UNL     1      24.467   2.637  51.159  1.00  0.00    -0.034 A 
ENDROOT
BRANCH   8  12
HETATM   12  N3  UNL     1      23.394  -0.270  54.078  1.00  0.00    -0.374 N 
HETATM   13  H6  UNL     1      23.012   0.274  54.879  1.00  0.00     0.161 HD
BRANCH  12  14
HETATM   14  C7  UNL     1      22.509  -1.238  53.461  1.00  0.00     0.125 C 
BRANCH  14  15
HETATM   15  C8  UNL     1      21.051  -0.947  53.687  1.00  0.00     0.046 C 
BRANCH  15  16
HETATM   16  C9  UNL     1      20.825   0.516  53.563  1.00  0.00    -0.027 C 
HETATM   17  C10 UNL     1      20.548   1.226  52.491  1.00  0.00     0.000 C 
BRANCH  17  18
HETATM   18  C11 UNL     1      20.371   0.812  51.080  1.00  0.00     0.249 C 
HETATM   19  F1  UNL     1      21.566   0.269  50.603  1.00  0.00    -0.251 F 
ENDBRANCH  17  18
ENDBRANCH  15  16
ENDBRANCH  14  15
ENDBRANCH  12  14
ENDBRANCH   8  12
BRANCH  11  20
HETATM   20  C15 UNL     1      23.384   3.550  50.721  1.00  0.00     0.156 C 
BRANCH  20  21
HETATM   21  N4  UNL     1      23.049   4.614  51.562  1.00  0.00    -0.404 N 
HETATM   22  C16 UNL     1      21.652   4.831  51.813  1.00  0.00     0.143 C 
HETATM   23  C17 UNL     1      21.061   5.631  50.695  1.00  0.00     0.187 C 
HETATM   24  O1  UNL     1      21.981   6.371  49.996  1.00  0.00    -0.388 OA
HETATM   25  C18 UNL     1      23.043   6.853  50.721  1.00  0.00     0.187 C 
HETATM   26  C19 UNL     1      23.748   5.833  51.555  1.00  0.00     0.143 C 
ENDBRANCH  20  21
ENDBRANCH  11  20
TORSDOF 7
ENDMDL
MODEL 7
REMARK VINA RESULT:      -6.8      3.377      6.588
REMARK  7 active torsions:
REMARK  status: ('A' for Active; 'I' for Inactive)
REMARK    1  A    between atoms: C6_8  and  N3_9 
REMARK    2  A    between atoms: N3_9  and  C7_10 
REMARK    3  A    between atoms: C7_10  and  C8_11 
REMARK    4  A    between atoms: C8_11  and  C9_12 
REMARK    5  A    between atoms: C10_13  and  C11_14 
REMARK    6  A    between atoms: C14_18  and  C15_19 
REMARK    7  A    between atoms: C15_19  and  N4_20 
ROOT
HETATM    1  C1  UNL     1      25.956   1.583  51.290  1.00  0.00     0.049 C 
HETATM    2  C2  UNL     1      24.817   1.103  52.095  1.00  0.00    -0.052 A 
HETATM    3  C3  UNL     1      25.126   0.263  53.130  1.00  0.00     0.040 A 
HETATM    4  C4  UNL     1      24.098  -0.255  53.917  1.00  0.00     0.072 A 
HETATM    5  N1  UNL     1      24.391  -1.082  54.935  1.00  0.00    -0.241 NA
HETATM    6  C5  UNL     1      23.380  -1.568  55.675  1.00  0.00     0.235 A 
HETATM    7  N2  UNL     1      22.156  -1.194  55.343  1.00  0.00    -0.224 NA
HETATM    8  C6  UNL     1      21.775  -0.389  54.365  1.00  0.00     0.137 A 
HETATM    9  C12 UNL     1      22.815   0.118  53.593  1.00  0.00     0.039 A 
HETATM   10  C13 UNL     1      22.525   0.962  52.551  1.00  0.00     0.027 A 
HETATM   11  C14 UNL     1      23.544   1.488  51.757  1.00  0.00    -0.034 A 
ENDROOT
BRANCH   8  12
HETATM   12  N3  UNL     1      20.397  -0.089  54.150  1.00  0.00    -0.374 N 
HETATM   13  H6  UNL     1      19.916   0.780  54.461  1.00  0.00     0.161 HD
BRANCH  12  14
HETATM   14  C7  UNL     1      19.594  -1.067  53.444  1.00  0.00     0.125 C 
BRANCH  14  15
HETATM   15  C8  UNL     1      18.506  -0.454  52.604  1.00  0.00     0.046 C 
BRANCH  15  16
HETATM   16  C9  UNL     1      19.108   0.104  51.366  1.00  0.00    -0.027 C 
HETATM   17  C10 UNL     1      19.278   1.361  51.019  1.00  0.00     0.000 C 
BRANCH  17  18
HETATM   18  C11 UNL     1      18.934   2.613  51.731  1.00  0.00     0.249 C 
HETATM   19  F1  UNL     1      19.890   2.862  52.719  1.00  0.00    -0.251 F 
ENDBRANCH  17  18
ENDBRANCH  15  16
ENDBRANCH  14  15
ENDBRANCH  12  14
ENDBRANCH   8  12
BRANCH  11  20
HETATM   20  C15 UNL     1      23.137   2.410  50.670  1.00  0.00     0.156 C 
BRANCH  20  21
HETATM   21  N4  UNL     1      22.521   3.611  51.031  1.00  0.00    -0.404 N 
HETATM   22  C16 UNL     1      21.875   4.352  49.984  1.00  0.00     0.143 C 
HETATM   23  C17 UNL     1      22.888   5.180  49.258  1.00  0.00     0.187 C 
HETATM   24  O1  UNL     1      24.016   5.447  49.993  1.00  0.00    -0.388 OA
HETATM   25  C18 UNL     1      23.834   5.585  51.347  1.00  0.00     0.187 C 
HETATM   26  C19 UNL     1      23.063   4.479  51.993  1.00  0.00     0.143 C 
ENDBRANCH  20  21
ENDBRANCH  11  20
TORSDOF 7
ENDMDL
MODEL 8
REMARK VINA RESULT:      -6.7      2.087      4.876
REMARK  7 active torsions:
REMARK  status: ('A' for Active; 'I' for Inactive)
REMARK    1  A    between atoms: C6_8  and  N3_9 
REMARK    2  A    between atoms: N3_9  and  C7_10 
REMARK    3  A    between atoms: C7_10  and  C8_11 
REMARK    4  A    between atoms: C8_11  and  C9_12 
REMARK    5  A    between atoms: C10_13  and  C11_14 
REMARK    6  A    between atoms: C14_18  and  C15_19 
REMARK    7  A    between atoms: C15_19  and  N4_20 
ROOT
HETATM    1  C1  UNL     1      26.825   3.696  49.373  1.00  0.00     0.049 C 
HETATM    2  C2  UNL     1      25.554   3.327  50.025  1.00  0.00    -0.052 A 
HETATM    3  C3  UNL     1      24.448   4.023  49.620  1.00  0.00     0.040 A 
HETATM    4  C4  UNL     1      23.216   3.750  50.212  1.00  0.00     0.072 A 
HETATM    5  N1  UNL     1      22.124   4.430  49.822  1.00  0.00    -0.241 NA
HETATM    6  C5  UNL     1      20.950   4.147  50.413  1.00  0.00     0.235 A 
HETATM    7  N2  UNL     1      20.955   3.210  51.346  1.00  0.00    -0.224 NA
HETATM    8  C6  UNL     1      21.974   2.494  51.791  1.00  0.00     0.137 A 
HETATM    9  C12 UNL     1      23.193   2.780  51.186  1.00  0.00     0.039 A 
HETATM   10  C13 UNL     1      24.313   2.092  51.580  1.00  0.00     0.027 A 
HETATM   11  C14 UNL     1      25.551   2.355  50.993  1.00  0.00    -0.034 A 
ENDROOT
BRANCH   8  12
HETATM   12  N3  UNL     1      21.796   1.513  52.812  1.00  0.00    -0.374 N 
HETATM   13  H6  UNL     1      22.537   1.182  53.463  1.00  0.00     0.161 HD
BRANCH  12  14
HETATM   14  C7  UNL     1      20.480   0.923  52.961  1.00  0.00     0.125 C 
BRANCH  14  15
HETATM   15  C8  UNL     1      20.304   0.172  54.253  1.00  0.00     0.046 C 
BRANCH  15  16
HETATM   16  C9  UNL     1      20.773  -1.225  54.067  1.00  0.00    -0.027 C 
HETATM   17  C10 UNL     1      21.892  -1.786  54.468  1.00  0.00     0.000 C 
BRANCH  17  18
HETATM   18  C11 UNL     1      23.036  -1.224  55.224  1.00  0.00     0.249 C 
HETATM   19  F1  UNL     1      23.883  -0.544  54.346  1.00  0.00    -0.251 F 
ENDBRANCH  17  18
ENDBRANCH  15  16
ENDBRANCH  14  15
ENDBRANCH  12  14
ENDBRANCH   8  12
BRANCH  11  20
HETATM   20  C15 UNL     1      26.699   1.544  51.464  1.00  0.00     0.156 C 
BRANCH  20  21
HETATM   21  N4  UNL     1      26.747   1.206  52.819  1.00  0.00    -0.404 N 
HETATM   22  C16 UNL     1      27.254   2.202  53.721  1.00  0.00     0.143 C 
HETATM   23  C17 UNL     1      28.750   2.149  53.735  1.00  0.00     0.187 C 
HETATM   24  O1  UNL     1      29.266   0.941  53.335  1.00  0.00    -0.388 OA
HETATM   25  C18 UNL     1      28.519  -0.167  53.651  1.00  0.00     0.187 C 
HETATM   26  C19 UNL     1      27.078  -0.084  53.265  1.00  0.00     0.143 C 
ENDBRANCH  20  21
ENDBRANCH  11  20
TORSDOF 7
ENDMDL
MODEL 9
REMARK VINA RESULT:      -6.7      2.984      5.930
REMARK  7 active torsions:
REMARK  status: ('A' for Active; 'I' for Inactive)
REMARK    1  A    between atoms: C6_8  and  N3_9 
REMARK    2  A    between atoms: N3_9  and  C7_10 
REMARK    3  A    between atoms: C7_10  and  C8_11 
REMARK    4  A    between atoms: C8_11  and  C9_12 
REMARK    5  A    between atoms: C10_13  and  C11_14 
REMARK    6  A    between atoms: C14_18  and  C15_19 
REMARK    7  A    between atoms: C15_19  and  N4_20 
ROOT
HETATM    1  C1  UNL     1      19.594   0.156  52.664  1.00  0.00     0.049 C 
HETATM    2  C2  UNL     1      21.034   0.018  52.951  1.00  0.00    -0.052 A 
HETATM    3  C3  UNL     1      21.354  -0.628  54.115  1.00  0.00     0.040 A 
HETATM    4  C4  UNL     1      22.696  -0.771  54.468  1.00  0.00     0.072 A 
HETATM    5  N1  UNL     1      23.020  -1.401  55.609  1.00  0.00    -0.241 NA
HETATM    6  C5  UNL     1      24.321  -1.522  55.925  1.00  0.00     0.235 A 
HETATM    7  N2  UNL     1      25.197  -1.005  55.081  1.00  0.00    -0.224 NA
HETATM    8  C6  UNL     1      24.971  -0.371  53.942  1.00  0.00     0.137 A 
HETATM    9  C12 UNL     1      23.628  -0.241  53.607  1.00  0.00     0.039 A 
HETATM   10  C13 UNL     1      23.287   0.403  52.444  1.00  0.00     0.027 A 
HETATM   11  C14 UNL     1      21.949   0.551  52.079  1.00  0.00    -0.034 A 
ENDROOT
BRANCH   8  12
HETATM   12  N3  UNL     1      26.047   0.124  53.147  1.00  0.00    -0.374 N 
HETATM   13  H6  UNL     1      26.382  -0.301  52.258  1.00  0.00     0.161 HD
BRANCH  12  14
HETATM   14  C7  UNL     1      26.737   1.313  53.606  1.00  0.00     0.125 C 
BRANCH  14  15
HETATM   15  C8  UNL     1      27.200   2.206  52.488  1.00  0.00     0.046 C 
BRANCH  15  16
HETATM   16  C9  UNL     1      26.452   1.861  51.252  1.00  0.00    -0.027 C 
HETATM   17  C10 UNL     1      26.248   2.587  50.174  1.00  0.00     0.000 C 
BRANCH  17  18
HETATM   18  C11 UNL     1      26.688   3.962  49.840  1.00  0.00     0.249 C 
HETATM   19  F1  UNL     1      25.762   4.547  48.974  1.00  0.00    -0.251 F 
ENDBRANCH  17  18
ENDBRANCH  15  16
ENDBRANCH  14  15
ENDBRANCH  12  14
ENDBRANCH   8  12
BRANCH  11  20
HETATM   20  C15 UNL     1      21.679   1.238  50.793  1.00  0.00     0.156 C 
BRANCH  20  21
HETATM   21  N4  UNL     1      22.041   2.582  50.684  1.00  0.00    -0.404 N 
HETATM   22  C16 UNL     1      21.383   3.508  51.563  1.00  0.00     0.143 C 
HETATM   23  C17 UNL     1      20.061   3.897  50.981  1.00  0.00     0.187 C 
HETATM   24  O1  UNL     1      19.981   3.727  49.621  1.00  0.00    -0.388 OA
HETATM   25  C18 UNL     1      21.145   3.926  48.920  1.00  0.00     0.187 C 
HETATM   26  C19 UNL     1      22.331   3.189  49.451  1.00  0.00     0.143 C 
ENDBRANCH  20  21
ENDBRANCH  11  20
TORSDOF 7
ENDMDL
