MODEL 1
REMARK VINA RESULT:     -10.0      0.000      0.000
REMARK  3 active torsions:
REMARK  status: ('A' for Active; 'I' for Inactive)
REMARK    1  A    between atoms: C7_7  and  C8_8 
REMARK    2  A    between atoms: C11_11  and  C12_12 
REMARK    3  A    between atoms: C12_12  and  C13_13 
ROOT
HETATM    1  C8  UNL     1      26.328   0.750  52.660  1.00  0.00    -0.029 A 
HETATM    2  C9  UNL     1      26.160   1.581  51.661  1.00  0.00     0.027 A 
HETATM    3  C10 UNL     1      24.979   2.320  51.288  1.00  0.00     0.035 A 
HETATM    4  C11 UNL     1      24.937   3.185  50.234  1.00  0.00     0.054 A 
HETATM    5  N1  UNL     1      23.768   3.848  49.986  1.00  0.00    -0.245 NA
HETATM    6  C19 UNL     1      22.669   3.663  50.756  1.00  0.00     0.235 A 
HETATM    7  N2  UNL     1      22.676   2.807  51.816  1.00  0.00    -0.224 NA
HETATM    8  C20 UNL     1      23.835   2.173  52.033  1.00  0.00     0.137 A 
HETATM    9  N3  UNL     1      24.027   1.265  53.095  1.00  0.00    -0.370 N 
HETATM   10  C21 UNL     1      25.151   0.557  53.581  1.00  0.00     0.160 A 
HETATM   11  H16 UNL     1      23.206   1.010  53.705  1.00  0.00     0.161 HD
ENDROOT
BRANCH   4  12
HETATM   12  C12 UNL     1      26.026   3.468  49.319  1.00  0.00     0.099 C 
BRANCH  12  13
HETATM   13  C13 UNL     1      26.436   4.874  49.192  1.00  0.00    -0.051 A 
HETATM   14  C14 UNL     1      27.677   4.878  48.570  1.00  0.00     0.007 A 
HETATM   15  C15 UNL     1      28.355   6.073  48.282  1.00  0.00     0.002 A 
HETATM   16  C16 UNL     1      27.793   7.300  48.616  1.00  0.00     0.019 A 
HETATM   17  C17 UNL     1      26.551   7.284  49.238  1.00  0.00     0.011 A 
HETATM   18 BR1  UNL     1      25.595   8.838  49.782  1.00  0.00    -0.051 Br
HETATM   19  C18 UNL     1      25.915   6.095  49.504  1.00  0.00     0.026 A 
ENDBRANCH  12  13
ENDBRANCH   4  12
BRANCH   1  20
HETATM   20  C7  UNL     1      27.509   0.004  53.028  1.00  0.00    -0.022 A 
HETATM   21  C2  UNL     1      27.873  -1.307  52.885  1.00  0.00    -0.051 A 
HETATM   22  C1  UNL     1      26.835  -2.239  52.400  1.00  0.00     0.049 C 
HETATM   23  C3  UNL     1      29.079  -1.861  53.198  1.00  0.00     0.007 A 
HETATM   24  C4  UNL     1      30.073  -1.073  53.717  1.00  0.00     0.001 A 
HETATM   25  C5  UNL     1      29.807   0.252  53.901  1.00  0.00     0.001 A 
HETATM   26  C6  UNL     1      28.581   0.736  53.565  1.00  0.00     0.012 A 
ENDBRANCH   1  20
TORSDOF 3
ENDMDL
MODEL 2
REMARK VINA RESULT:      -9.8      2.919      4.147
REMARK  3 active torsions:
REMARK  status: ('A' for Active; 'I' for Inactive)
REMARK    1  A    between atoms: C7_7  and  C8_8 
REMARK    2  A    between atoms: C11_11  and  C12_12 
REMARK    3  A    between atoms: C12_12  and  C13_13 
ROOT
HETATM    1  C8  UNL     1      25.205  -0.605  54.069  1.00  0.00    -0.029 A 
HETATM    2  C9  UNL     1      24.269  -0.252  53.224  1.00  0.00     0.027 A 
HETATM    3  C10 UNL     1      22.836  -0.353  53.366  1.00  0.00     0.035 A 
HETATM    4  C11 UNL     1      21.957   0.081  52.419  1.00  0.00     0.054 A 
HETATM    5  N1  UNL     1      20.619  -0.045  52.670  1.00  0.00    -0.245 NA
HETATM    6  C19 UNL     1      20.161  -0.585  53.825  1.00  0.00     0.235 A 
HETATM    7  N2  UNL     1      21.012  -1.029  54.792  1.00  0.00    -0.224 NA
HETATM    8  C20 UNL     1      22.315  -0.891  54.516  1.00  0.00     0.137 A 
HETATM    9  N3  UNL     1      23.335  -1.280  55.409  1.00  0.00    -0.370 N 
HETATM   10  C21 UNL     1      24.744  -1.157  55.394  1.00  0.00     0.160 A 
HETATM   11  H16 UNL     1      23.072  -1.772  56.305  1.00  0.00     0.161 HD
ENDROOT
BRANCH   4  12
HETATM   12  C12 UNL     1      22.302   0.662  51.136  1.00  0.00     0.099 C 
BRANCH  12  13
HETATM   13  C13 UNL     1      22.951   1.981  51.159  1.00  0.00    -0.051 A 
HETATM   14  C14 UNL     1      22.243   2.763  52.062  1.00  0.00     0.007 A 
HETATM   15  C15 UNL     1      22.610   4.089  52.337  1.00  0.00     0.002 A 
HETATM   16  C16 UNL     1      23.707   4.663  51.703  1.00  0.00     0.019 A 
HETATM   17  C17 UNL     1      24.408   3.871  50.803  1.00  0.00     0.011 A 
HETATM   18 BR1  UNL     1      25.938   4.445  49.825  1.00  0.00    -0.051 Br
HETATM   19  C18 UNL     1      24.021   2.576  50.559  1.00  0.00     0.026 A 
ENDBRANCH  12  13
ENDBRANCH   4  12
BRANCH   1  20
HETATM   20  C7  UNL     1      26.639  -0.512  53.923  1.00  0.00    -0.022 A 
HETATM   21  C2  UNL     1      27.551  -1.188  53.158  1.00  0.00    -0.051 A 
HETATM   22  C1  UNL     1      27.058  -2.370  52.421  1.00  0.00     0.049 C 
HETATM   23  C3  UNL     1      28.884  -0.924  53.048  1.00  0.00     0.007 A 
HETATM   24  C4  UNL     1      29.429   0.115  53.754  1.00  0.00     0.001 A 
HETATM   25  C5  UNL     1      28.602   0.851  54.550  1.00  0.00     0.001 A 
HETATM   26  C6  UNL     1      27.281   0.530  54.611  1.00  0.00     0.012 A 
ENDBRANCH   1  20
TORSDOF 3
ENDMDL
MODEL 3
REMARK VINA RESULT:      -9.7      2.731      6.673
REMARK  3 active torsions:
REMARK  status: ('A' for Active; 'I' for Inactive)
REMARK    1  A    between atoms: C7_7  and  C8_8 
REMARK    2  A    between atoms: C11_11  and  C12_12 
REMARK    3  A    between atoms: C12_12  and  C13_13 
ROOT
HETATM    1  C8  UNL     1      24.902   3.548  49.986  1.00  0.00    -0.029 A 
HETATM    2  C9  UNL     1      25.026   2.990  51.165  1.00  0.00     0.027 A 
HETATM    3  C10 UNL     1      24.187   1.994  51.787  1.00  0.00     0.035 A 
HETATM    4  C11 UNL     1      24.440   1.464  53.018  1.00  0.00     0.054 A 
HETATM    5  N1  UNL     1      23.588   0.510  53.499  1.00  0.00    -0.245 NA
HETATM    6  C19 UNL     1      22.515   0.090  52.786  1.00  0.00     0.235 A 
HETATM    7  N2  UNL     1      22.233   0.599  51.554  1.00  0.00    -0.224 NA
HETATM    8  C20 UNL     1      23.086   1.530  51.111  1.00  0.00     0.137 A 
HETATM    9  N3  UNL     1      22.958   2.152  49.851  1.00  0.00    -0.370 N 
HETATM   10  C21 UNL     1      23.757   3.070  49.131  1.00  0.00     0.160 A 
HETATM   11  H16 UNL     1      22.114   1.935  49.256  1.00  0.00     0.161 HD
ENDROOT
BRANCH   4  12
HETATM   12  C12 UNL     1      25.536   1.828  53.895  1.00  0.00     0.099 C 
BRANCH  12  13
HETATM   13  C13 UNL     1      26.791   1.082  53.730  1.00  0.00    -0.051 A 
HETATM   14  C14 UNL     1      27.826   1.995  53.880  1.00  0.00     0.007 A 
HETATM   15  C15 UNL     1      29.172   1.607  53.794  1.00  0.00     0.002 A 
HETATM   16  C16 UNL     1      29.509   0.278  53.554  1.00  0.00     0.019 A 
HETATM   17  C17 UNL     1      28.465  -0.626  53.407  1.00  0.00     0.011 A 
HETATM   18 BR1  UNL     1      28.689  -2.488  53.075  1.00  0.00    -0.051 Br
HETATM   19  C18 UNL     1      27.158  -0.211  53.498  1.00  0.00     0.026 A 
ENDBRANCH  12  13
ENDBRANCH   4  12
BRANCH   1  20
HETATM   20  C7  UNL     1      25.737   4.551  49.368  1.00  0.00    -0.022 A 
HETATM   21  C2  UNL     1      25.566   5.883  49.103  1.00  0.00    -0.051 A 
HETATM   22  C1  UNL     1      24.218   6.441  49.334  1.00  0.00     0.049 C 
HETATM   23  C3  UNL     1      26.494   6.743  48.593  1.00  0.00     0.007 A 
HETATM   24  C4  UNL     1      27.748   6.284  48.290  1.00  0.00     0.001 A 
HETATM   25  C5  UNL     1      28.019   4.966  48.515  1.00  0.00     0.001 A 
HETATM   26  C6  UNL     1      27.045   4.167  49.027  1.00  0.00     0.012 A 
ENDBRANCH   1  20
TORSDOF 3
ENDMDL
MODEL 4
REMARK VINA RESULT:      -9.3      3.562      6.123
REMARK  3 active torsions:
REMARK  status: ('A' for Active; 'I' for Inactive)
REMARK    1  A    between atoms: C7_7  and  C8_8 
REMARK    2  A    between atoms: C11_11  and  C12_12 
REMARK    3  A    between atoms: C12_12  and  C13_13 
ROOT
HETATM    1  C8  UNL     1      26.411   1.197  52.519  1.00  0.00    -0.029 A 
HETATM    2  C9  UNL     1      25.119   1.107  52.717  1.00  0.00     0.027 A 
HETATM    3  C10 UNL     1      24.077   2.020  52.314  1.00  0.00     0.035 A 
HETATM    4  C11 UNL     1      22.753   1.799  52.556  1.00  0.00     0.054 A 
HETATM    5  N1  UNL     1      21.850   2.723  52.108  1.00  0.00    -0.245 NA
HETATM    6  C19 UNL     1      22.242   3.835  51.442  1.00  0.00     0.235 A 
HETATM    7  N2  UNL     1      23.556   4.087  51.184  1.00  0.00    -0.224 NA
HETATM    8  C20 UNL     1      24.415   3.163  51.634  1.00  0.00     0.137 A 
HETATM    9  N3  UNL     1      25.810   3.253  51.442  1.00  0.00    -0.370 N 
HETATM   10  C21 UNL     1      26.891   2.388  51.729  1.00  0.00     0.160 A 
HETATM   11  H16 UNL     1      26.210   4.118  50.991  1.00  0.00     0.161 HD
ENDROOT
BRANCH   4  12
HETATM   12  C12 UNL     1      22.193   0.667  53.268  1.00  0.00     0.099 C 
BRANCH  12  13
HETATM   13  C13 UNL     1      20.852   0.225  52.858  1.00  0.00    -0.051 A 
HETATM   14  C14 UNL     1      20.407  -0.665  53.827  1.00  0.00     0.007 A 
HETATM   15  C15 UNL     1      19.143  -1.271  53.748  1.00  0.00     0.002 A 
HETATM   16  C16 UNL     1      18.292  -0.991  52.685  1.00  0.00     0.019 A 
HETATM   17  C17 UNL     1      18.748  -0.099  51.722  1.00  0.00     0.011 A 
HETATM   18 BR1  UNL     1      17.755   0.430  50.186  1.00  0.00    -0.051 Br
HETATM   19  C18 UNL     1      19.990   0.476  51.831  1.00  0.00     0.026 A 
ENDBRANCH  12  13
ENDBRANCH   4  12
BRANCH   1  20
HETATM   20  C7  UNL     1      27.455   0.287  52.929  1.00  0.00    -0.022 A 
HETATM   21  C2  UNL     1      27.615  -1.069  52.823  1.00  0.00    -0.051 A 
HETATM   22  C1  UNL     1      26.454  -1.841  52.334  1.00  0.00     0.049 C 
HETATM   23  C3  UNL     1      28.714  -1.794  53.175  1.00  0.00     0.007 A 
HETATM   24  C4  UNL     1      29.807  -1.156  53.699  1.00  0.00     0.001 A 
HETATM   25  C5  UNL     1      29.746   0.198  53.849  1.00  0.00     0.001 A 
HETATM   26  C6  UNL     1      28.616   0.857  53.475  1.00  0.00     0.012 A 
ENDBRANCH   1  20
TORSDOF 3
ENDMDL
MODEL 5
REMARK VINA RESULT:      -9.2      3.819      4.652
REMARK  3 active torsions:
REMARK  status: ('A' for Active; 'I' for Inactive)
REMARK    1  A    between atoms: C7_7  and  C8_8 
REMARK    2  A    between atoms: C11_11  and  C12_12 
REMARK    3  A    between atoms: C12_12  and  C13_13 
ROOT
HETATM    1  C8  UNL     1      25.599  -0.369  53.924  1.00  0.00    -0.029 A 
HETATM    2  C9  UNL     1      24.587  -0.004  53.177  1.00  0.00     0.027 A 
HETATM    3  C10 UNL     1      23.177  -0.210  53.401  1.00  0.00     0.035 A 
HETATM    4  C11 UNL     1      22.209   0.248  52.556  1.00  0.00     0.054 A 
HETATM    5  N1  UNL     1      20.902   0.014  52.881  1.00  0.00    -0.245 NA
HETATM    6  C19 UNL     1      20.559  -0.655  54.008  1.00  0.00     0.235 A 
HETATM    7  N2  UNL     1      21.500  -1.126  54.874  1.00  0.00    -0.224 NA
HETATM    8  C20 UNL     1      22.770  -0.880  54.528  1.00  0.00     0.137 A 
HETATM    9  N3  UNL     1      23.871  -1.279  55.314  1.00  0.00    -0.370 N 
HETATM   10  C21 UNL     1      25.265  -1.064  55.219  1.00  0.00     0.160 A 
HETATM   11  H16 UNL     1      23.700  -1.864  56.175  1.00  0.00     0.161 HD
ENDROOT
BRANCH   4  12
HETATM   12  C12 UNL     1      22.429   0.960  51.313  1.00  0.00     0.099 C 
BRANCH  12  13
HETATM   13  C13 UNL     1      21.979   2.359  51.263  1.00  0.00    -0.051 A 
HETATM   14  C14 UNL     1      22.828   3.086  52.087  1.00  0.00     0.007 A 
HETATM   15  C15 UNL     1      22.684   4.471  52.257  1.00  0.00     0.002 A 
HETATM   16  C16 UNL     1      21.673   5.162  51.595  1.00  0.00     0.019 A 
HETATM   17  C17 UNL     1      20.831   4.424  50.774  1.00  0.00     0.011 A 
HETATM   18 BR1  UNL     1      19.386   5.157  49.774  1.00  0.00    -0.051 Br
HETATM   19  C18 UNL     1      21.002   3.069  50.630  1.00  0.00     0.026 A 
ENDBRANCH  12  13
ENDBRANCH   4  12
BRANCH   1  20
HETATM   20  C7  UNL     1      27.012  -0.171  53.695  1.00  0.00    -0.022 A 
HETATM   21  C2  UNL     1      27.823   0.932  53.729  1.00  0.00    -0.051 A 
HETATM   22  C1  UNL     1      27.159   2.244  53.875  1.00  0.00     0.049 C 
HETATM   23  C3  UNL     1      29.178   0.956  53.583  1.00  0.00     0.007 A 
HETATM   24  C4  UNL     1      29.859  -0.214  53.376  1.00  0.00     0.001 A 
HETATM   25  C5  UNL     1      29.138  -1.372  53.322  1.00  0.00     0.001 A 
HETATM   26  C6  UNL     1      27.788  -1.321  53.477  1.00  0.00     0.012 A 
ENDBRANCH   1  20
TORSDOF 3
ENDMDL
MODEL 6
REMARK VINA RESULT:      -9.1      3.021      5.790
REMARK  3 active torsions:
REMARK  status: ('A' for Active; 'I' for Inactive)
REMARK    1  A    between atoms: C7_7  and  C8_8 
REMARK    2  A    between atoms: C11_11  and  C12_12 
REMARK    3  A    between atoms: C12_12  and  C13_13 
ROOT
HETATM    1  C8  UNL     1      22.979  -0.201  53.337  1.00  0.00    -0.029 A 
HETATM    2  C9  UNL     1      24.071   0.196  52.731  1.00  0.00     0.027 A 
HETATM    3  C10 UNL     1      25.435   0.145  53.200  1.00  0.00     0.035 A 
HETATM    4  C11 UNL     1      26.498   0.567  52.457  1.00  0.00     0.054 A 
HETATM    5  N1  UNL     1      27.749   0.451  52.995  1.00  0.00    -0.245 NA
HETATM    6  C19 UNL     1      27.947  -0.066  54.231  1.00  0.00     0.235 A 
HETATM    7  N2  UNL     1      26.907  -0.496  54.999  1.00  0.00    -0.224 NA
HETATM    8  C20 UNL     1      25.695  -0.370  54.445  1.00  0.00     0.137 A 
HETATM    9  N3  UNL     1      24.509  -0.779  55.090  1.00  0.00    -0.370 N 
HETATM   10  C21 UNL     1      23.153  -0.839  54.692  1.00  0.00     0.160 A 
HETATM   11  H16 UNL     1      24.561  -1.132  56.083  1.00  0.00     0.161 HD
ENDROOT
BRANCH   4  12
HETATM   12  C12 UNL     1      26.435   1.153  51.132  1.00  0.00     0.099 C 
BRANCH  12  13
HETATM   13  C13 UNL     1      25.779   2.463  51.019  1.00  0.00    -0.051 A 
HETATM   14  C14 UNL     1      26.463   3.173  50.040  1.00  0.00     0.007 A 
HETATM   15  C15 UNL     1      26.083   4.472  49.670  1.00  0.00     0.002 A 
HETATM   16  C16 UNL     1      24.997   5.091  50.280  1.00  0.00     0.019 A 
HETATM   17  C17 UNL     1      24.321   4.371  51.257  1.00  0.00     0.011 A 
HETATM   18 BR1  UNL     1      22.811   5.016  52.221  1.00  0.00    -0.051 Br
HETATM   19  C18 UNL     1      24.720   3.101  51.594  1.00  0.00     0.026 A 
ENDBRANCH  12  13
ENDBRANCH   4  12
BRANCH   1  20
HETATM   20  C7  UNL     1      21.613  -0.143  52.870  1.00  0.00    -0.022 A 
HETATM   21  C2  UNL     1      21.036   0.289  51.707  1.00  0.00    -0.051 A 
HETATM   22  C1  UNL     1      21.913   0.989  50.746  1.00  0.00     0.049 C 
HETATM   23  C3  UNL     1      19.721   0.193  51.361  1.00  0.00     0.007 A 
HETATM   24  C4  UNL     1      18.831  -0.384  52.228  1.00  0.00     0.001 A 
HETATM   25  C5  UNL     1      19.309  -0.844  53.420  1.00  0.00     0.001 A 
HETATM   26  C6  UNL     1      20.634  -0.716  53.698  1.00  0.00     0.012 A 
ENDBRANCH   1  20
TORSDOF 3
ENDMDL
MODEL 7
REMARK VINA RESULT:      -9.0      2.357      5.215
REMARK  3 active torsions:
REMARK  status: ('A' for Active; 'I' for Inactive)
REMARK    1  A    between atoms: C7_7  and  C8_8 
REMARK    2  A    between atoms: C11_11  and  C12_12 
REMARK    3  A    between atoms: C12_12  and  C13_13 
ROOT
HETATM    1  C8  UNL     1      23.028   1.290  51.914  1.00  0.00    -0.029 A 
HETATM    2  C9  UNL     1      24.110   1.775  51.358  1.00  0.00     0.027 A 
HETATM    3  C10 UNL     1      25.424   1.943  51.932  1.00  0.00     0.035 A 
HETATM    4  C11 UNL     1      26.488   2.436  51.235  1.00  0.00     0.054 A 
HETATM    5  N1  UNL     1      27.692   2.531  51.874  1.00  0.00    -0.245 NA
HETATM    6  C19 UNL     1      27.843   2.151  53.166  1.00  0.00     0.235 A 
HETATM    7  N2  UNL     1      26.802   1.655  53.891  1.00  0.00    -0.224 NA
HETATM    8  C20 UNL     1      25.636   1.574  53.236  1.00  0.00     0.137 A 
HETATM    9  N3  UNL     1      24.458   1.069  53.825  1.00  0.00    -0.370 N 
HETATM   10  C21 UNL     1      23.160   0.799  53.333  1.00  0.00     0.160 A 
HETATM   11  H16 UNL     1      24.467   0.812  54.849  1.00  0.00     0.161 HD
ENDROOT
BRANCH   4  12
HETATM   12  C12 UNL     1      26.469   2.894  49.859  1.00  0.00     0.099 C 
BRANCH  12  13
HETATM   13  C13 UNL     1      26.346   4.343  49.646  1.00  0.00    -0.051 A 
HETATM   14  C14 UNL     1      27.392   4.719  48.814  1.00  0.00     0.007 A 
HETATM   15  C15 UNL     1      27.563   6.048  48.396  1.00  0.00     0.002 A 
HETATM   16  C16 UNL     1      26.677   7.036  48.811  1.00  0.00     0.019 A 
HETATM   17  C17 UNL     1      25.635   6.649  49.643  1.00  0.00     0.011 A 
HETATM   18 BR1  UNL     1      24.308   7.829  50.331  1.00  0.00    -0.051 Br
HETATM   19  C18 UNL     1      25.497   5.338  50.031  1.00  0.00     0.026 A 
ENDBRANCH  12  13
ENDBRANCH   4  12
BRANCH   1  20
HETATM   20  C7  UNL     1      21.711   1.130  51.343  1.00  0.00    -0.022 A 
HETATM   21  C2  UNL     1      21.205   1.312  50.083  1.00  0.00    -0.051 A 
HETATM   22  C1  UNL     1      22.098   1.944  49.091  1.00  0.00     0.049 C 
HETATM   23  C3  UNL     1      19.942   1.024  49.659  1.00  0.00     0.007 A 
HETATM   24  C4  UNL     1      19.035   0.497  50.539  1.00  0.00     0.001 A 
HETATM   25  C5  UNL     1      19.441   0.280  51.823  1.00  0.00     0.001 A 
HETATM   26  C6  UNL     1      20.718   0.590  52.176  1.00  0.00     0.012 A 
ENDBRANCH   1  20
TORSDOF 3
ENDMDL
MODEL 8
REMARK VINA RESULT:      -8.9      3.723      6.801
REMARK  3 active torsions:
REMARK  status: ('A' for Active; 'I' for Inactive)
REMARK    1  A    between atoms: C7_7  and  C8_8 
REMARK    2  A    between atoms: C11_11  and  C12_12 
REMARK    3  A    between atoms: C12_12  and  C13_13 
ROOT
HETATM    1  C8  UNL     1      22.020   1.005  51.477  1.00  0.00    -0.029 A 
HETATM    2  C9  UNL     1      23.190   1.379  51.930  1.00  0.00     0.027 A 
HETATM    3  C10 UNL     1      24.209   2.158  51.270  1.00  0.00     0.035 A 
HETATM    4  C11 UNL     1      25.385   2.511  51.864  1.00  0.00     0.054 A 
HETATM    5  N1  UNL     1      26.269   3.271  51.149  1.00  0.00    -0.245 NA
HETATM    6  C19 UNL     1      26.001   3.671  49.883  1.00  0.00     0.235 A 
HETATM    7  N2  UNL     1      24.837   3.335  49.260  1.00  0.00    -0.224 NA
HETATM    8  C20 UNL     1      23.992   2.592  49.986  1.00  0.00     0.137 A 
HETATM    9  N3  UNL     1      22.735   2.169  49.506  1.00  0.00    -0.370 N 
HETATM   10  C21 UNL     1      21.651   1.476  50.093  1.00  0.00     0.160 A 
HETATM   11  H16 UNL     1      22.471   2.377  48.507  1.00  0.00     0.161 HD
ENDROOT
BRANCH   4  12
HETATM   12  C12 UNL     1      25.810   2.143  53.200  1.00  0.00     0.099 C 
BRANCH  12  13
HETATM   13  C13 UNL     1      26.952   1.222  53.301  1.00  0.00    -0.051 A 
HETATM   14  C14 UNL     1      28.037   1.971  53.738  1.00  0.00     0.007 A 
HETATM   15  C15 UNL     1      29.296   1.390  53.955  1.00  0.00     0.002 A 
HETATM   16  C16 UNL     1      29.492   0.030  53.736  1.00  0.00     0.019 A 
HETATM   17  C17 UNL     1      28.400  -0.708  53.299  1.00  0.00     0.011 A 
HETATM   18 BR1  UNL     1      28.437  -2.577  52.936  1.00  0.00    -0.051 Br
HETATM   19  C18 UNL     1      27.181  -0.106  53.098  1.00  0.00     0.026 A 
ENDBRANCH  12  13
ENDBRANCH   4  12
BRANCH   1  20
HETATM   20  C7  UNL     1      21.003   0.218  52.135  1.00  0.00    -0.022 A 
HETATM   21  C2  UNL     1      21.002  -0.564  53.259  1.00  0.00    -0.051 A 
HETATM   22  C1  UNL     1      22.311  -0.823  53.892  1.00  0.00     0.049 C 
HETATM   23  C3  UNL     1      19.927  -1.181  53.826  1.00  0.00     0.007 A 
HETATM   24  C4  UNL     1      18.688  -1.044  53.257  1.00  0.00     0.001 A 
HETATM   25  C5  UNL     1      18.584  -0.284  52.129  1.00  0.00     0.001 A 
HETATM   26  C6  UNL     1      19.700   0.303  51.619  1.00  0.00     0.012 A 
ENDBRANCH   1  20
TORSDOF 3
ENDMDL
MODEL 9
REMARK VINA RESULT:      -8.9      3.819      7.003
REMARK  3 active torsions:
REMARK  status: ('A' for Active; 'I' for Inactive)
REMARK    1  A    between atoms: C7_7  and  C8_8 
REMARK    2  A    between atoms: C11_11  and  C12_12 
REMARK    3  A    between atoms: C12_12  and  C13_13 
ROOT
HETATM    1  C8  UNL     1      24.348   5.421  49.337  1.00  0.00    -0.029 A 
HETATM    2  C9  UNL     1      23.648   4.335  49.551  1.00  0.00     0.027 A 
HETATM    3  C10 UNL     1      22.251   4.211  49.890  1.00  0.00     0.035 A 
HETATM    4  C11 UNL     1      21.624   3.012  50.060  1.00  0.00     0.054 A 
HETATM    5  N1  UNL     1      20.290   3.015  50.359  1.00  0.00    -0.245 NA
HETATM    6  C19 UNL     1      19.594   4.170  50.488  1.00  0.00     0.235 A 
HETATM    7  N2  UNL     1      20.189   5.384  50.326  1.00  0.00    -0.224 NA
HETATM    8  C20 UNL     1      21.494   5.348  50.033  1.00  0.00     0.137 A 
HETATM    9  N3  UNL     1      22.266   6.508  49.815  1.00  0.00    -0.370 N 
HETATM   10  C21 UNL     1      23.603   6.729  49.410  1.00  0.00     0.160 A 
HETATM   11  H16 UNL     1      21.821   7.454  49.960  1.00  0.00     0.161 HD
ENDROOT
BRANCH   4  12
HETATM   12  C12 UNL     1      22.244   1.704  49.969  1.00  0.00     0.099 C 
BRANCH  12  13
HETATM   13  C13 UNL     1      22.526   1.015  51.236  1.00  0.00    -0.051 A 
HETATM   14  C14 UNL     1      23.821   1.356  51.601  1.00  0.00     0.007 A 
HETATM   15  C15 UNL     1      24.406   0.874  52.783  1.00  0.00     0.002 A 
HETATM   16  C16 UNL     1      23.694   0.032  53.630  1.00  0.00     0.019 A 
HETATM   17  C17 UNL     1      22.399  -0.302  53.254  1.00  0.00     0.011 A 
HETATM   18 BR1  UNL     1      21.243  -1.435  54.256  1.00  0.00    -0.051 Br
HETATM   19  C18 UNL     1      21.858   0.189  52.091  1.00  0.00     0.026 A 
ENDBRANCH  12  13
ENDBRANCH   4  12
BRANCH   1  20
HETATM   20  C7  UNL     1      25.748   5.544  49.005  1.00  0.00    -0.022 A 
HETATM   21  C2  UNL     1      26.797   4.665  49.017  1.00  0.00    -0.051 A 
HETATM   22  C1  UNL     1      26.551   3.342  49.627  1.00  0.00     0.049 C 
HETATM   23  C3  UNL     1      28.067   4.898  48.578  1.00  0.00     0.007 A 
HETATM   24  C4  UNL     1      28.391   6.124  48.061  1.00  0.00     0.001 A 
HETATM   25  C5  UNL     1      27.413   7.074  48.007  1.00  0.00     0.001 A 
HETATM   26  C6  UNL     1      26.167   6.770  48.463  1.00  0.00     0.012 A 
ENDBRANCH   1  20
TORSDOF 3
ENDMDL
