MODEL 1
REMARK VINA RESULT:      -8.2      0.000      0.000
REMARK  5 active torsions:
REMARK  status: ('A' for Active; 'I' for Inactive)
REMARK    1  A    between atoms: N1_2  and  C2_3 
REMARK    2  A    between atoms: N1_2  and  C3_5 
REMARK    3  A    between atoms: C3_5  and  C4_6 
REMARK    4  A    between atoms: C4_6  and  N2_7 
REMARK    5  A    between atoms: N2_7  and  C5_8 
ROOT
HETATM    1  C5  UNL     1      26.025   3.334  49.885  1.00  0.00     0.200 A 
HETATM    2  C6  UNL     1      24.770   2.921  49.851  1.00  0.00     0.184 A 
HETATM    3  F1  UNL     1      25.404   3.703  48.962  1.00  0.00    -0.350 F 
HETATM    4  C7  UNL     1      23.480   2.910  49.174  1.00  0.00     0.041 C 
HETATM    5  C8  UNL     1      22.547   2.176  49.806  1.00  0.00     0.115 C 
HETATM    6  N3  UNL     1      21.965   1.350  50.774  1.00  0.00    -0.272 NA
HETATM    7  C9  UNL     1      21.582   1.724  51.961  1.00  0.00     0.130 C 
HETATM    8  C10 UNL     1      21.040   0.540  52.618  1.00  0.00     0.009 A 
HETATM    9  C11 UNL     1      19.671   0.352  52.633  1.00  0.00     0.015 A 
HETATM   10  C12 UNL     1      18.977  -0.732  53.205  1.00  0.00     0.001 A 
HETATM   11  C13 UNL     1      19.762  -1.696  53.812  1.00  0.00     0.002 A 
HETATM   12  C14 UNL     1      21.147  -1.514  53.803  1.00  0.00     0.032 A 
HETATM   13  C15 UNL     1      21.798  -0.434  53.229  1.00  0.00     0.059 A 
HETATM   14  N4  UNL     1      23.193  -0.623  53.452  1.00  0.00    -0.298 N 
HETATM   15  N5  UNL     1      24.162   0.181  54.050  1.00  0.00    -0.284 N 
HETATM   16  C16 UNL     1      25.234   0.886  53.448  1.00  0.00     0.137 A 
HETATM   17  C17 UNL     1      26.398   0.871  54.066  1.00  0.00     0.141 A 
HETATM   18  N6  UNL     1      27.374   1.616  53.353  1.00  0.00    -0.344 N 
HETATM   19  C18 UNL     1      28.772   1.970  53.487  1.00  0.00     0.157 C 
HETATM   20  C19 UNL     1      26.734   2.123  52.201  1.00  0.00     0.109 A 
HETATM   21  C20 UNL     1      26.774   2.848  51.065  1.00  0.00     0.087 C 
HETATM   22  N7  UNL     1      25.393   1.659  52.273  1.00  0.00    -0.326 N 
HETATM   23  H17 UNL     1      23.674  -1.497  53.153  1.00  0.00     0.187 HD
HETATM   24  H18 UNL     1      23.933   0.159  55.052  1.00  0.00     0.188 HD
HETATM   25  H24 UNL     1      24.471   1.640  51.833  1.00  0.00     0.169 HD
ENDROOT
BRANCH   1  26
HETATM   26  N2  UNL     1      26.898   4.146  49.075  1.00  0.00    -0.382 N 
HETATM   27  H9  UNL     1      27.681   3.634  48.544  1.00  0.00     0.156 HD
BRANCH  26  28
HETATM   28  C4  UNL     1      26.892   5.543  48.840  1.00  0.00     0.137 C 
BRANCH  28  29
HETATM   29  C3  UNL     1      28.127   6.123  48.239  1.00  0.00     0.141 C 
BRANCH  29  30
HETATM   30  N1  UNL     1      28.008   7.577  48.162  1.00  0.00    -0.384 N 
HETATM   31  C1  UNL     1      27.391   8.119  46.949  1.00  0.00     0.149 C 
BRANCH  30  32
HETATM   32  C2  UNL     1      28.333   8.734  48.963  1.00  0.00     0.167 C 
HETATM   33  S1  UNL     1      27.239   9.216  50.097  1.00  0.00    -0.074 SA
ENDBRANCH  30  32
ENDBRANCH  29  30
ENDBRANCH  28  29
ENDBRANCH  26  28
ENDBRANCH   1  26
TORSDOF 5
ENDMDL
MODEL 2
REMARK VINA RESULT:      -8.2      3.857      6.046
REMARK  5 active torsions:
REMARK  status: ('A' for Active; 'I' for Inactive)
REMARK    1  A    between atoms: N1_2  and  C2_3 
REMARK    2  A    between atoms: N1_2  and  C3_5 
REMARK    3  A    between atoms: C3_5  and  C4_6 
REMARK    4  A    between atoms: C4_6  and  N2_7 
REMARK    5  A    between atoms: N2_7  and  C5_8 
ROOT
HETATM    1  C5  UNL     1      24.571   2.534  53.014  1.00  0.00     0.200 A 
HETATM    2  C6  UNL     1      23.580   1.661  53.040  1.00  0.00     0.184 A 
HETATM    3  F1  UNL     1      24.836   1.494  53.484  1.00  0.00    -0.350 F 
HETATM    4  C7  UNL     1      23.100   0.330  53.387  1.00  0.00     0.041 C 
HETATM    5  C8  UNL     1      21.806   0.127  53.080  1.00  0.00     0.115 C 
HETATM    6  N3  UNL     1      20.517   0.388  52.602  1.00  0.00    -0.272 NA
HETATM    7  C9  UNL     1      20.165   0.424  51.349  1.00  0.00     0.130 C 
HETATM    8  C10 UNL     1      18.738   0.731  51.324  1.00  0.00     0.009 A 
HETATM    9  C11 UNL     1      17.836  -0.304  51.173  1.00  0.00     0.015 A 
HETATM   10  C12 UNL     1      16.432  -0.197  51.140  1.00  0.00     0.001 A 
HETATM   11  C13 UNL     1      15.923   1.083  51.273  1.00  0.00     0.002 A 
HETATM   12  C14 UNL     1      16.828   2.135  51.426  1.00  0.00     0.032 A 
HETATM   13  C15 UNL     1      18.206   1.994  51.455  1.00  0.00     0.059 A 
HETATM   14  N4  UNL     1      18.754   3.300  51.609  1.00  0.00    -0.298 N 
HETATM   15  N5  UNL     1      19.682   4.020  50.858  1.00  0.00    -0.284 N 
HETATM   16  C16 UNL     1      21.020   4.360  51.179  1.00  0.00     0.137 A 
HETATM   17  C17 UNL     1      21.431   5.574  50.873  1.00  0.00     0.141 A 
HETATM   18  N6  UNL     1      22.786   5.774  51.250  1.00  0.00    -0.344 N 
HETATM   19  C18 UNL     1      23.777   6.829  51.195  1.00  0.00     0.157 C 
HETATM   20  C19 UNL     1      23.225   4.566  51.835  1.00  0.00     0.109 A 
HETATM   21  C20 UNL     1      24.199   3.834  52.413  1.00  0.00     0.087 C 
HETATM   22  N7  UNL     1      22.109   3.689  51.784  1.00  0.00    -0.326 N 
HETATM   23  H17 UNL     1      18.468   3.916  52.399  1.00  0.00     0.187 HD
HETATM   24  H18 UNL     1      19.182   4.262  49.993  1.00  0.00     0.188 HD
HETATM   25  H24 UNL     1      21.742   2.760  52.001  1.00  0.00     0.169 HD
ENDROOT
BRANCH   1  26
HETATM   26  N2  UNL     1      25.954   2.582  53.418  1.00  0.00    -0.382 N 
HETATM   27  H9  UNL     1      26.164   3.023  54.376  1.00  0.00     0.156 HD
BRANCH  26  28
HETATM   28  C4  UNL     1      27.118   2.120  52.754  1.00  0.00     0.137 C 
BRANCH  28  29
HETATM   29  C3  UNL     1      28.400   2.225  53.509  1.00  0.00     0.141 C 
BRANCH  29  30
HETATM   30  N1  UNL     1      28.886   0.891  53.852  1.00  0.00    -0.384 N 
HETATM   31  C1  UNL     1      28.208   0.214  54.960  1.00  0.00     0.149 C 
BRANCH  30  32
HETATM   32  C2  UNL     1      29.900  -0.038  53.414  1.00  0.00     0.167 C 
HETATM   33  S1  UNL     1      29.521  -1.642  53.404  1.00  0.00    -0.074 SA
ENDBRANCH  30  32
ENDBRANCH  29  30
ENDBRANCH  28  29
ENDBRANCH  26  28
ENDBRANCH   1  26
TORSDOF 5
ENDMDL
MODEL 3
REMARK VINA RESULT:      -8.1      3.631      7.045
REMARK  5 active torsions:
REMARK  status: ('A' for Active; 'I' for Inactive)
REMARK    1  A    between atoms: N1_2  and  C2_3 
REMARK    2  A    between atoms: N1_2  and  C3_5 
REMARK    3  A    between atoms: C3_5  and  C4_6 
REMARK    4  A    between atoms: C4_6  and  N2_7 
REMARK    5  A    between atoms: N2_7  and  C5_8 
ROOT
HETATM    1  C5  UNL     1      25.128   1.127  52.004  1.00  0.00     0.200 A 
HETATM    2  C6  UNL     1      25.226   2.287  51.380  1.00  0.00     0.184 A 
HETATM    3  F1  UNL     1      26.191   1.374  51.577  1.00  0.00    -0.350 F 
HETATM    4  C7  UNL     1      26.050   3.248  50.659  1.00  0.00     0.041 C 
HETATM    5  C8  UNL     1      25.380   4.348  50.272  1.00  0.00     0.115 C 
HETATM    6  N3  UNL     1      24.316   5.241  50.101  1.00  0.00    -0.272 NA
HETATM    7  C9  UNL     1      23.826   6.023  51.020  1.00  0.00     0.130 C 
HETATM    8  C10 UNL     1      22.737   6.769  50.397  1.00  0.00     0.009 A 
HETATM    9  C11 UNL     1      22.979   8.052  49.946  1.00  0.00     0.015 A 
HETATM   10  C12 UNL     1      22.057   8.908  49.314  1.00  0.00     0.001 A 
HETATM   11  C13 UNL     1      20.784   8.396  49.135  1.00  0.00     0.002 A 
HETATM   12  C14 UNL     1      20.530   7.100  49.589  1.00  0.00     0.032 A 
HETATM   13  C15 UNL     1      21.463   6.283  50.208  1.00  0.00     0.059 A 
HETATM   14  N4  UNL     1      20.800   5.062  50.525  1.00  0.00    -0.298 N 
HETATM   15  N5  UNL     1      20.637   4.369  51.723  1.00  0.00    -0.284 N 
HETATM   16  C16 UNL     1      21.230   3.151  52.140  1.00  0.00     0.137 A 
HETATM   17  C17 UNL     1      20.464   2.286  52.775  1.00  0.00     0.141 A 
HETATM   18  N6  UNL     1      21.187   1.116  53.131  1.00  0.00    -0.344 N 
HETATM   19  C18 UNL     1      20.940  -0.141  53.806  1.00  0.00     0.157 C 
HETATM   20  C19 UNL     1      22.507   1.300  52.664  1.00  0.00     0.109 A 
HETATM   21  C20 UNL     1      23.772   0.852  52.530  1.00  0.00     0.087 C 
HETATM   22  N7  UNL     1      22.520   2.578  52.046  1.00  0.00    -0.326 N 
HETATM   23  H17 UNL     1      20.310   4.508  49.792  1.00  0.00     0.187 HD
HETATM   24  H18 UNL     1      19.977   4.942  52.266  1.00  0.00     0.188 HD
HETATM   25  H24 UNL     1      23.071   3.281  51.549  1.00  0.00     0.169 HD
ENDROOT
BRANCH   1  26
HETATM   26  N2  UNL     1      25.991   0.019  52.328  1.00  0.00    -0.382 N 
HETATM   27  H9  UNL     1      26.467  -0.482  51.504  1.00  0.00     0.156 HD
BRANCH  26  28
HETATM   28  C4  UNL     1      26.342  -0.531  53.587  1.00  0.00     0.137 C 
BRANCH  28  29
HETATM   29  C3  UNL     1      27.030   0.383  54.543  1.00  0.00     0.141 C 
BRANCH  29  30
HETATM   30  N1  UNL     1      28.266   0.886  53.948  1.00  0.00    -0.384 N 
HETATM   31  C1  UNL     1      28.372   2.339  53.791  1.00  0.00     0.149 C 
BRANCH  30  32
HETATM   32  C2  UNL     1      29.508   0.366  53.426  1.00  0.00     0.167 C 
HETATM   33  S1  UNL     1      29.859  -1.219  53.713  1.00  0.00    -0.074 SA
ENDBRANCH  30  32
ENDBRANCH  29  30
ENDBRANCH  28  29
ENDBRANCH  26  28
ENDBRANCH   1  26
TORSDOF 5
ENDMDL
MODEL 4
REMARK VINA RESULT:      -8.1      3.958      5.465
REMARK  5 active torsions:
REMARK  status: ('A' for Active; 'I' for Inactive)
REMARK    1  A    between atoms: N1_2  and  C2_3 
REMARK    2  A    between atoms: N1_2  and  C3_5 
REMARK    3  A    between atoms: C3_5  and  C4_6 
REMARK    4  A    between atoms: C4_6  and  N2_7 
REMARK    5  A    between atoms: N2_7  and  C5_8 
ROOT
HETATM    1  C5  UNL     1      23.947   1.431  51.596  1.00  0.00     0.200 A 
HETATM    2  C6  UNL     1      22.779   1.611  51.003  1.00  0.00     0.184 A 
HETATM    3  F1  UNL     1      23.974   2.106  50.639  1.00  0.00    -0.350 F 
HETATM    4  C7  UNL     1      22.010   2.217  49.926  1.00  0.00     0.041 C 
HETATM    5  C8  UNL     1      20.700   1.916  49.964  1.00  0.00     0.115 C 
HETATM    6  N3  UNL     1      19.499   1.351  50.407  1.00  0.00    -0.272 NA
HETATM    7  C9  UNL     1      18.799   1.757  51.427  1.00  0.00     0.130 C 
HETATM    8  C10 UNL     1      17.637   0.879  51.514  1.00  0.00     0.009 A 
HETATM    9  C11 UNL     1      16.436   1.306  50.981  1.00  0.00     0.015 A 
HETATM   10  C12 UNL     1      15.222   0.591  50.963  1.00  0.00     0.001 A 
HETATM   11  C13 UNL     1      15.255  -0.664  51.544  1.00  0.00     0.002 A 
HETATM   12  C14 UNL     1      16.465  -1.104  52.086  1.00  0.00     0.032 A 
HETATM   13  C15 UNL     1      17.642  -0.373  52.086  1.00  0.00     0.059 A 
HETATM   14  N4  UNL     1      18.624  -1.169  52.744  1.00  0.00    -0.298 N 
HETATM   15  N5  UNL     1      19.451  -0.919  53.838  1.00  0.00    -0.284 N 
HETATM   16  C16 UNL     1      20.852  -0.705  53.870  1.00  0.00     0.137 A 
HETATM   17  C17 UNL     1      21.534  -1.277  54.843  1.00  0.00     0.141 A 
HETATM   18  N6  UNL     1      22.920  -0.977  54.750  1.00  0.00    -0.344 N 
HETATM   19  C18 UNL     1      24.139  -1.280  55.470  1.00  0.00     0.157 C 
HETATM   20  C19 UNL     1      23.079  -0.150  53.617  1.00  0.00     0.109 A 
HETATM   21  C20 UNL     1      23.872   0.573  52.800  1.00  0.00     0.087 C 
HETATM   22  N7  UNL     1      21.777   0.012  53.075  1.00  0.00    -0.326 N 
HETATM   23  H17 UNL     1      18.836  -2.138  52.426  1.00  0.00     0.187 HD
HETATM   24  H18 UNL     1      18.816  -0.919  54.647  1.00  0.00     0.188 HD
HETATM   25  H24 UNL     1      21.203   0.433  52.341  1.00  0.00     0.169 HD
ENDROOT
BRANCH   1  26
HETATM   26  N2  UNL     1      25.314   1.843  51.397  1.00  0.00    -0.382 N 
HETATM   27  H9  UNL     1      25.469   2.769  50.873  1.00  0.00     0.156 HD
BRANCH  26  28
HETATM   28  C4  UNL     1      26.524   1.224  51.799  1.00  0.00     0.137 C 
BRANCH  28  29
HETATM   29  C3  UNL     1      27.350   1.964  52.796  1.00  0.00     0.141 C 
BRANCH  29  30
HETATM   30  N1  UNL     1      28.128   1.021  53.596  1.00  0.00    -0.384 N 
HETATM   31  C1  UNL     1      27.403   0.304  54.648  1.00  0.00     0.149 C 
BRANCH  30  32
HETATM   32  C2  UNL     1      29.486   0.539  53.685  1.00  0.00     0.167 C 
HETATM   33  S1  UNL     1      29.728  -1.090  53.626  1.00  0.00    -0.074 SA
ENDBRANCH  30  32
ENDBRANCH  29  30
ENDBRANCH  28  29
ENDBRANCH  26  28
ENDBRANCH   1  26
TORSDOF 5
ENDMDL
MODEL 5
REMARK VINA RESULT:      -8.1      4.949      8.578
REMARK  5 active torsions:
REMARK  status: ('A' for Active; 'I' for Inactive)
REMARK    1  A    between atoms: N1_2  and  C2_3 
REMARK    2  A    between atoms: N1_2  and  C3_5 
REMARK    3  A    between atoms: C3_5  and  C4_6 
REMARK    4  A    between atoms: C4_6  and  N2_7 
REMARK    5  A    between atoms: N2_7  and  C5_8 
ROOT
HETATM    1  C5  UNL     1      19.071   3.339  51.392  1.00  0.00     0.200 A 
HETATM    2  C6  UNL     1      19.752   2.242  51.671  1.00  0.00     0.184 A 
HETATM    3  F1  UNL     1      18.421   2.377  51.551  1.00  0.00    -0.350 F 
HETATM    4  C7  UNL     1      19.750   0.818  51.978  1.00  0.00     0.041 C 
HETATM    5  C8  UNL     1      20.979   0.305  52.162  1.00  0.00     0.115 C 
HETATM    6  N3  UNL     1      22.374   0.250  52.258  1.00  0.00    -0.272 NA
HETATM    7  C9  UNL     1      23.084   0.685  53.260  1.00  0.00     0.130 C 
HETATM    8  C10 UNL     1      24.480   0.423  52.928  1.00  0.00     0.009 A 
HETATM    9  C11 UNL     1      25.092  -0.699  53.453  1.00  0.00     0.015 A 
HETATM   10  C12 UNL     1      26.420  -1.114  53.232  1.00  0.00     0.001 A 
HETATM   11  C13 UNL     1      27.174  -0.302  52.403  1.00  0.00     0.002 A 
HETATM   12  C14 UNL     1      26.564   0.835  51.869  1.00  0.00     0.032 A 
HETATM   13  C15 UNL     1      25.253   1.214  52.107  1.00  0.00     0.059 A 
HETATM   14  N4  UNL     1      25.035   2.429  51.394  1.00  0.00    -0.298 N 
HETATM   15  N5  UNL     1      24.591   3.686  51.801  1.00  0.00    -0.284 N 
HETATM   16  C16 UNL     1      23.351   4.323  51.543  1.00  0.00     0.137 A 
HETATM   17  C17 UNL     1      23.375   5.607  51.250  1.00  0.00     0.141 A 
HETATM   18  N6  UNL     1      22.067   6.111  51.016  1.00  0.00    -0.344 N 
HETATM   19  C18 UNL     1      21.441   7.370  50.670  1.00  0.00     0.157 C 
HETATM   20  C19 UNL     1      21.180   5.025  51.186  1.00  0.00     0.109 A 
HETATM   21  C20 UNL     1      19.925   4.532  51.198  1.00  0.00     0.087 C 
HETATM   22  N7  UNL     1      21.997   3.911  51.516  1.00  0.00    -0.326 N 
HETATM   23  H17 UNL     1      25.218   2.494  50.371  1.00  0.00     0.187 HD
HETATM   24  H18 UNL     1      25.372   4.072  52.348  1.00  0.00     0.188 HD
HETATM   25  H24 UNL     1      22.033   2.916  51.747  1.00  0.00     0.169 HD
ENDROOT
BRANCH   1  26
HETATM   26  N2  UNL     1      17.691   3.716  51.215  1.00  0.00    -0.382 N 
HETATM   27  H9  UNL     1      17.474   4.401  50.415  1.00  0.00     0.156 HD
BRANCH  26  28
HETATM   28  C4  UNL     1      16.534   3.314  51.928  1.00  0.00     0.137 C 
BRANCH  28  29
HETATM   29  C3  UNL     1      15.787   4.387  52.644  1.00  0.00     0.141 C 
BRANCH  29  30
HETATM   30  N1  UNL     1      14.467   3.899  53.036  1.00  0.00    -0.384 N 
HETATM   31  C1  UNL     1      14.213   2.470  52.838  1.00  0.00     0.149 C 
BRANCH  30  32
HETATM   32  C2  UNL     1      13.242   4.419  53.597  1.00  0.00     0.167 C 
HETATM   33  S1  UNL     1      12.142   3.338  54.176  1.00  0.00    -0.074 SA
ENDBRANCH  30  32
ENDBRANCH  29  30
ENDBRANCH  28  29
ENDBRANCH  26  28
ENDBRANCH   1  26
TORSDOF 5
ENDMDL
MODEL 6
REMARK VINA RESULT:      -7.8      1.940      4.004
REMARK  5 active torsions:
REMARK  status: ('A' for Active; 'I' for Inactive)
REMARK    1  A    between atoms: N1_2  and  C2_3 
REMARK    2  A    between atoms: N1_2  and  C3_5 
REMARK    3  A    between atoms: C3_5  and  C4_6 
REMARK    4  A    between atoms: C4_6  and  N2_7 
REMARK    5  A    between atoms: N2_7  and  C5_8 
ROOT
HETATM    1  C5  UNL     1      26.320   4.352  49.469  1.00  0.00     0.200 A 
HETATM    2  C6  UNL     1      26.216   3.447  50.427  1.00  0.00     0.184 A 
HETATM    3  F1  UNL     1      27.338   3.966  49.902  1.00  0.00    -0.350 F 
HETATM    4  C7  UNL     1      26.870   2.558  51.377  1.00  0.00     0.041 C 
HETATM    5  C8  UNL     1      26.010   1.845  52.126  1.00  0.00     0.115 C 
HETATM    6  N3  UNL     1      24.794   1.365  52.624  1.00  0.00    -0.272 NA
HETATM    7  C9  UNL     1      24.015   0.508  52.028  1.00  0.00     0.130 C 
HETATM    8  C10 UNL     1      22.868   0.303  52.907  1.00  0.00     0.009 A 
HETATM    9  C11 UNL     1      22.850  -0.804  53.733  1.00  0.00     0.015 A 
HETATM   10  C12 UNL     1      21.839  -1.153  54.649  1.00  0.00     0.001 A 
HETATM   11  C13 UNL     1      20.761  -0.287  54.715  1.00  0.00     0.002 A 
HETATM   12  C14 UNL     1      20.771   0.835  53.883  1.00  0.00     0.032 A 
HETATM   13  C15 UNL     1      21.785   1.148  52.992  1.00  0.00     0.059 A 
HETATM   14  N4  UNL     1      21.401   2.352  52.333  1.00  0.00    -0.298 N 
HETATM   15  N5  UNL     1      21.255   2.676  50.985  1.00  0.00    -0.284 N 
HETATM   16  C16 UNL     1      22.065   3.510  50.173  1.00  0.00     0.137 A 
HETATM   17  C17 UNL     1      21.455   4.320  49.332  1.00  0.00     0.141 A 
HETATM   18  N6  UNL     1      22.386   5.092  48.587  1.00  0.00    -0.344 N 
HETATM   19  C18 UNL     1      22.365   6.111  47.558  1.00  0.00     0.157 C 
HETATM   20  C19 UNL     1      23.672   4.706  49.025  1.00  0.00     0.109 A 
HETATM   21  C20 UNL     1      25.014   4.815  48.949  1.00  0.00     0.087 C 
HETATM   22  N7  UNL     1      23.456   3.714  50.018  1.00  0.00    -0.326 N 
HETATM   23  H17 UNL     1      21.158   3.209  52.873  1.00  0.00     0.187 HD
HETATM   24  H18 UNL     1      20.412   2.168  50.687  1.00  0.00     0.188 HD
HETATM   25  H24 UNL     1      23.881   3.068  50.687  1.00  0.00     0.169 HD
ENDROOT
BRANCH   1  26
HETATM   26  N2  UNL     1      27.375   5.039  48.768  1.00  0.00    -0.382 N 
HETATM   27  H9  UNL     1      28.146   4.428  48.333  1.00  0.00     0.156 HD
BRANCH  26  28
HETATM   28  C4  UNL     1      27.567   6.424  48.532  1.00  0.00     0.137 C 
BRANCH  28  29
HETATM   29  C3  UNL     1      28.695   6.794  47.631  1.00  0.00     0.141 C 
BRANCH  29  30
HETATM   30  N1  UNL     1      29.875   7.131  48.423  1.00  0.00    -0.384 N 
HETATM   31  C1  UNL     1      30.805   6.036  48.709  1.00  0.00     0.149 C 
BRANCH  30  32
HETATM   32  C2  UNL     1      30.458   8.288  49.061  1.00  0.00     0.167 C 
HETATM   33  S1  UNL     1      29.532   9.645  49.187  1.00  0.00    -0.074 SA
ENDBRANCH  30  32
ENDBRANCH  29  30
ENDBRANCH  28  29
ENDBRANCH  26  28
ENDBRANCH   1  26
TORSDOF 5
ENDMDL
MODEL 7
REMARK VINA RESULT:      -7.7      4.204      8.420
REMARK  5 active torsions:
REMARK  status: ('A' for Active; 'I' for Inactive)
REMARK    1  A    between atoms: N1_2  and  C2_3 
REMARK    2  A    between atoms: N1_2  and  C3_5 
REMARK    3  A    between atoms: C3_5  and  C4_6 
REMARK    4  A    between atoms: C4_6  and  N2_7 
REMARK    5  A    between atoms: N2_7  and  C5_8 
ROOT
HETATM    1  C5  UNL     1      20.303   0.500  52.451  1.00  0.00     0.200 A 
HETATM    2  C6  UNL     1      21.415  -0.081  52.867  1.00  0.00     0.184 A 
HETATM    3  F1  UNL     1      20.187  -0.619  52.780  1.00  0.00    -0.350 F 
HETATM    4  C7  UNL     1      22.081  -1.267  53.387  1.00  0.00     0.041 C 
HETATM    5  C8  UNL     1      23.398  -1.094  53.598  1.00  0.00     0.115 C 
HETATM    6  N3  UNL     1      24.645  -0.460  53.647  1.00  0.00    -0.272 NA
HETATM    7  C9  UNL     1      25.020   0.408  54.543  1.00  0.00     0.130 C 
HETATM    8  C10 UNL     1      26.384   0.799  54.200  1.00  0.00     0.009 A 
HETATM    9  C11 UNL     1      27.437   0.201  54.865  1.00  0.00     0.015 A 
HETATM   10  C12 UNL     1      28.808   0.443  54.657  1.00  0.00     0.001 A 
HETATM   11  C13 UNL     1      29.114   1.380  53.686  1.00  0.00     0.002 A 
HETATM   12  C14 UNL     1      28.056   1.991  53.010  1.00  0.00     0.032 A 
HETATM   13  C15 UNL     1      26.715   1.727  53.239  1.00  0.00     0.059 A 
HETATM   14  N4  UNL     1      25.971   2.565  52.359  1.00  0.00    -0.298 N 
HETATM   15  N5  UNL     1      24.964   3.502  52.587  1.00  0.00    -0.284 N 
HETATM   16  C16 UNL     1      23.582   3.421  52.284  1.00  0.00     0.137 A 
HETATM   17  C17 UNL     1      22.999   4.499  51.798  1.00  0.00     0.141 A 
HETATM   18  N6  UNL     1      21.620   4.273  51.542  1.00  0.00    -0.344 N 
HETATM   19  C18 UNL     1      20.482   5.011  51.033  1.00  0.00     0.157 C 
HETATM   20  C19 UNL     1      21.355   2.936  51.910  1.00  0.00     0.109 A 
HETATM   21  C20 UNL     1      20.489   1.911  52.046  1.00  0.00     0.087 C 
HETATM   22  N7  UNL     1      22.592   2.414  52.372  1.00  0.00    -0.326 N 
HETATM   23  H17 UNL     1      26.140   2.554  51.331  1.00  0.00     0.187 HD
HETATM   24  H18 UNL     1      25.443   4.293  53.038  1.00  0.00     0.188 HD
HETATM   25  H24 UNL     1      23.090   1.605  52.751  1.00  0.00     0.169 HD
ENDROOT
BRANCH   1  26
HETATM   26  N2  UNL     1      18.918   0.139  52.274  1.00  0.00    -0.382 N 
HETATM   27  H9  UNL     1      18.571  -0.728  52.807  1.00  0.00     0.156 HD
BRANCH  26  28
HETATM   28  C4  UNL     1      17.902   0.760  51.505  1.00  0.00     0.137 C 
BRANCH  28  29
HETATM   29  C3  UNL     1      16.496   0.479  51.911  1.00  0.00     0.141 C 
BRANCH  29  30
HETATM   30  N1  UNL     1      15.652   1.634  51.614  1.00  0.00    -0.384 N 
HETATM   31  C1  UNL     1      14.846   1.558  50.393  1.00  0.00     0.149 C 
BRANCH  30  32
HETATM   32  C2  UNL     1      15.339   2.923  52.185  1.00  0.00     0.167 C 
HETATM   33  S1  UNL     1      16.323   4.190  51.809  1.00  0.00    -0.074 SA
ENDBRANCH  30  32
ENDBRANCH  29  30
ENDBRANCH  28  29
ENDBRANCH  26  28
ENDBRANCH   1  26
TORSDOF 5
ENDMDL
MODEL 8
REMARK VINA RESULT:      -7.7      3.885      8.649
REMARK  5 active torsions:
REMARK  status: ('A' for Active; 'I' for Inactive)
REMARK    1  A    between atoms: N1_2  and  C2_3 
REMARK    2  A    between atoms: N1_2  and  C3_5 
REMARK    3  A    between atoms: C3_5  and  C4_6 
REMARK    4  A    between atoms: C4_6  and  N2_7 
REMARK    5  A    between atoms: N2_7  and  C5_8 
ROOT
HETATM    1  C5  UNL     1      21.676   1.685  52.753  1.00  0.00     0.200 A 
HETATM    2  C6  UNL     1      21.672   2.804  52.049  1.00  0.00     0.184 A 
HETATM    3  F1  UNL     1      20.645   2.241  52.707  1.00  0.00    -0.350 F 
HETATM    4  C7  UNL     1      20.936   3.951  51.537  1.00  0.00     0.041 C 
HETATM    5  C8  UNL     1      21.687   4.787  50.799  1.00  0.00     0.115 C 
HETATM    6  N3  UNL     1      22.812   5.311  50.151  1.00  0.00    -0.272 NA
HETATM    7  C9  UNL     1      23.322   4.867  49.038  1.00  0.00     0.130 C 
HETATM    8  C10 UNL     1      24.476   5.710  48.742  1.00  0.00     0.009 A 
HETATM    9  C11 UNL     1      24.332   6.747  47.841  1.00  0.00     0.015 A 
HETATM   10  C12 UNL     1      25.327   7.662  47.446  1.00  0.00     0.001 A 
HETATM   11  C13 UNL     1      26.569   7.491  48.032  1.00  0.00     0.002 A 
HETATM   12  C14 UNL     1      26.724   6.445  48.944  1.00  0.00     0.032 A 
HETATM   13  C15 UNL     1      25.721   5.561  49.310  1.00  0.00     0.059 A 
HETATM   14  N4  UNL     1      26.294   4.647  50.242  1.00  0.00    -0.298 N 
HETATM   15  N5  UNL     1      26.374   3.255  50.258  1.00  0.00    -0.284 N 
HETATM   16  C16 UNL     1      25.691   2.330  51.087  1.00  0.00     0.137 A 
HETATM   17  C17 UNL     1      26.379   1.308  51.556  1.00  0.00     0.141 A 
HETATM   18  N6  UNL     1      25.570   0.467  52.367  1.00  0.00    -0.344 N 
HETATM   19  C18 UNL     1      25.714  -0.751  53.137  1.00  0.00     0.157 C 
HETATM   20  C19 UNL     1      24.280   1.041  52.384  1.00  0.00     0.109 A 
HETATM   21  C20 UNL     1      22.994   1.013  52.788  1.00  0.00     0.087 C 
HETATM   22  N7  UNL     1      24.370   2.207  51.579  1.00  0.00    -0.326 N 
HETATM   23  H17 UNL     1      26.770   4.983  51.105  1.00  0.00     0.187 HD
HETATM   24  H18 UNL     1      27.052   3.026  49.520  1.00  0.00     0.188 HD
HETATM   25  H24 UNL     1      23.881   3.017  51.190  1.00  0.00     0.169 HD
ENDROOT
BRANCH   1  26
HETATM   26  N2  UNL     1      20.733   0.911  53.521  1.00  0.00    -0.382 N 
HETATM   27  H9  UNL     1      20.520   1.255  54.517  1.00  0.00     0.156 HD
BRANCH  26  28
HETATM   28  C4  UNL     1      20.006  -0.254  53.171  1.00  0.00     0.137 C 
BRANCH  28  29
HETATM   29  C3  UNL     1      18.964  -0.096  52.116  1.00  0.00     0.141 C 
BRANCH  29  30
HETATM   30  N1  UNL     1      17.758  -0.829  52.494  1.00  0.00    -0.384 N 
HETATM   31  C1  UNL     1      17.929  -1.911  53.466  1.00  0.00     0.149 C 
BRANCH  30  32
HETATM   32  C2  UNL     1      16.347  -0.825  52.188  1.00  0.00     0.167 C 
HETATM   33  S1  UNL     1      15.538  -2.258  52.270  1.00  0.00    -0.074 SA
ENDBRANCH  30  32
ENDBRANCH  29  30
ENDBRANCH  28  29
ENDBRANCH  26  28
ENDBRANCH   1  26
TORSDOF 5
ENDMDL
MODEL 9
REMARK VINA RESULT:      -7.7      3.145      8.422
REMARK  5 active torsions:
REMARK  status: ('A' for Active; 'I' for Inactive)
REMARK    1  A    between atoms: N1_2  and  C2_3 
REMARK    2  A    between atoms: N1_2  and  C3_5 
REMARK    3  A    between atoms: C3_5  and  C4_6 
REMARK    4  A    between atoms: C4_6  and  N2_7 
REMARK    5  A    between atoms: N2_7  and  C5_8 
ROOT
HETATM    1  C5  UNL     1      24.257   1.902  51.650  1.00  0.00     0.200 A 
HETATM    2  C6  UNL     1      25.126   2.579  50.920  1.00  0.00     0.184 A 
HETATM    3  F1  UNL     1      25.346   1.471  51.647  1.00  0.00    -0.350 F 
HETATM    4  C7  UNL     1      26.489   2.732  50.431  1.00  0.00     0.041 C 
HETATM    5  C8  UNL     1      26.654   3.791  49.618  1.00  0.00     0.115 C 
HETATM    6  N3  UNL     1      26.337   4.936  48.879  1.00  0.00    -0.272 NA
HETATM    7  C9  UNL     1      26.148   6.128  49.369  1.00  0.00     0.130 C 
HETATM    8  C10 UNL     1      25.842   7.001  48.240  1.00  0.00     0.009 A 
HETATM    9  C11 UNL     1      26.850   7.776  47.702  1.00  0.00     0.015 A 
HETATM   10  C12 UNL     1      26.740   8.660  46.612  1.00  0.00     0.001 A 
HETATM   11  C13 UNL     1      25.487   8.749  46.033  1.00  0.00     0.002 A 
HETATM   12  C14 UNL     1      24.460   7.970  46.571  1.00  0.00     0.032 A 
HETATM   13  C15 UNL     1      24.604   7.108  47.646  1.00  0.00     0.059 A 
HETATM   14  N4  UNL     1      23.326   6.524  47.884  1.00  0.00    -0.298 N 
HETATM   15  N5  UNL     1      22.520   6.466  49.020  1.00  0.00    -0.284 N 
HETATM   16  C16 UNL     1      22.221   5.356  49.849  1.00  0.00     0.137 A 
HETATM   17  C17 UNL     1      20.978   5.224  50.267  1.00  0.00     0.141 A 
HETATM   18  N6  UNL     1      20.826   4.073  51.086  1.00  0.00    -0.344 N 
HETATM   19  C18 UNL     1      19.772   3.402  51.818  1.00  0.00     0.157 C 
HETATM   20  C19 UNL     1      22.096   3.461  51.162  1.00  0.00     0.109 A 
HETATM   21  C20 UNL     1      22.893   2.478  51.628  1.00  0.00     0.087 C 
HETATM   22  N7  UNL     1      22.960   4.274  50.383  1.00  0.00    -0.326 N 
HETATM   23  H17 UNL     1      22.811   6.026  47.127  1.00  0.00     0.187 HD
HETATM   24  H18 UNL     1      22.174   7.427  49.140  1.00  0.00     0.188 HD
HETATM   25  H24 UNL     1      23.909   4.421  50.031  1.00  0.00     0.169 HD
ENDROOT
BRANCH   1  26
HETATM   26  N2  UNL     1      24.257   0.727  52.484  1.00  0.00    -0.382 N 
HETATM   27  H9  UNL     1      23.717  -0.127  52.118  1.00  0.00     0.156 HD
BRANCH  26  28
HETATM   28  C4  UNL     1      24.880   0.494  53.736  1.00  0.00     0.137 C 
BRANCH  28  29
HETATM   29  C3  UNL     1      25.441  -0.870  53.956  1.00  0.00     0.141 C 
BRANCH  29  30
HETATM   30  N1  UNL     1      26.738  -0.987  53.296  1.00  0.00    -0.384 N 
HETATM   31  C1  UNL     1      26.928  -2.153  52.430  1.00  0.00     0.149 C 
BRANCH  30  32
HETATM   32  C2  UNL     1      27.986  -0.263  53.222  1.00  0.00     0.167 C 
HETATM   33  S1  UNL     1      28.705   0.176  54.638  1.00  0.00    -0.074 SA
ENDBRANCH  30  32
ENDBRANCH  29  30
ENDBRANCH  28  29
ENDBRANCH  26  28
ENDBRANCH   1  26
TORSDOF 5
ENDMDL
