MODEL 1
REMARK VINA RESULT:      -7.2      0.000      0.000
REMARK  6 active torsions:
REMARK  status: ('A' for Active; 'I' for Inactive)
REMARK    1  A    between atoms: C2_2  and  O1_3 
REMARK    2  A    between atoms: O1_3  and  C3_4 
REMARK    3  A    between atoms: C3_4  and  C4_5 
REMARK    4  A    between atoms: N1_8  and  C7_9 
REMARK    5  A    between atoms: C10_13  and  N3_14 
REMARK    6  A    between atoms: N3_14  and  C11_15 
ROOT
HETATM    1  C7  UNL     1      22.886   0.584  52.947  1.00  0.00     0.731 A 
HETATM    2  N2  UNL     1      21.820   0.100  53.628  1.00  0.00    -0.075 NA
HETATM    3  C8  UNL     1      21.945  -0.751  54.660  1.00  0.00     0.140 A 
HETATM    4  C9  UNL     1      23.189  -1.172  55.075  1.00  0.00     0.071 A 
HETATM    5  C10 UNL     1      24.284  -0.689  54.393  1.00  0.00     0.148 A 
HETATM    6  N4  UNL     1      24.073   0.155  53.376  1.00  0.00    -0.045 NA
ENDROOT
BRANCH   5   7
HETATM    7  N3  UNL     1      25.699  -0.919  54.548  1.00  0.00    -0.344 N 
HETATM    8  H13 UNL     1      25.870  -1.644  55.277  1.00  0.00     0.167 HD
BRANCH   7   9
HETATM    9  C11 UNL     1      26.835  -0.364  53.921  1.00  0.00     0.012 C 
HETATM   10  C12 UNL     1      27.418   0.766  54.283  1.00  0.00     0.025 C 
HETATM   11  C13 UNL     1      28.628   1.417  53.661  1.00  0.00     0.204 C 
HETATM   12  O2  UNL     1      29.722   0.488  53.686  1.00  0.00    -0.360 OA
HETATM   13  C14 UNL     1      29.631  -0.901  53.558  1.00  0.00     0.131 C 
HETATM   14  C15 UNL     1      28.661  -1.716  53.189  1.00  0.00     0.003 C 
HETATM   15  C16 UNL     1      27.293  -1.230  52.788  1.00  0.00     0.086 C 
ENDBRANCH   7   9
ENDBRANCH   5   7
BRANCH   1  16
HETATM   16  N1  UNL     1      22.729   1.491  51.853  1.00  0.00    -0.179 N 
HETATM   17  C4  UNL     1      23.001   2.894  51.625  1.00  0.00     0.155 A 
HETATM   18  C5  UNL     1      22.441   2.522  50.272  1.00  0.00     0.019 A 
HETATM   19  C6  UNL     1      22.218   1.247  50.539  1.00  0.00     0.108 A 
BRANCH  17  20
HETATM   20  C3  UNL     1      24.460   3.251  51.555  1.00  0.00     0.198 C 
BRANCH  20  21
HETATM   21  O1  UNL     1      25.301   2.268  51.134  1.00  0.00    -0.389 OA
BRANCH  21  22
HETATM   22  C2  UNL     1      26.560   2.740  50.811  1.00  0.00     0.163 C 
HETATM   23  C1  UNL     1      26.546   3.565  49.541  1.00  0.00     0.033 C 
ENDBRANCH  21  22
ENDBRANCH  20  21
ENDBRANCH  17  20
ENDBRANCH   1  16
TORSDOF 6
ENDMDL
MODEL 2
REMARK VINA RESULT:      -7.0      1.608      5.219
REMARK  6 active torsions:
REMARK  status: ('A' for Active; 'I' for Inactive)
REMARK    1  A    between atoms: C2_2  and  O1_3 
REMARK    2  A    between atoms: O1_3  and  C3_4 
REMARK    3  A    between atoms: C3_4  and  C4_5 
REMARK    4  A    between atoms: N1_8  and  C7_9 
REMARK    5  A    between atoms: C10_13  and  N3_14 
REMARK    6  A    between atoms: N3_14  and  C11_15 
ROOT
HETATM    1  C7  UNL     1      25.180  -0.412  54.109  1.00  0.00     0.731 A 
HETATM    2  N2  UNL     1      25.013  -1.006  55.315  1.00  0.00    -0.075 NA
HETATM    3  C8  UNL     1      23.821  -1.456  55.742  1.00  0.00     0.140 A 
HETATM    4  C9  UNL     1      22.700  -1.328  54.954  1.00  0.00     0.071 A 
HETATM    5  C10 UNL     1      22.852  -0.727  53.724  1.00  0.00     0.148 A 
HETATM    6  N4  UNL     1      24.073  -0.306  53.374  1.00  0.00    -0.045 NA
ENDROOT
BRANCH   5   7
HETATM    7  N3  UNL     1      21.914  -0.430  52.669  1.00  0.00    -0.344 N 
HETATM    8  H13 UNL     1      21.519  -1.311  52.278  1.00  0.00     0.167 HD
BRANCH   7   9
HETATM    9  C11 UNL     1      21.461   0.781  52.102  1.00  0.00     0.012 C 
HETATM   10  C12 UNL     1      20.880   1.758  52.777  1.00  0.00     0.025 C 
HETATM   11  C13 UNL     1      20.372   3.071  52.240  1.00  0.00     0.204 C 
HETATM   12  O2  UNL     1      21.450   3.754  51.581  1.00  0.00    -0.360 OA
HETATM   13  C14 UNL     1      22.496   3.158  50.872  1.00  0.00     0.131 C 
HETATM   14  C15 UNL     1      22.708   1.935  50.426  1.00  0.00     0.003 C 
HETATM   15  C16 UNL     1      21.727   0.809  50.628  1.00  0.00     0.086 C 
ENDBRANCH   7   9
ENDBRANCH   5   7
BRANCH   1  16
HETATM   16  N1  UNL     1      26.459   0.056  53.674  1.00  0.00    -0.179 N 
HETATM   17  C4  UNL     1      26.983   0.660  52.468  1.00  0.00     0.155 A 
HETATM   18  C5  UNL     1      28.243   0.625  53.302  1.00  0.00     0.019 A 
HETATM   19  C6  UNL     1      27.705   0.073  54.375  1.00  0.00     0.108 A 
BRANCH  17  20
HETATM   20  C3  UNL     1      26.514   2.066  52.210  1.00  0.00     0.198 C 
BRANCH  20  21
HETATM   21  O1  UNL     1      27.155   2.741  51.217  1.00  0.00    -0.389 OA
BRANCH  21  22
HETATM   22  C2  UNL     1      26.338   3.004  50.133  1.00  0.00     0.163 C 
HETATM   23  C1  UNL     1      26.848   4.168  49.310  1.00  0.00     0.033 C 
ENDBRANCH  21  22
ENDBRANCH  20  21
ENDBRANCH  17  20
ENDBRANCH   1  16
TORSDOF 6
ENDMDL
MODEL 3
REMARK VINA RESULT:      -7.0      1.960      4.304
REMARK  6 active torsions:
REMARK  status: ('A' for Active; 'I' for Inactive)
REMARK    1  A    between atoms: C2_2  and  O1_3 
REMARK    2  A    between atoms: O1_3  and  C3_4 
REMARK    3  A    between atoms: C3_4  and  C4_5 
REMARK    4  A    between atoms: N1_8  and  C7_9 
REMARK    5  A    between atoms: C10_13  and  N3_14 
REMARK    6  A    between atoms: N3_14  and  C11_15 
ROOT
HETATM    1  C7  UNL     1      23.983   3.193  51.081  1.00  0.00     0.731 A 
HETATM    2  N2  UNL     1      24.243   3.756  49.876  1.00  0.00    -0.075 NA
HETATM    3  C8  UNL     1      25.484   3.842  49.369  1.00  0.00     0.140 A 
HETATM    4  C9  UNL     1      26.563   3.351  50.069  1.00  0.00     0.071 A 
HETATM    5  C10 UNL     1      26.317   2.775  51.296  1.00  0.00     0.148 A 
HETATM    6  N4  UNL     1      25.051   2.729  51.729  1.00  0.00    -0.045 NA
ENDROOT
BRANCH   5   7
HETATM    7  N3  UNL     1      27.189   2.179  52.278  1.00  0.00    -0.344 N 
HETATM    8  H13 UNL     1      27.888   2.876  52.612  1.00  0.00     0.167 HD
BRANCH   7   9
HETATM    9  C11 UNL     1      27.261   0.885  52.837  1.00  0.00     0.012 C 
HETATM   10  C12 UNL     1      26.800  -0.212  52.260  1.00  0.00     0.025 C 
HETATM   11  C13 UNL     1      26.840  -1.620  52.796  1.00  0.00     0.204 C 
HETATM   12  O2  UNL     1      28.203  -1.973  53.076  1.00  0.00    -0.360 OA
HETATM   13  C14 UNL     1      29.206  -1.109  53.527  1.00  0.00     0.131 C 
HETATM   14  C15 UNL     1      29.196   0.119  54.006  1.00  0.00     0.003 C 
HETATM   15  C16 UNL     1      27.931   0.921  54.176  1.00  0.00     0.086 C 
ENDBRANCH   7   9
ENDBRANCH   5   7
BRANCH   1  16
HETATM   16  N1  UNL     1      22.653   3.109  51.600  1.00  0.00    -0.179 N 
HETATM   17  C4  UNL     1      21.721   2.041  51.887  1.00  0.00     0.155 A 
HETATM   18  C5  UNL     1      20.887   3.226  52.315  1.00  0.00     0.019 A 
HETATM   19  C6  UNL     1      21.782   4.157  52.035  1.00  0.00     0.108 A 
BRANCH  17  20
HETATM   20  C3  UNL     1      22.101   1.166  53.050  1.00  0.00     0.198 C 
BRANCH  20  21
HETATM   21  O1  UNL     1      22.997   0.176  52.791  1.00  0.00    -0.389 OA
BRANCH  21  22
HETATM   22  C2  UNL     1      22.892  -0.887  53.670  1.00  0.00     0.163 C 
HETATM   23  C1  UNL     1      21.809  -0.660  54.704  1.00  0.00     0.033 C 
ENDBRANCH  21  22
ENDBRANCH  20  21
ENDBRANCH  17  20
ENDBRANCH   1  16
TORSDOF 6
ENDMDL
MODEL 4
REMARK VINA RESULT:      -6.8      1.723      5.673
REMARK  6 active torsions:
REMARK  status: ('A' for Active; 'I' for Inactive)
REMARK    1  A    between atoms: C2_2  and  O1_3 
REMARK    2  A    between atoms: O1_3  and  C3_4 
REMARK    3  A    between atoms: C3_4  and  C4_5 
REMARK    4  A    between atoms: N1_8  and  C7_9 
REMARK    5  A    between atoms: C10_13  and  N3_14 
REMARK    6  A    between atoms: N3_14  and  C11_15 
ROOT
HETATM    1  C7  UNL     1      24.839  -0.055  53.882  1.00  0.00     0.731 A 
HETATM    2  N2  UNL     1      25.009  -0.777  55.015  1.00  0.00    -0.075 NA
HETATM    3  C8  UNL     1      24.002  -1.439  55.610  1.00  0.00     0.140 A 
HETATM    4  C9  UNL     1      22.732  -1.408  55.079  1.00  0.00     0.071 A 
HETATM    5  C10 UNL     1      22.542  -0.679  53.926  1.00  0.00     0.148 A 
HETATM    6  N4  UNL     1      23.597  -0.048  53.397  1.00  0.00    -0.045 NA
ENDROOT
BRANCH   5   7
HETATM    7  N3  UNL     1      21.372  -0.429  53.121  1.00  0.00    -0.344 N 
HETATM    8  H13 UNL     1      20.738  -1.256  53.137  1.00  0.00     0.167 HD
BRANCH   7   9
HETATM    9  C11 UNL     1      20.955   0.680  52.354  1.00  0.00     0.012 C 
HETATM   10  C12 UNL     1      20.508   1.818  52.857  1.00  0.00     0.025 C 
HETATM   11  C13 UNL     1      20.046   3.039  52.102  1.00  0.00     0.204 C 
HETATM   12  O2  UNL     1      21.105   3.481  51.239  1.00  0.00    -0.360 OA
HETATM   13  C14 UNL     1      22.038   2.667  50.590  1.00  0.00     0.131 C 
HETATM   14  C15 UNL     1      22.121   1.367  50.388  1.00  0.00     0.003 C 
HETATM   15  C16 UNL     1      21.086   0.393  50.890  1.00  0.00     0.086 C 
ENDBRANCH   7   9
ENDBRANCH   5   7
BRANCH   1  16
HETATM   16  N1  UNL     1      25.926   0.640  53.264  1.00  0.00    -0.179 N 
HETATM   17  C4  UNL     1      27.082   1.373  53.729  1.00  0.00     0.155 A 
HETATM   18  C5  UNL     1      27.286   1.501  52.237  1.00  0.00     0.019 A 
HETATM   19  C6  UNL     1      26.214   0.818  51.874  1.00  0.00     0.108 A 
BRANCH  17  20
HETATM   20  C3  UNL     1      28.147   0.531  54.376  1.00  0.00     0.198 C 
BRANCH  20  21
HETATM   21  O1  UNL     1      29.330   0.441  53.709  1.00  0.00    -0.389 OA
BRANCH  21  22
HETATM   22  C2  UNL     1      29.877  -0.829  53.755  1.00  0.00     0.163 C 
HETATM   23  C1  UNL     1      28.949  -1.866  53.158  1.00  0.00     0.033 C 
ENDBRANCH  21  22
ENDBRANCH  20  21
ENDBRANCH  17  20
ENDBRANCH   1  16
TORSDOF 6
ENDMDL
MODEL 5
REMARK VINA RESULT:      -6.7      2.494      5.330
REMARK  6 active torsions:
REMARK  status: ('A' for Active; 'I' for Inactive)
REMARK    1  A    between atoms: C2_2  and  O1_3 
REMARK    2  A    between atoms: O1_3  and  C3_4 
REMARK    3  A    between atoms: C3_4  and  C4_5 
REMARK    4  A    between atoms: N1_8  and  C7_9 
REMARK    5  A    between atoms: C10_13  and  N3_14 
REMARK    6  A    between atoms: N3_14  and  C11_15 
ROOT
HETATM    1  C7  UNL     1      24.529   0.098  53.362  1.00  0.00     0.731 A 
HETATM    2  N2  UNL     1      25.475  -0.867  53.449  1.00  0.00    -0.075 NA
HETATM    3  C8  UNL     1      26.734  -0.689  53.014  1.00  0.00     0.140 A 
HETATM    4  C9  UNL     1      27.119   0.508  52.452  1.00  0.00     0.071 A 
HETATM    5  C10 UNL     1      26.169   1.501  52.357  1.00  0.00     0.148 A 
HETATM    6  N4  UNL     1      24.937   1.242  52.814  1.00  0.00    -0.045 NA
ENDROOT
BRANCH   5   7
HETATM    7  N3  UNL     1      26.220   2.843  51.831  1.00  0.00    -0.344 N 
HETATM    8  H13 UNL     1      26.758   3.462  52.474  1.00  0.00     0.167 HD
BRANCH   7   9
HETATM    9  C11 UNL     1      25.698   3.435  50.661  1.00  0.00     0.012 C 
HETATM   10  C12 UNL     1      24.566   4.115  50.602  1.00  0.00     0.025 C 
HETATM   11  C13 UNL     1      23.949   4.771  49.393  1.00  0.00     0.204 C 
HETATM   12  O2  UNL     1      24.892   5.698  48.833  1.00  0.00    -0.360 OA
HETATM   13  C14 UNL     1      26.283   5.557  48.820  1.00  0.00     0.131 C 
HETATM   14  C15 UNL     1      27.095   4.551  49.079  1.00  0.00     0.003 C 
HETATM   15  C16 UNL     1      26.602   3.188  49.492  1.00  0.00     0.086 C 
ENDBRANCH   7   9
ENDBRANCH   5   7
BRANCH   1  16
HETATM   16  N1  UNL     1      23.195  -0.113  53.834  1.00  0.00    -0.179 N 
HETATM   17  C4  UNL     1      21.895   0.451  53.546  1.00  0.00     0.155 A 
HETATM   18  C5  UNL     1      21.504  -0.562  54.597  1.00  0.00     0.019 A 
HETATM   19  C6  UNL     1      22.717  -1.038  54.815  1.00  0.00     0.108 A 
BRANCH  17  20
HETATM   20  C3  UNL     1      21.342   0.102  52.191  1.00  0.00     0.198 C 
BRANCH  20  21
HETATM   21  O1  UNL     1      21.690   0.929  51.168  1.00  0.00    -0.389 OA
BRANCH  21  22
HETATM   22  C2  UNL     1      21.110   0.568  49.965  1.00  0.00     0.163 C 
HETATM   23  C1  UNL     1      21.489   1.518  48.848  1.00  0.00     0.033 C 
ENDBRANCH  21  22
ENDBRANCH  20  21
ENDBRANCH  17  20
ENDBRANCH   1  16
TORSDOF 6
ENDMDL
MODEL 6
REMARK VINA RESULT:      -6.6      2.934      3.813
REMARK  6 active torsions:
REMARK  status: ('A' for Active; 'I' for Inactive)
REMARK    1  A    between atoms: C2_2  and  O1_3 
REMARK    2  A    between atoms: O1_3  and  C3_4 
REMARK    3  A    between atoms: C3_4  and  C4_5 
REMARK    4  A    between atoms: N1_8  and  C7_9 
REMARK    5  A    between atoms: C10_13  and  N3_14 
REMARK    6  A    between atoms: N3_14  and  C11_15 
ROOT
HETATM    1  C7  UNL     1      23.222   4.481  51.806  1.00  0.00     0.731 A 
HETATM    2  N2  UNL     1      22.186   3.629  51.614  1.00  0.00    -0.075 NA
HETATM    3  C8  UNL     1      22.178   2.377  52.102  1.00  0.00     0.140 A 
HETATM    4  C9  UNL     1      23.245   1.901  52.832  1.00  0.00     0.071 A 
HETATM    5  C10 UNL     1      24.306   2.755  53.038  1.00  0.00     0.148 A 
HETATM    6  N4  UNL     1      24.235   3.987  52.517  1.00  0.00    -0.045 NA
ENDROOT
BRANCH   5   7
HETATM    7  N3  UNL     1      25.559   2.593  53.733  1.00  0.00    -0.344 N 
HETATM    8  H13 UNL     1      25.686   3.354  54.433  1.00  0.00     0.167 HD
BRANCH   7   9
HETATM    9  C11 UNL     1      26.591   1.634  53.638  1.00  0.00     0.012 C 
HETATM   10  C12 UNL     1      27.110   0.982  54.664  1.00  0.00     0.025 C 
HETATM   11  C13 UNL     1      28.209  -0.049  54.637  1.00  0.00     0.204 C 
HETATM   12  O2  UNL     1      27.825  -1.118  53.759  1.00  0.00    -0.360 OA
HETATM   13  C14 UNL     1      27.059  -0.998  52.595  1.00  0.00     0.131 C 
HETATM   14  C15 UNL     1      26.667   0.031  51.871  1.00  0.00     0.003 C 
HETATM   15  C16 UNL     1      27.020   1.456  52.213  1.00  0.00     0.086 C 
ENDBRANCH   7   9
ENDBRANCH   5   7
BRANCH   1  16
HETATM   16  N1  UNL     1      23.208   5.810  51.280  1.00  0.00    -0.179 N 
HETATM   17  C4  UNL     1      24.136   6.919  51.247  1.00  0.00     0.155 A 
HETATM   18  C5  UNL     1      22.978   7.536  50.496  1.00  0.00     0.019 A 
HETATM   19  C6  UNL     1      22.176   6.488  50.557  1.00  0.00     0.108 A 
BRANCH  17  20
HETATM   20  C3  UNL     1      25.337   6.712  50.366  1.00  0.00     0.198 C 
BRANCH  20  21
HETATM   21  O1  UNL     1      26.231   7.737  50.317  1.00  0.00    -0.389 OA
BRANCH  21  22
HETATM   22  C2  UNL     1      26.799   7.895  49.066  1.00  0.00     0.163 C 
HETATM   23  C1  UNL     1      26.872   6.585  48.310  1.00  0.00     0.033 C 
ENDBRANCH  21  22
ENDBRANCH  20  21
ENDBRANCH  17  20
ENDBRANCH   1  16
TORSDOF 6
ENDMDL
MODEL 7
REMARK VINA RESULT:      -6.5      2.483      6.551
REMARK  6 active torsions:
REMARK  status: ('A' for Active; 'I' for Inactive)
REMARK    1  A    between atoms: C2_2  and  O1_3 
REMARK    2  A    between atoms: O1_3  and  C3_4 
REMARK    3  A    between atoms: C3_4  and  C4_5 
REMARK    4  A    between atoms: N1_8  and  C7_9 
REMARK    5  A    between atoms: C10_13  and  N3_14 
REMARK    6  A    between atoms: N3_14  and  C11_15 
ROOT
HETATM    1  C7  UNL     1      23.878   0.099  53.514  1.00  0.00     0.731 A 
HETATM    2  N2  UNL     1      23.903  -0.844  54.486  1.00  0.00    -0.075 NA
HETATM    3  C8  UNL     1      22.793  -1.261  55.118  1.00  0.00     0.140 A 
HETATM    4  C9  UNL     1      21.562  -0.735  54.796  1.00  0.00     0.071 A 
HETATM    5  C10 UNL     1      21.519   0.225  53.809  1.00  0.00     0.148 A 
HETATM    6  N4  UNL     1      22.670   0.586  53.229  1.00  0.00    -0.045 NA
ENDROOT
BRANCH   5   7
HETATM    7  N3  UNL     1      20.430   0.977  53.237  1.00  0.00    -0.344 N 
HETATM    8  H13 UNL     1      19.665   1.095  53.936  1.00  0.00     0.167 HD
BRANCH   7   9
HETATM    9  C11 UNL     1      20.226   1.552  51.965  1.00  0.00     0.012 C 
HETATM   10  C12 UNL     1      20.111   0.869  50.839  1.00  0.00     0.025 C 
HETATM   11  C13 UNL     1      19.894   1.414  49.450  1.00  0.00     0.204 C 
HETATM   12  O2  UNL     1      18.703   2.214  49.444  1.00  0.00    -0.360 OA
HETATM   13  C14 UNL     1      18.228   2.999  50.499  1.00  0.00     0.131 C 
HETATM   14  C15 UNL     1      18.756   3.405  51.636  1.00  0.00     0.003 C 
HETATM   15  C16 UNL     1      20.157   3.046  52.061  1.00  0.00     0.086 C 
ENDBRANCH   7   9
ENDBRANCH   5   7
BRANCH   1  16
HETATM   16  N1  UNL     1      25.072   0.527  52.852  1.00  0.00    -0.179 N 
HETATM   17  C4  UNL     1      26.489   0.293  53.023  1.00  0.00     0.155 A 
HETATM   18  C5  UNL     1      26.527   1.210  51.822  1.00  0.00     0.019 A 
HETATM   19  C6  UNL     1      25.221   1.383  51.716  1.00  0.00     0.108 A 
BRANCH  17  20
HETATM   20  C3  UNL     1      26.945  -1.100  52.686  1.00  0.00     0.198 C 
BRANCH  20  21
HETATM   21  O1  UNL     1      27.977  -1.591  53.425  1.00  0.00    -0.389 OA
BRANCH  21  22
HETATM   22  C2  UNL     1      28.709  -0.597  54.050  1.00  0.00     0.163 C 
HETATM   23  C1  UNL     1      30.120  -0.511  53.510  1.00  0.00     0.033 C 
ENDBRANCH  21  22
ENDBRANCH  20  21
ENDBRANCH  17  20
ENDBRANCH   1  16
TORSDOF 6
ENDMDL
MODEL 8
REMARK VINA RESULT:      -6.5      1.873      2.518
REMARK  6 active torsions:
REMARK  status: ('A' for Active; 'I' for Inactive)
REMARK    1  A    between atoms: C2_2  and  O1_3 
REMARK    2  A    between atoms: O1_3  and  C3_4 
REMARK    3  A    between atoms: C3_4  and  C4_5 
REMARK    4  A    between atoms: N1_8  and  C7_9 
REMARK    5  A    between atoms: C10_13  and  N3_14 
REMARK    6  A    between atoms: N3_14  and  C11_15 
ROOT
HETATM    1  C7  UNL     1      22.174   2.748  51.894  1.00  0.00     0.731 A 
HETATM    2  N2  UNL     1      21.399   1.653  52.082  1.00  0.00    -0.075 NA
HETATM    3  C8  UNL     1      21.831   0.564  52.741  1.00  0.00     0.140 A 
HETATM    4  C9  UNL     1      23.104   0.519  53.262  1.00  0.00     0.071 A 
HETATM    5  C10 UNL     1      23.905   1.625  53.081  1.00  0.00     0.148 A 
HETATM    6  N4  UNL     1      23.399   2.669  52.413  1.00  0.00    -0.045 NA
ENDROOT
BRANCH   5   7
HETATM    7  N3  UNL     1      25.262   1.913  53.479  1.00  0.00    -0.344 N 
HETATM    8  H13 UNL     1      25.330   2.884  53.852  1.00  0.00     0.167 HD
BRANCH   7   9
HETATM    9  C11 UNL     1      26.451   1.154  53.452  1.00  0.00     0.012 C 
HETATM   10  C12 UNL     1      27.167   0.840  54.518  1.00  0.00     0.025 C 
HETATM   11  C13 UNL     1      28.442   0.036  54.564  1.00  0.00     0.204 C 
HETATM   12  O2  UNL     1      28.207  -1.247  53.965  1.00  0.00    -0.360 OA
HETATM   13  C14 UNL     1      27.343  -1.517  52.900  1.00  0.00     0.131 C 
HETATM   14  C15 UNL     1      26.700  -0.754  52.039  1.00  0.00     0.003 C 
HETATM   15  C16 UNL     1      26.792   0.750  52.050  1.00  0.00     0.086 C 
ENDBRANCH   7   9
ENDBRANCH   5   7
BRANCH   1  16
HETATM   16  N1  UNL     1      21.693   3.897  51.192  1.00  0.00    -0.179 N 
HETATM   17  C4  UNL     1      22.283   4.920  50.357  1.00  0.00     0.155 A 
HETATM   18  C5  UNL     1      20.841   5.371  50.329  1.00  0.00     0.019 A 
HETATM   19  C6  UNL     1      20.361   4.409  51.096  1.00  0.00     0.108 A 
BRANCH  17  20
HETATM   20  C3  UNL     1      22.753   4.443  49.010  1.00  0.00     0.198 C 
BRANCH  20  21
HETATM   21  O1  UNL     1      23.896   3.705  48.998  1.00  0.00    -0.389 OA
BRANCH  21  22
HETATM   22  C2  UNL     1      24.992   4.406  49.469  1.00  0.00     0.163 C 
HETATM   23  C1  UNL     1      26.221   3.528  49.574  1.00  0.00     0.033 C 
ENDBRANCH  21  22
ENDBRANCH  20  21
ENDBRANCH  17  20
ENDBRANCH   1  16
TORSDOF 6
ENDMDL
MODEL 9
REMARK VINA RESULT:      -6.4      1.535      2.246
REMARK  6 active torsions:
REMARK  status: ('A' for Active; 'I' for Inactive)
REMARK    1  A    between atoms: C2_2  and  O1_3 
REMARK    2  A    between atoms: O1_3  and  C3_4 
REMARK    3  A    between atoms: C3_4  and  C4_5 
REMARK    4  A    between atoms: N1_8  and  C7_9 
REMARK    5  A    between atoms: C10_13  and  N3_14 
REMARK    6  A    between atoms: N3_14  and  C11_15 
ROOT
HETATM    1  C7  UNL     1      23.283   1.778  52.568  1.00  0.00     0.731 A 
HETATM    2  N2  UNL     1      22.069   1.185  52.482  1.00  0.00    -0.075 NA
HETATM    3  C8  UNL     1      21.835  -0.056  52.941  1.00  0.00     0.140 A 
HETATM    4  C9  UNL     1      22.842  -0.788  53.529  1.00  0.00     0.071 A 
HETATM    5  C10 UNL     1      24.083  -0.199  53.625  1.00  0.00     0.148 A 
HETATM    6  N4  UNL     1      24.233   1.041  53.143  1.00  0.00    -0.045 NA
ENDROOT
BRANCH   5   7
HETATM    7  N3  UNL     1      25.337  -0.667  54.163  1.00  0.00    -0.344 N 
HETATM    8  H13 UNL     1      25.170  -1.277  54.991  1.00  0.00     0.167 HD
BRANCH   7   9
HETATM    9  C11 UNL     1      26.681  -0.454  53.786  1.00  0.00     0.012 C 
HETATM   10  C12 UNL     1      27.571   0.200  54.512  1.00  0.00     0.025 C 
HETATM   11  C13 UNL     1      29.017   0.465  54.174  1.00  0.00     0.204 C 
HETATM   12  O2  UNL     1      29.677  -0.787  53.935  1.00  0.00    -0.360 OA
HETATM   13  C14 UNL     1      29.106  -1.928  53.364  1.00  0.00     0.131 C 
HETATM   14  C15 UNL     1      27.977  -2.151  52.720  1.00  0.00     0.003 C 
HETATM   15  C16 UNL     1      26.962  -1.071  52.450  1.00  0.00     0.086 C 
ENDBRANCH   7   9
ENDBRANCH   5   7
BRANCH   1  16
HETATM   16  N1  UNL     1      23.509   3.102  52.076  1.00  0.00    -0.179 N 
HETATM   17  C4  UNL     1      24.482   3.731  51.211  1.00  0.00     0.155 A 
HETATM   18  C5  UNL     1      23.619   4.929  51.533  1.00  0.00     0.019 A 
HETATM   19  C6  UNL     1      22.760   4.297  52.313  1.00  0.00     0.108 A 
BRANCH  17  20
HETATM   20  C3  UNL     1      24.387   3.338  49.762  1.00  0.00     0.198 C 
BRANCH  20  21
HETATM   21  O1  UNL     1      23.778   4.232  48.935  1.00  0.00    -0.389 OA
BRANCH  21  22
HETATM   22  C2  UNL     1      22.701   3.689  48.258  1.00  0.00     0.163 C 
HETATM   23  C1  UNL     1      21.502   4.614  48.267  1.00  0.00     0.033 C 
ENDBRANCH  21  22
ENDBRANCH  20  21
ENDBRANCH  17  20
ENDBRANCH   1  16
TORSDOF 6
ENDMDL
