MODEL 1
REMARK VINA RESULT:      -8.4      0.000      0.000
REMARK  6 active torsions:
REMARK  status: ('A' for Active; 'I' for Inactive)
REMARK    1  A    between atoms: C2_2  and  N1_3 
REMARK    2  A    between atoms: C5_7  and  N3_8 
REMARK    3  A    between atoms: N3_8  and  C6_9 
REMARK    4  A    between atoms: C12_17  and  N5_18 
REMARK    5  A    between atoms: N5_18  and  C13_19 
REMARK    6  A    between atoms: C15_21  and  N6_22 
ROOT
HETATM    1  N1  UNL     1      27.981   0.686  53.880  1.00  0.00    -0.324 N 
HETATM    2  C3  UNL     1      27.163   0.030  54.712  1.00  0.00     0.212 A 
HETATM    3  N2  UNL     1      25.886   0.356  54.445  1.00  0.00    -0.236 NA
HETATM    4  C4  UNL     1      25.852   1.220  53.446  1.00  0.00     0.151 A 
HETATM    5  C5  UNL     1      24.815   1.828  52.819  1.00  0.00     0.180 A 
HETATM    6  N4  UNL     1      25.161   2.663  51.805  1.00  0.00    -0.043 NA
HETATM    7  C12 UNL     1      26.428   2.875  51.446  1.00  0.00     0.727 A 
HETATM    8  N7  UNL     1      27.447   2.255  52.091  1.00  0.00    -0.042 NA
HETATM    9  C16 UNL     1      27.169   1.414  53.105  1.00  0.00     0.182 A 
ENDROOT
BRANCH   5  10
HETATM   10  N3  UNL     1      23.455   1.713  53.105  1.00  0.00    -0.338 N 
HETATM   11  H7  UNL     1      22.849   2.582  53.126  1.00  0.00     0.167 HD
BRANCH  10  12
HETATM   12  C6  UNL     1      22.558   0.685  53.405  1.00  0.00     0.035 A 
HETATM   13  C7  UNL     1      22.765  -0.442  54.196  1.00  0.00     0.029 A 
HETATM   14  C8  UNL     1      21.801  -1.389  54.386  1.00  0.00     0.004 A 
HETATM   15  C9  UNL     1      20.552  -1.301  53.810  1.00  0.00     0.024 A 
HETATM   16  C10 UNL     1      20.318  -0.196  53.020  1.00  0.00     0.036 A 
HETATM   17 CL1  UNL     1      18.705  -0.145  52.311  1.00  0.00    -0.084 Cl
HETATM   18  C11 UNL     1      21.300   0.774  52.824  1.00  0.00     0.053 A 
ENDBRANCH  10  12
ENDBRANCH   5  10
BRANCH   7  19
HETATM   19  N5  UNL     1      26.720   3.781  50.360  1.00  0.00    -0.209 N 
HETATM   20  H12 UNL     1      27.693   3.834  49.999  1.00  0.00     0.179 HD
BRANCH  19  21
HETATM   21  C13 UNL     1      25.607   4.542  49.866  1.00  0.00     0.174 A 
HETATM   22  C14 UNL     1      25.964   5.605  48.925  1.00  0.00     0.032 A 
HETATM   23  C15 UNL     1      25.405   5.949  50.157  1.00  0.00     0.028 A 
BRANCH  23  24
HETATM   24  N6  UNL     1      24.914   6.810  51.175  1.00  0.00    -0.401 N 
HETATM   25  H15 UNL     1      24.877   7.849  50.980  1.00  0.00     0.156 HD
HETATM   26  H16 UNL     1      24.575   6.502  52.125  1.00  0.00     0.156 HD
ENDBRANCH  23  24
ENDBRANCH  19  21
ENDBRANCH   7  19
BRANCH   1  27
HETATM   27  C2  UNL     1      29.418   0.649  53.799  1.00  0.00     0.127 C 
HETATM   28  C1  UNL     1      29.965  -0.724  53.536  1.00  0.00     0.027 C 
ENDBRANCH   1  27
TORSDOF 6
ENDMDL
MODEL 2
REMARK VINA RESULT:      -8.1      2.482      6.947
REMARK  6 active torsions:
REMARK  status: ('A' for Active; 'I' for Inactive)
REMARK    1  A    between atoms: C2_2  and  N1_3 
REMARK    2  A    between atoms: C5_7  and  N3_8 
REMARK    3  A    between atoms: N3_8  and  C6_9 
REMARK    4  A    between atoms: C12_17  and  N5_18 
REMARK    5  A    between atoms: N5_18  and  C13_19 
REMARK    6  A    between atoms: C15_21  and  N6_22 
ROOT
HETATM    1  N1  UNL     1      23.613   0.768  52.798  1.00  0.00    -0.324 N 
HETATM    2  C3  UNL     1      22.989   1.124  51.669  1.00  0.00     0.212 A 
HETATM    3  N2  UNL     1      23.848   1.770  50.861  1.00  0.00    -0.236 NA
HETATM    4  C4  UNL     1      25.032   1.844  51.444  1.00  0.00     0.151 A 
HETATM    5  C5  UNL     1      26.204   2.384  51.031  1.00  0.00     0.180 A 
HETATM    6  N4  UNL     1      27.237   2.261  51.906  1.00  0.00    -0.043 NA
HETATM    7  C12 UNL     1      27.114   1.656  53.087  1.00  0.00     0.727 A 
HETATM    8  N7  UNL     1      25.929   1.124  53.476  1.00  0.00    -0.042 NA
HETATM    9  C16 UNL     1      24.866   1.212  52.653  1.00  0.00     0.182 A 
ENDROOT
BRANCH   5  10
HETATM   10  N3  UNL     1      26.463   3.061  49.840  1.00  0.00    -0.338 N 
HETATM   11  H7  UNL     1      26.581   2.512  48.941  1.00  0.00     0.167 HD
BRANCH  10  12
HETATM   12  C6  UNL     1      26.632   4.387  49.435  1.00  0.00     0.035 A 
HETATM   13  C7  UNL     1      27.634   4.927  48.633  1.00  0.00     0.029 A 
HETATM   14  C8  UNL     1      27.693   6.257  48.334  1.00  0.00     0.004 A 
HETATM   15  C9  UNL     1      26.767   7.164  48.802  1.00  0.00     0.024 A 
HETATM   16  C10 UNL     1      25.764   6.659  49.600  1.00  0.00     0.036 A 
HETATM   17 CL1  UNL     1      24.616   7.869  50.168  1.00  0.00    -0.084 Cl
HETATM   18  C11 UNL     1      25.699   5.301  49.908  1.00  0.00     0.053 A 
ENDBRANCH  10  12
ENDBRANCH   5  10
BRANCH   7  19
HETATM   19  N5  UNL     1      28.256   1.567  53.966  1.00  0.00    -0.209 N 
HETATM   20  H12 UNL     1      28.743   2.441  54.246  1.00  0.00     0.179 HD
BRANCH  19  21
HETATM   21  C13 UNL     1      28.619   0.242  54.384  1.00  0.00     0.174 A 
HETATM   22  C14 UNL     1      29.772  -0.325  53.683  1.00  0.00     0.032 A 
HETATM   23  C15 UNL     1      28.521  -0.925  53.526  1.00  0.00     0.028 A 
BRANCH  23  24
HETATM   24  N6  UNL     1      27.573  -1.866  53.040  1.00  0.00    -0.401 N 
HETATM   25  H15 UNL     1      27.729  -2.890  53.252  1.00  0.00     0.156 HD
HETATM   26  H16 UNL     1      26.713  -1.631  52.478  1.00  0.00     0.156 HD
ENDBRANCH  23  24
ENDBRANCH  19  21
ENDBRANCH   7  19
BRANCH   1  27
HETATM   27  C2  UNL     1      23.092   0.063  53.941  1.00  0.00     0.127 C 
HETATM   28  C1  UNL     1      21.685  -0.425  53.751  1.00  0.00     0.027 C 
ENDBRANCH   1  27
TORSDOF 6
ENDMDL
MODEL 3
REMARK VINA RESULT:      -8.1      2.694      6.493
REMARK  6 active torsions:
REMARK  status: ('A' for Active; 'I' for Inactive)
REMARK    1  A    between atoms: C2_2  and  N1_3 
REMARK    2  A    between atoms: C5_7  and  N3_8 
REMARK    3  A    between atoms: N3_8  and  C6_9 
REMARK    4  A    between atoms: C12_17  and  N5_18 
REMARK    5  A    between atoms: N5_18  and  C13_19 
REMARK    6  A    between atoms: C15_21  and  N6_22 
ROOT
HETATM    1  N1  UNL     1      28.056   0.788  53.673  1.00  0.00    -0.324 N 
HETATM    2  C3  UNL     1      28.622   1.881  53.146  1.00  0.00     0.212 A 
HETATM    3  N2  UNL     1      27.723   2.538  52.392  1.00  0.00    -0.236 NA
HETATM    4  C4  UNL     1      26.571   1.891  52.414  1.00  0.00     0.151 A 
HETATM    5  C5  UNL     1      25.379   2.157  51.826  1.00  0.00     0.180 A 
HETATM    6  N4  UNL     1      24.393   1.259  52.085  1.00  0.00    -0.043 NA
HETATM    7  C12 UNL     1      24.576   0.191  52.861  1.00  0.00     0.727 A 
HETATM    8  N7  UNL     1      25.779  -0.053  53.437  1.00  0.00    -0.042 NA
HETATM    9  C16 UNL     1      26.798   0.800  53.219  1.00  0.00     0.182 A 
ENDROOT
BRANCH   5  10
HETATM   10  N3  UNL     1      25.060   3.218  50.980  1.00  0.00    -0.338 N 
HETATM   11  H7  UNL     1      24.046   3.496  50.848  1.00  0.00     0.167 HD
BRANCH  10  12
HETATM   12  C6  UNL     1      25.752   4.120  50.169  1.00  0.00     0.035 A 
HETATM   13  C7  UNL     1      26.861   3.884  49.361  1.00  0.00     0.029 A 
HETATM   14  C8  UNL     1      27.458   4.872  48.633  1.00  0.00     0.004 A 
HETATM   15  C9  UNL     1      27.010   6.175  48.642  1.00  0.00     0.024 A 
HETATM   16  C10 UNL     1      25.913   6.439  49.433  1.00  0.00     0.036 A 
HETATM   17 CL1  UNL     1      25.391   8.122  49.404  1.00  0.00    -0.084 Cl
HETATM   18  C11 UNL     1      25.299   5.433  50.179  1.00  0.00     0.053 A 
ENDBRANCH  10  12
ENDBRANCH   5  10
BRANCH   7  19
HETATM   19  N5  UNL     1      23.481  -0.723  53.088  1.00  0.00    -0.209 N 
HETATM   20  H12 UNL     1      23.363  -1.534  52.450  1.00  0.00     0.179 HD
BRANCH  19  21
HETATM   21  C13 UNL     1      22.635  -0.416  54.208  1.00  0.00     0.174 A 
HETATM   22  C14 UNL     1      22.639  -1.424  55.269  1.00  0.00     0.032 A 
HETATM   23  C15 UNL     1      21.460  -1.190  54.561  1.00  0.00     0.028 A 
BRANCH  23  24
HETATM   24  N6  UNL     1      20.095  -1.358  54.201  1.00  0.00    -0.401 N 
HETATM   25  H15 UNL     1      19.566  -2.179  54.606  1.00  0.00     0.156 HD
HETATM   26  H16 UNL     1      19.552  -0.725  53.556  1.00  0.00     0.156 HD
ENDBRANCH  23  24
ENDBRANCH  19  21
ENDBRANCH   7  19
BRANCH   1  27
HETATM   27  C2  UNL     1      28.634  -0.208  54.537  1.00  0.00     0.127 C 
HETATM   28  C1  UNL     1      29.620  -1.102  53.842  1.00  0.00     0.027 C 
ENDBRANCH   1  27
TORSDOF 6
ENDMDL
MODEL 4
REMARK VINA RESULT:      -8.0      3.013      6.155
REMARK  6 active torsions:
REMARK  status: ('A' for Active; 'I' for Inactive)
REMARK    1  A    between atoms: C2_2  and  N1_3 
REMARK    2  A    between atoms: C5_7  and  N3_8 
REMARK    3  A    between atoms: N3_8  and  C6_9 
REMARK    4  A    between atoms: C12_17  and  N5_18 
REMARK    5  A    between atoms: N5_18  and  C13_19 
REMARK    6  A    between atoms: C15_21  and  N6_22 
ROOT
HETATM    1  N1  UNL     1      20.701  -0.428  53.164  1.00  0.00    -0.324 N 
HETATM    2  C3  UNL     1      21.030  -1.276  54.146  1.00  0.00     0.212 A 
HETATM    3  N2  UNL     1      22.357  -1.227  54.361  1.00  0.00    -0.236 NA
HETATM    4  C4  UNL     1      22.907  -0.357  53.532  1.00  0.00     0.151 A 
HETATM    5  C5  UNL     1      24.192   0.042  53.372  1.00  0.00     0.180 A 
HETATM    6  N4  UNL     1      24.390   0.982  52.411  1.00  0.00    -0.043 NA
HETATM    7  C12 UNL     1      23.397   1.481  51.674  1.00  0.00     0.727 A 
HETATM    8  N7  UNL     1      22.120   1.063  51.854  1.00  0.00    -0.042 NA
HETATM    9  C16 UNL     1      21.857   0.132  52.792  1.00  0.00     0.182 A 
ENDROOT
BRANCH   5  10
HETATM   10  N3  UNL     1      25.321  -0.410  54.054  1.00  0.00    -0.338 N 
HETATM   11  H7  UNL     1      25.208  -0.893  54.991  1.00  0.00     0.167 HD
BRANCH  10  12
HETATM   12  C6  UNL     1      26.702  -0.419  53.849  1.00  0.00     0.035 A 
HETATM   13  C7  UNL     1      27.483  -1.404  53.251  1.00  0.00     0.029 A 
HETATM   14  C8  UNL     1      28.839  -1.294  53.138  1.00  0.00     0.004 A 
HETATM   15  C9  UNL     1      29.535  -0.200  53.604  1.00  0.00     0.024 A 
HETATM   16  C10 UNL     1      28.789   0.792  54.201  1.00  0.00     0.036 A 
HETATM   17 CL1  UNL     1      29.738   2.160  54.779  1.00  0.00    -0.084 Cl
HETATM   18  C11 UNL     1      27.404   0.683  54.320  1.00  0.00     0.053 A 
ENDBRANCH  10  12
ENDBRANCH   5  10
BRANCH   7  19
HETATM   19  N5  UNL     1      23.684   2.476  50.668  1.00  0.00    -0.209 N 
HETATM   20  H12 UNL     1      24.292   2.217  49.865  1.00  0.00     0.179 HD
BRANCH  19  21
HETATM   21  C13 UNL     1      23.085   3.764  50.876  1.00  0.00     0.174 A 
HETATM   22  C14 UNL     1      23.859   4.890  50.351  1.00  0.00     0.032 A 
HETATM   23  C15 UNL     1      23.661   4.788  51.728  1.00  0.00     0.028 A 
BRANCH  23  24
HETATM   24  N6  UNL     1      23.767   5.160  53.096  1.00  0.00    -0.401 N 
HETATM   25  H15 UNL     1      24.701   5.503  53.452  1.00  0.00     0.156 HD
HETATM   26  H16 UNL     1      22.983   5.123  53.801  1.00  0.00     0.156 HD
ENDBRANCH  23  24
ENDBRANCH  19  21
ENDBRANCH   7  19
BRANCH   1  27
HETATM   27  C2  UNL     1      19.406  -0.148  52.600  1.00  0.00     0.127 C 
HETATM   28  C1  UNL     1      18.328  -1.069  53.095  1.00  0.00     0.027 C 
ENDBRANCH   1  27
TORSDOF 6
ENDMDL
MODEL 5
REMARK VINA RESULT:      -7.7      1.297      4.881
REMARK  6 active torsions:
REMARK  status: ('A' for Active; 'I' for Inactive)
REMARK    1  A    between atoms: C2_2  and  N1_3 
REMARK    2  A    between atoms: C5_7  and  N3_8 
REMARK    3  A    between atoms: N3_8  and  C6_9 
REMARK    4  A    between atoms: C12_17  and  N5_18 
REMARK    5  A    between atoms: N5_18  and  C13_19 
REMARK    6  A    between atoms: C15_21  and  N6_22 
ROOT
HETATM    1  N1  UNL     1      25.792   4.313  49.599  1.00  0.00    -0.324 N 
HETATM    2  C3  UNL     1      24.488   4.606  49.523  1.00  0.00     0.212 A 
HETATM    3  N2  UNL     1      23.817   3.938  50.478  1.00  0.00    -0.236 NA
HETATM    4  C4  UNL     1      24.663   3.208  51.183  1.00  0.00     0.151 A 
HETATM    5  C5  UNL     1      24.471   2.382  52.240  1.00  0.00     0.180 A 
HETATM    6  N4  UNL     1      25.596   1.795  52.727  1.00  0.00    -0.043 NA
HETATM    7  C12 UNL     1      26.804   2.011  52.208  1.00  0.00     0.727 A 
HETATM    8  N7  UNL     1      26.968   2.842  51.149  1.00  0.00    -0.042 NA
HETATM    9  C16 UNL     1      25.892   3.455  50.620  1.00  0.00     0.182 A 
ENDROOT
BRANCH   5  10
HETATM   10  N3  UNL     1      23.268   2.052  52.863  1.00  0.00    -0.338 N 
HETATM   11  H7  UNL     1      22.589   2.821  53.131  1.00  0.00     0.167 HD
BRANCH  10  12
HETATM   12  C6  UNL     1      22.621   0.887  53.282  1.00  0.00     0.035 A 
HETATM   13  C7  UNL     1      23.145  -0.183  54.003  1.00  0.00     0.029 A 
HETATM   14  C8  UNL     1      22.401  -1.280  54.327  1.00  0.00     0.004 A 
HETATM   15  C9  UNL     1      21.078  -1.411  53.967  1.00  0.00     0.024 A 
HETATM   16  C10 UNL     1      20.532  -0.368  53.252  1.00  0.00     0.036 A 
HETATM   17 CL1  UNL     1      18.838  -0.598  52.819  1.00  0.00    -0.084 Cl
HETATM   18  C11 UNL     1      21.288   0.755  52.918  1.00  0.00     0.053 A 
ENDBRANCH  10  12
ENDBRANCH   5  10
BRANCH   7  19
HETATM   19  N5  UNL     1      27.955   1.348  52.776  1.00  0.00    -0.209 N 
HETATM   20  H12 UNL     1      28.903   1.615  52.444  1.00  0.00     0.179 HD
BRANCH  19  21
HETATM   21  C13 UNL     1      27.673   0.358  53.777  1.00  0.00     0.174 A 
HETATM   22  C14 UNL     1      28.844  -0.110  54.520  1.00  0.00     0.032 A 
HETATM   23  C15 UNL     1      28.152  -1.010  53.709  1.00  0.00     0.028 A 
BRANCH  23  24
HETATM   24  N6  UNL     1      27.858  -2.257  53.092  1.00  0.00    -0.401 N 
HETATM   25  H15 UNL     1      28.503  -2.604  52.330  1.00  0.00     0.156 HD
HETATM   26  H16 UNL     1      27.040  -2.878  53.330  1.00  0.00     0.156 HD
ENDBRANCH  23  24
ENDBRANCH  19  21
ENDBRANCH   7  19
BRANCH   1  27
HETATM   27  C2  UNL     1      26.880   4.790  48.785  1.00  0.00     0.127 C 
HETATM   28  C1  UNL     1      26.854   6.274  48.564  1.00  0.00     0.027 C 
ENDBRANCH   1  27
TORSDOF 6
ENDMDL
MODEL 6
REMARK VINA RESULT:      -7.7      1.582      1.888
REMARK  6 active torsions:
REMARK  status: ('A' for Active; 'I' for Inactive)
REMARK    1  A    between atoms: C2_2  and  N1_3 
REMARK    2  A    between atoms: C5_7  and  N3_8 
REMARK    3  A    between atoms: N3_8  and  C6_9 
REMARK    4  A    between atoms: C12_17  and  N5_18 
REMARK    5  A    between atoms: N5_18  and  C13_19 
REMARK    6  A    between atoms: C15_21  and  N6_22 
ROOT
HETATM    1  N1  UNL     1      27.456   0.711  53.641  1.00  0.00    -0.324 N 
HETATM    2  C3  UNL     1      26.553  -0.188  54.048  1.00  0.00     0.212 A 
HETATM    3  N2  UNL     1      25.413  -0.035  53.350  1.00  0.00    -0.236 NA
HETATM    4  C4  UNL     1      25.555   0.956  52.488  1.00  0.00     0.151 A 
HETATM    5  C5  UNL     1      24.703   1.478  51.572  1.00  0.00     0.180 A 
HETATM    6  N4  UNL     1      25.203   2.505  50.836  1.00  0.00    -0.043 NA
HETATM    7  C12 UNL     1      26.441   2.972  50.998  1.00  0.00     0.727 A 
HETATM    8  N7  UNL     1      27.273   2.432  51.922  1.00  0.00    -0.042 NA
HETATM    9  C16 UNL     1      26.837   1.410  52.684  1.00  0.00     0.182 A 
ENDROOT
BRANCH   5  10
HETATM   10  N3  UNL     1      23.384   1.103  51.318  1.00  0.00    -0.338 N 
HETATM   11  H7  UNL     1      23.188   0.212  50.778  1.00  0.00     0.167 HD
BRANCH  10  12
HETATM   12  C6  UNL     1      22.110   1.604  51.591  1.00  0.00     0.035 A 
HETATM   13  C7  UNL     1      21.759   2.860  52.080  1.00  0.00     0.029 A 
HETATM   14  C8  UNL     1      20.464   3.212  52.327  1.00  0.00     0.004 A 
HETATM   15  C9  UNL     1      19.408   2.354  52.111  1.00  0.00     0.024 A 
HETATM   16  C10 UNL     1      19.724   1.103  51.628  1.00  0.00     0.036 A 
HETATM   17 CL1  UNL     1      18.331   0.053  51.377  1.00  0.00    -0.084 Cl
HETATM   18  C11 UNL     1      21.046   0.739  51.374  1.00  0.00     0.053 A 
ENDBRANCH  10  12
ENDBRANCH   5  10
BRANCH   7  19
HETATM   19  N5  UNL     1      26.903   4.069  50.180  1.00  0.00    -0.209 N 
HETATM   20  H12 UNL     1      27.924   4.189  50.032  1.00  0.00     0.179 HD
BRANCH  19  21
HETATM   21  C13 UNL     1      25.878   4.913  49.633  1.00  0.00     0.174 A 
HETATM   22  C14 UNL     1      26.372   6.011  48.799  1.00  0.00     0.032 A 
HETATM   23  C15 UNL     1      25.713   6.310  49.992  1.00  0.00     0.028 A 
BRANCH  23  24
HETATM   24  N6  UNL     1      25.164   7.134  51.013  1.00  0.00    -0.401 N 
HETATM   25  H15 UNL     1      24.826   8.100  50.750  1.00  0.00     0.156 HD
HETATM   26  H16 UNL     1      25.061   6.863  52.026  1.00  0.00     0.156 HD
ENDBRANCH  23  24
ENDBRANCH  19  21
ENDBRANCH   7  19
BRANCH   1  27
HETATM   27  C2  UNL     1      28.805   0.919  54.102  1.00  0.00     0.127 C 
HETATM   28  C1  UNL     1      29.794  -0.039  53.504  1.00  0.00     0.027 C 
ENDBRANCH   1  27
TORSDOF 6
ENDMDL
MODEL 7
REMARK VINA RESULT:      -7.6      2.906      6.726
REMARK  6 active torsions:
REMARK  status: ('A' for Active; 'I' for Inactive)
REMARK    1  A    between atoms: C2_2  and  N1_3 
REMARK    2  A    between atoms: C5_7  and  N3_8 
REMARK    3  A    between atoms: N3_8  and  C6_9 
REMARK    4  A    between atoms: C12_17  and  N5_18 
REMARK    5  A    between atoms: N5_18  and  C13_19 
REMARK    6  A    between atoms: C15_21  and  N6_22 
ROOT
HETATM    1  N1  UNL     1      22.828   0.173  53.487  1.00  0.00    -0.324 N 
HETATM    2  C3  UNL     1      21.861   0.988  53.048  1.00  0.00     0.212 A 
HETATM    3  N2  UNL     1      22.376   1.870  52.172  1.00  0.00    -0.236 NA
HETATM    4  C4  UNL     1      23.670   1.646  52.030  1.00  0.00     0.151 A 
HETATM    5  C5  UNL     1      24.608   2.256  51.264  1.00  0.00     0.180 A 
HETATM    6  N4  UNL     1      25.861   1.741  51.365  1.00  0.00    -0.043 NA
HETATM    7  C12 UNL     1      26.155   0.710  52.158  1.00  0.00     0.727 A 
HETATM    8  N7  UNL     1      25.198   0.119  52.914  1.00  0.00    -0.042 NA
HETATM    9  C16 UNL     1      23.935   0.583  52.858  1.00  0.00     0.182 A 
ENDROOT
BRANCH   5  10
HETATM   10  N3  UNL     1      24.442   3.349  50.415  1.00  0.00    -0.338 N 
HETATM   11  H7  UNL     1      24.512   3.213  49.366  1.00  0.00     0.167 HD
BRANCH  10  12
HETATM   12  C6  UNL     1      24.183   4.715  50.548  1.00  0.00     0.035 A 
HETATM   13  C7  UNL     1      22.977   5.343  50.846  1.00  0.00     0.029 A 
HETATM   14  C8  UNL     1      22.858   6.701  50.921  1.00  0.00     0.004 A 
HETATM   15  C9  UNL     1      23.922   7.550  50.709  1.00  0.00     0.024 A 
HETATM   16  C10 UNL     1      25.129   6.958  50.411  1.00  0.00     0.036 A 
HETATM   17 CL1  UNL     1      26.447   8.098  50.148  1.00  0.00    -0.084 Cl
HETATM   18  C11 UNL     1      25.255   5.571  50.334  1.00  0.00     0.053 A 
ENDBRANCH  10  12
ENDBRANCH   5  10
BRANCH   7  19
HETATM   19  N5  UNL     1      27.512   0.219  52.216  1.00  0.00    -0.209 N 
HETATM   20  H12 UNL     1      28.158   0.433  51.431  1.00  0.00     0.179 HD
BRANCH  19  21
HETATM   21  C13 UNL     1      27.851  -0.539  53.388  1.00  0.00     0.174 A 
HETATM   22  C14 UNL     1      29.281  -0.573  53.700  1.00  0.00     0.032 A 
HETATM   23  C15 UNL     1      28.634  -1.761  53.355  1.00  0.00     0.028 A 
BRANCH  23  24
HETATM   24  N6  UNL     1      28.505  -3.151  53.090  1.00  0.00    -0.401 N 
HETATM   25  H15 UNL     1      28.299  -3.457  52.099  1.00  0.00     0.156 HD
HETATM   26  H16 UNL     1      28.600  -3.920  53.805  1.00  0.00     0.156 HD
ENDBRANCH  23  24
ENDBRANCH  19  21
ENDBRANCH   7  19
BRANCH   1  27
HETATM   27  C2  UNL     1      22.742  -0.914  54.428  1.00  0.00     0.127 C 
HETATM   28  C1  UNL     1      21.396  -1.578  54.452  1.00  0.00     0.027 C 
ENDBRANCH   1  27
TORSDOF 6
ENDMDL
MODEL 8
REMARK VINA RESULT:      -7.5      2.753      5.704
REMARK  6 active torsions:
REMARK  status: ('A' for Active; 'I' for Inactive)
REMARK    1  A    between atoms: C2_2  and  N1_3 
REMARK    2  A    between atoms: C5_7  and  N3_8 
REMARK    3  A    between atoms: N3_8  and  C6_9 
REMARK    4  A    between atoms: C12_17  and  N5_18 
REMARK    5  A    between atoms: N5_18  and  C13_19 
REMARK    6  A    between atoms: C15_21  and  N6_22 
ROOT
HETATM    1  N1  UNL     1      22.174   0.333  52.382  1.00  0.00    -0.324 N 
HETATM    2  C3  UNL     1      22.695  -0.696  53.061  1.00  0.00     0.212 A 
HETATM    3  N2  UNL     1      23.881  -0.338  53.587  1.00  0.00    -0.236 NA
HETATM    4  C4  UNL     1      24.147   0.915  53.262  1.00  0.00     0.151 A 
HETATM    5  C5  UNL     1      25.200   1.715  53.557  1.00  0.00     0.180 A 
HETATM    6  N4  UNL     1      25.129   2.974  53.054  1.00  0.00    -0.043 NA
HETATM    7  C12 UNL     1      24.101   3.401  52.321  1.00  0.00     0.727 A 
HETATM    8  N7  UNL     1      23.059   2.580  52.039  1.00  0.00    -0.042 NA
HETATM    9  C16 UNL     1      23.070   1.318  52.510  1.00  0.00     0.182 A 
ENDROOT
BRANCH   5  10
HETATM   10  N3  UNL     1      26.343   1.391  54.289  1.00  0.00    -0.338 N 
HETATM   11  H7  UNL     1      26.393   1.639  55.318  1.00  0.00     0.167 HD
BRANCH  10  12
HETATM   12  C6  UNL     1      27.570   0.772  54.044  1.00  0.00     0.035 A 
HETATM   13  C7  UNL     1      28.844   1.334  54.068  1.00  0.00     0.029 A 
HETATM   14  C8  UNL     1      29.967   0.614  53.781  1.00  0.00     0.004 A 
HETATM   15  C9  UNL     1      29.925  -0.722  53.447  1.00  0.00     0.024 A 
HETATM   16  C10 UNL     1      28.677  -1.306  53.413  1.00  0.00     0.036 A 
HETATM   17 CL1  UNL     1      28.692  -3.013  52.975  1.00  0.00    -0.084 Cl
HETATM   18  C11 UNL     1      27.528  -0.574  53.706  1.00  0.00     0.053 A 
ENDBRANCH  10  12
ENDBRANCH   5  10
BRANCH   7  19
HETATM   19  N5  UNL     1      24.096   4.754  51.816  1.00  0.00    -0.209 N 
HETATM   20  H12 UNL     1      24.812   5.422  52.164  1.00  0.00     0.179 HD
BRANCH  19  21
HETATM   21  C13 UNL     1      23.076   5.056  50.851  1.00  0.00     0.174 A 
HETATM   22  C14 UNL     1      23.515   5.908  49.745  1.00  0.00     0.032 A 
HETATM   23  C15 UNL     1      22.551   6.391  50.631  1.00  0.00     0.028 A 
BRANCH  23  24
HETATM   24  N6  UNL     1      21.625   7.321  51.177  1.00  0.00    -0.401 N 
HETATM   25  H15 UNL     1      21.157   7.083  52.094  1.00  0.00     0.156 HD
HETATM   26  H16 UNL     1      21.359   8.244  50.742  1.00  0.00     0.156 HD
ENDBRANCH  23  24
ENDBRANCH  19  21
ENDBRANCH   7  19
BRANCH   1  27
HETATM   27  C2  UNL     1      20.931   0.409  51.659  1.00  0.00     0.127 C 
HETATM   28  C1  UNL     1      21.112   0.533  50.174  1.00  0.00     0.027 C 
ENDBRANCH   1  27
TORSDOF 6
ENDMDL
MODEL 9
REMARK VINA RESULT:      -7.3      2.023      5.461
REMARK  6 active torsions:
REMARK  status: ('A' for Active; 'I' for Inactive)
REMARK    1  A    between atoms: C2_2  and  N1_3 
REMARK    2  A    between atoms: C5_7  and  N3_8 
REMARK    3  A    between atoms: N3_8  and  C6_9 
REMARK    4  A    between atoms: C12_17  and  N5_18 
REMARK    5  A    between atoms: N5_18  and  C13_19 
REMARK    6  A    between atoms: C15_21  and  N6_22 
ROOT
HETATM    1  N1  UNL     1      28.242   0.675  53.978  1.00  0.00    -0.324 N 
HETATM    2  C3  UNL     1      28.695   1.900  53.685  1.00  0.00     0.212 A 
HETATM    3  N2  UNL     1      27.680   2.664  53.240  1.00  0.00    -0.236 NA
HETATM    4  C4  UNL     1      26.565   1.956  53.236  1.00  0.00     0.151 A 
HETATM    5  C5  UNL     1      25.296   2.280  52.886  1.00  0.00     0.180 A 
HETATM    6  N4  UNL     1      24.385   1.283  53.025  1.00  0.00    -0.043 NA
HETATM    7  C12 UNL     1      24.706   0.069  53.472  1.00  0.00     0.727 A 
HETATM    8  N7  UNL     1      25.984  -0.230  53.815  1.00  0.00    -0.042 NA
HETATM    9  C16 UNL     1      26.935   0.717  53.701  1.00  0.00     0.182 A 
ENDROOT
BRANCH   5  10
HETATM   10  N3  UNL     1      24.830   3.496  52.386  1.00  0.00    -0.338 N 
HETATM   11  H7  UNL     1      24.636   4.297  53.052  1.00  0.00     0.167 HD
BRANCH  10  12
HETATM   12  C6  UNL     1      24.510   4.029  51.136  1.00  0.00     0.035 A 
HETATM   13  C7  UNL     1      25.364   4.580  50.183  1.00  0.00     0.029 A 
HETATM   14  C8  UNL     1      24.910   5.093  49.003  1.00  0.00     0.004 A 
HETATM   15  C9  UNL     1      23.574   5.104  48.665  1.00  0.00     0.024 A 
HETATM   16  C10 UNL     1      22.704   4.567  49.588  1.00  0.00     0.036 A 
HETATM   17 CL1  UNL     1      21.012   4.615  49.098  1.00  0.00    -0.084 Cl
HETATM   18  C11 UNL     1      23.163   4.042  50.795  1.00  0.00     0.053 A 
ENDBRANCH  10  12
ENDBRANCH   5  10
BRANCH   7  19
HETATM   19  N5  UNL     1      23.683  -0.943  53.590  1.00  0.00    -0.209 N 
HETATM   20  H12 UNL     1      23.872  -1.894  53.216  1.00  0.00     0.179 HD
BRANCH  19  21
HETATM   21  C13 UNL     1      22.468  -0.529  54.235  1.00  0.00     0.174 A 
HETATM   22  C14 UNL     1      21.481  -1.595  54.419  1.00  0.00     0.032 A 
HETATM   23  C15 UNL     1      21.173  -0.525  53.578  1.00  0.00     0.028 A 
BRANCH  23  24
HETATM   24  N6  UNL     1      20.388   0.252  52.684  1.00  0.00    -0.401 N 
HETATM   25  H15 UNL     1      20.849   1.063  52.185  1.00  0.00     0.156 HD
HETATM   26  H16 UNL     1      19.369   0.090  52.468  1.00  0.00     0.156 HD
ENDBRANCH  23  24
ENDBRANCH  19  21
ENDBRANCH   7  19
BRANCH   1  27
HETATM   27  C2  UNL     1      28.965  -0.464  54.481  1.00  0.00     0.127 C 
HETATM   28  C1  UNL     1      29.670  -1.244  53.409  1.00  0.00     0.027 C 
ENDBRANCH   1  27
TORSDOF 6
ENDMDL
