MODEL 1
REMARK VINA RESULT:      -6.8      0.000      0.000
REMARK  4 active torsions:
REMARK  status: ('A' for Active; 'I' for Inactive)
REMARK    1  A    between atoms: O1_2  and  C2_3 
REMARK    2  A    between atoms: C6_9  and  N3_10 
REMARK    3  A    between atoms: C11_15  and  O2_16 
REMARK    4  A    between atoms: C15_20  and  O3_21 
ROOT
HETATM    1  C2  UNL     1      22.527   2.554  51.631  1.00  0.00     0.079 C 
HETATM    2  C3  UNL     1      22.923   2.246  50.406  1.00  0.00     0.054 C 
HETATM    3  C4  UNL     1      24.224   2.482  49.821  1.00  0.00     0.120 C 
HETATM    4  N1  UNL     1      25.152   3.048  50.499  1.00  0.00    -0.254 NA
HETATM    5  C5  UNL     1      26.417   3.263  49.889  1.00  0.00     0.234 C 
HETATM    6  N2  UNL     1      26.671   2.858  51.063  1.00  0.00    -0.225 NA
HETATM    7  C6  UNL     1      25.783   2.503  52.078  1.00  0.00     0.130 C 
HETATM    8  C14 UNL     1      24.686   2.477  52.795  1.00  0.00     0.062 C 
HETATM    9  C15 UNL     1      23.414   3.215  52.620  1.00  0.00     0.204 C 
ENDROOT
BRANCH   7  10
HETATM   10  N3  UNL     1      26.890   1.667  52.480  1.00  0.00    -0.339 N 
HETATM   11  C7  UNL     1      27.956   2.391  53.133  1.00  0.00     0.092 C 
HETATM   12  C8  UNL     1      29.049   2.038  53.833  1.00  0.00     0.017 C 
HETATM   13  C9  UNL     1      29.416   0.646  54.105  1.00  0.00    -0.000 C 
HETATM   14  C10 UNL     1      28.714  -0.474  54.031  1.00  0.00     0.006 C 
HETATM   15  C11 UNL     1      27.277  -0.484  53.611  1.00  0.00     0.162 C 
HETATM   16  C13 UNL     1      27.060   0.228  52.317  1.00  0.00     0.166 C 
BRANCH  15  17
HETATM   17  O2  UNL     1      26.723  -1.740  53.576  1.00  0.00    -0.385 OA
HETATM   18  C12 UNL     1      27.043  -2.321  52.333  1.00  0.00     0.202 C 
ENDBRANCH  15  17
ENDBRANCH   7  10
BRANCH   9  19
HETATM   19  O3  UNL     1      23.759   4.506  52.243  1.00  0.00    -0.380 OA
HETATM   20  C16 UNL     1      22.706   5.367  52.074  1.00  0.00     0.202 C 
ENDBRANCH   9  19
BRANCH   1  21
HETATM   21  O1  UNL     1      21.222   2.247  52.017  1.00  0.00    -0.357 OA
HETATM   22  C1  UNL     1      20.830   0.947  52.396  1.00  0.00     0.209 C 
ENDBRANCH   1  21
TORSDOF 4
ENDMDL
MODEL 2
REMARK VINA RESULT:      -6.8      1.593      2.943
REMARK  4 active torsions:
REMARK  status: ('A' for Active; 'I' for Inactive)
REMARK    1  A    between atoms: O1_2  and  C2_3 
REMARK    2  A    between atoms: C6_9  and  N3_10 
REMARK    3  A    between atoms: C11_15  and  O2_16 
REMARK    4  A    between atoms: C15_20  and  O3_21 
ROOT
HETATM    1  C2  UNL     1      24.210   5.013  50.983  1.00  0.00     0.079 C 
HETATM    2  C3  UNL     1      23.605   4.675  52.111  1.00  0.00     0.054 C 
HETATM    3  C4  UNL     1      23.450   3.345  52.656  1.00  0.00     0.120 C 
HETATM    4  N1  UNL     1      23.920   2.326  52.038  1.00  0.00    -0.254 NA
HETATM    5  C5  UNL     1      23.746   1.035  52.604  1.00  0.00     0.234 C 
HETATM    6  N2  UNL     1      24.939   1.060  52.176  1.00  0.00    -0.225 NA
HETATM    7  C6  UNL     1      25.617   2.095  51.532  1.00  0.00     0.130 C 
HETATM    8  C14 UNL     1      25.814   3.166  50.803  1.00  0.00     0.062 C 
HETATM    9  C15 UNL     1      24.843   4.020  50.081  1.00  0.00     0.204 C 
ENDROOT
BRANCH   7  10
HETATM   10  N3  UNL     1      26.761   1.448  52.131  1.00  0.00    -0.339 N 
HETATM   11  C7  UNL     1      27.656   2.360  52.805  1.00  0.00     0.092 C 
HETATM   12  C8  UNL     1      28.697   2.217  53.645  1.00  0.00     0.017 C 
HETATM   13  C9  UNL     1      29.190   0.915  54.102  1.00  0.00    -0.000 C 
HETATM   14  C10 UNL     1      28.635  -0.286  54.079  1.00  0.00     0.006 C 
HETATM   15  C11 UNL     1      27.266  -0.519  53.521  1.00  0.00     0.162 C 
HETATM   16  C13 UNL     1      27.114   0.034  52.143  1.00  0.00     0.166 C 
BRANCH  15  17
HETATM   17  O2  UNL     1      26.869  -1.833  53.567  1.00  0.00    -0.385 OA
HETATM   18  C12 UNL     1      26.843  -2.325  52.246  1.00  0.00     0.202 C 
ENDBRANCH  15  17
ENDBRANCH   7  10
BRANCH   9  19
HETATM   19  O3  UNL     1      23.917   3.160  49.505  1.00  0.00    -0.380 OA
HETATM   20  C16 UNL     1      23.091   3.732  48.572  1.00  0.00     0.202 C 
ENDBRANCH   9  19
BRANCH   1  21
HETATM   21  O1  UNL     1      24.258   6.360  50.620  1.00  0.00    -0.357 OA
HETATM   22  C1  UNL     1      25.422   6.964  50.102  1.00  0.00     0.209 C 
ENDBRANCH   1  21
TORSDOF 4
ENDMDL
MODEL 3
REMARK VINA RESULT:      -6.6      2.403      4.324
REMARK  4 active torsions:
REMARK  status: ('A' for Active; 'I' for Inactive)
REMARK    1  A    between atoms: O1_2  and  C2_3 
REMARK    2  A    between atoms: C6_9  and  N3_10 
REMARK    3  A    between atoms: C11_15  and  O2_16 
REMARK    4  A    between atoms: C15_20  and  O3_21 
ROOT
HETATM    1  C2  UNL     1      25.293   5.362  49.482  1.00  0.00     0.079 C 
HETATM    2  C3  UNL     1      24.894   6.152  50.466  1.00  0.00     0.054 C 
HETATM    3  C4  UNL     1      23.937   5.842  51.504  1.00  0.00     0.120 C 
HETATM    4  N1  UNL     1      23.366   4.696  51.545  1.00  0.00    -0.254 NA
HETATM    5  C5  UNL     1      22.429   4.429  52.580  1.00  0.00     0.234 C 
HETATM    6  N2  UNL     1      23.130   3.378  52.476  1.00  0.00    -0.225 NA
HETATM    7  C6  UNL     1      24.189   3.113  51.609  1.00  0.00     0.130 C 
HETATM    8  C14 UNL     1      24.944   3.176  50.540  1.00  0.00     0.062 C 
HETATM    9  C15 UNL     1      24.786   3.979  49.305  1.00  0.00     0.204 C 
ENDROOT
BRANCH   7  10
HETATM   10  N3  UNL     1      24.586   2.233  52.683  1.00  0.00    -0.339 N 
HETATM   11  C7  UNL     1      23.925   0.948  52.655  1.00  0.00     0.092 C 
HETATM   12  C8  UNL     1      24.105  -0.223  53.292  1.00  0.00     0.017 C 
HETATM   13  C9  UNL     1      25.162  -0.447  54.281  1.00  0.00    -0.000 C 
HETATM   14  C10 UNL     1      26.268   0.230  54.548  1.00  0.00     0.006 C 
HETATM   15  C11 UNL     1      26.645   1.465  53.791  1.00  0.00     0.162 C 
HETATM   16  C13 UNL     1      25.541   2.470  53.759  1.00  0.00     0.166 C 
BRANCH  15  17
HETATM   17  O2  UNL     1      27.815   2.039  54.222  1.00  0.00    -0.385 OA
HETATM   18  C12 UNL     1      28.797   1.030  54.281  1.00  0.00     0.202 C 
ENDBRANCH  15  17
ENDBRANCH   7  10
BRANCH   9  19
HETATM   19  O3  UNL     1      23.435   3.946  48.988  1.00  0.00    -0.380 OA
HETATM   20  C16 UNL     1      23.021   2.824  48.318  1.00  0.00     0.202 C 
ENDBRANCH   9  19
BRANCH   1  21
HETATM   21  O1  UNL     1      26.232   5.843  48.568  1.00  0.00    -0.357 OA
HETATM   22  C1  UNL     1      27.562   5.376  48.531  1.00  0.00     0.209 C 
ENDBRANCH   1  21
TORSDOF 4
ENDMDL
MODEL 4
REMARK VINA RESULT:      -6.5      1.751      5.632
REMARK  4 active torsions:
REMARK  status: ('A' for Active; 'I' for Inactive)
REMARK    1  A    between atoms: O1_2  and  C2_3 
REMARK    2  A    between atoms: C6_9  and  N3_10 
REMARK    3  A    between atoms: C11_15  and  O2_16 
REMARK    4  A    between atoms: C15_20  and  O3_21 
ROOT
HETATM    1  C2  UNL     1      25.654  -0.626  54.437  1.00  0.00     0.079 C 
HETATM    2  C3  UNL     1      26.346   0.248  55.151  1.00  0.00     0.054 C 
HETATM    3  C4  UNL     1      27.280   1.236  54.659  1.00  0.00     0.120 C 
HETATM    4  N1  UNL     1      27.521   1.340  53.405  1.00  0.00    -0.254 NA
HETATM    5  C5  UNL     1      28.446   2.322  52.960  1.00  0.00     0.234 C 
HETATM    6  N2  UNL     1      27.481   2.369  52.140  1.00  0.00    -0.225 NA
HETATM    7  C6  UNL     1      26.310   1.611  52.121  1.00  0.00     0.130 C 
HETATM    8  C14 UNL     1      25.499   0.600  52.318  1.00  0.00     0.062 C 
HETATM    9  C15 UNL     1      25.748  -0.711  52.959  1.00  0.00     0.204 C 
ENDROOT
BRANCH   7  10
HETATM   10  N3  UNL     1      25.796   2.789  51.461  1.00  0.00    -0.339 N 
HETATM   11  C7  UNL     1      26.586   3.210  50.327  1.00  0.00     0.092 C 
HETATM   12  C8  UNL     1      26.407   4.085  49.322  1.00  0.00     0.017 C 
HETATM   13  C9  UNL     1      25.198   4.897  49.167  1.00  0.00    -0.000 C 
HETATM   14  C10 UNL     1      23.993   4.780  49.701  1.00  0.00     0.006 C 
HETATM   15  C11 UNL     1      23.648   3.676  50.652  1.00  0.00     0.162 C 
HETATM   16  C13 UNL     1      24.616   3.581  51.785  1.00  0.00     0.166 C 
BRANCH  15  17
HETATM   17  O2  UNL     1      22.357   3.731  51.115  1.00  0.00    -0.385 OA
HETATM   18  C12 UNL     1      22.316   4.659  52.176  1.00  0.00     0.202 C 
ENDBRANCH  15  17
ENDBRANCH   7  10
BRANCH   9  19
HETATM   19  O3  UNL     1      27.002  -1.125  52.531  1.00  0.00    -0.380 OA
HETATM   20  C16 UNL     1      27.240  -2.471  52.634  1.00  0.00     0.202 C 
ENDBRANCH   9  19
BRANCH   1  21
HETATM   21  O1  UNL     1      24.797  -1.508  55.096  1.00  0.00    -0.357 OA
HETATM   22  C1  UNL     1      23.406  -1.290  55.183  1.00  0.00     0.209 C 
ENDBRANCH   1  21
TORSDOF 4
ENDMDL
MODEL 5
REMARK VINA RESULT:      -6.2      1.996      2.845
REMARK  4 active torsions:
REMARK  status: ('A' for Active; 'I' for Inactive)
REMARK    1  A    between atoms: O1_2  and  C2_3 
REMARK    2  A    between atoms: C6_9  and  N3_10 
REMARK    3  A    between atoms: C11_15  and  O2_16 
REMARK    4  A    between atoms: C15_20  and  O3_21 
ROOT
HETATM    1  C2  UNL     1      21.427   3.719  50.083  1.00  0.00     0.079 C 
HETATM    2  C3  UNL     1      22.234   3.150  49.202  1.00  0.00     0.054 C 
HETATM    3  C4  UNL     1      23.676   3.056  49.267  1.00  0.00     0.120 C 
HETATM    4  N1  UNL     1      24.319   3.556  50.256  1.00  0.00    -0.254 NA
HETATM    5  C5  UNL     1      25.735   3.445  50.284  1.00  0.00     0.234 C 
HETATM    6  N2  UNL     1      25.352   3.199  51.466  1.00  0.00    -0.225 NA
HETATM    7  C6  UNL     1      24.055   3.176  51.980  1.00  0.00     0.130 C 
HETATM    8  C14 UNL     1      22.783   3.459  52.112  1.00  0.00     0.062 C 
HETATM    9  C15 UNL     1      21.921   4.369  51.322  1.00  0.00     0.204 C 
ENDROOT
BRANCH   7  10
HETATM   10  N3  UNL     1      24.653   2.238  52.902  1.00  0.00    -0.339 N 
HETATM   11  C7  UNL     1      24.146   0.891  52.769  1.00  0.00     0.092 C 
HETATM   12  C8  UNL     1      24.521  -0.312  53.240  1.00  0.00     0.017 C 
HETATM   13  C9  UNL     1      25.686  -0.510  54.105  1.00  0.00    -0.000 C 
HETATM   14  C10 UNL     1      26.726   0.268  54.362  1.00  0.00     0.006 C 
HETATM   15  C11 UNL     1      26.883   1.618  53.736  1.00  0.00     0.162 C 
HETATM   16  C13 UNL     1      25.672   2.471  53.917  1.00  0.00     0.166 C 
BRANCH  15  17
HETATM   17  O2  UNL     1      28.015   2.283  54.138  1.00  0.00    -0.385 OA
HETATM   18  C12 UNL     1      29.068   1.348  54.202  1.00  0.00     0.202 C 
ENDBRANCH  15  17
ENDBRANCH   7  10
BRANCH   9  19
HETATM   19  O3  UNL     1      22.682   5.500  51.061  1.00  0.00    -0.380 OA
HETATM   20  C16 UNL     1      21.965   6.647  50.835  1.00  0.00     0.202 C 
ENDBRANCH   9  19
BRANCH   1  21
HETATM   21  O1  UNL     1      20.052   3.711  49.845  1.00  0.00    -0.357 OA
HETATM   22  C1  UNL     1      19.107   3.987  50.853  1.00  0.00     0.209 C 
ENDBRANCH   1  21
TORSDOF 4
ENDMDL
MODEL 6
REMARK VINA RESULT:      -6.2      3.819      5.520
REMARK  4 active torsions:
REMARK  status: ('A' for Active; 'I' for Inactive)
REMARK    1  A    between atoms: O1_2  and  C2_3 
REMARK    2  A    between atoms: C6_9  and  N3_10 
REMARK    3  A    between atoms: C11_15  and  O2_16 
REMARK    4  A    between atoms: C15_20  and  O3_21 
ROOT
HETATM    1  C2  UNL     1      24.362   4.430  50.504  1.00  0.00     0.079 C 
HETATM    2  C3  UNL     1      23.844   4.980  51.591  1.00  0.00     0.054 C 
HETATM    3  C4  UNL     1      22.571   4.675  52.206  1.00  0.00     0.120 C 
HETATM    4  N1  UNL     1      21.799   3.786  51.702  1.00  0.00    -0.254 NA
HETATM    5  C5  UNL     1      20.556   3.514  52.333  1.00  0.00     0.234 C 
HETATM    6  N2  UNL     1      21.029   2.382  52.016  1.00  0.00    -0.225 NA
HETATM    7  C6  UNL     1      22.230   2.085  51.372  1.00  0.00     0.130 C 
HETATM    8  C14 UNL     1      23.275   2.232  50.595  1.00  0.00     0.062 C 
HETATM    9  C15 UNL     1      23.669   3.370  49.732  1.00  0.00     0.204 C 
ENDROOT
BRANCH   7  10
HETATM   10  N3  UNL     1      22.091   0.854  52.115  1.00  0.00    -0.339 N 
HETATM   11  C7  UNL     1      23.236   0.542  52.940  1.00  0.00     0.092 C 
HETATM   12  C8  UNL     1      23.482  -0.345  53.921  1.00  0.00     0.017 C 
HETATM   13  C9  UNL     1      22.487  -1.303  54.408  1.00  0.00    -0.000 C 
HETATM   14  C10 UNL     1      21.171  -1.343  54.269  1.00  0.00     0.006 C 
HETATM   15  C11 UNL     1      20.420  -0.296  53.508  1.00  0.00     0.162 C 
HETATM   16  C13 UNL     1      20.975  -0.084  52.139  1.00  0.00     0.166 C 
BRANCH  15  17
HETATM   17  O2  UNL     1      19.066  -0.518  53.457  1.00  0.00    -0.385 OA
HETATM   18  C12 UNL     1      18.645  -0.326  52.126  1.00  0.00     0.202 C 
ENDBRANCH  15  17
ENDBRANCH   7  10
BRANCH   9  19
HETATM   19  O3  UNL     1      22.504   3.827  49.131  1.00  0.00    -0.380 OA
HETATM   20  C16 UNL     1      22.688   4.588  48.005  1.00  0.00     0.202 C 
ENDBRANCH   9  19
BRANCH   1  21
HETATM   21  O1  UNL     1      25.613   4.860  50.059  1.00  0.00    -0.357 OA
HETATM   22  C1  UNL     1      26.544   3.989  49.457  1.00  0.00     0.209 C 
ENDBRANCH   1  21
TORSDOF 4
ENDMDL
MODEL 7
REMARK VINA RESULT:      -6.0      2.051      2.759
REMARK  4 active torsions:
REMARK  status: ('A' for Active; 'I' for Inactive)
REMARK    1  A    between atoms: O1_2  and  C2_3 
REMARK    2  A    between atoms: C6_9  and  N3_10 
REMARK    3  A    between atoms: C11_15  and  O2_16 
REMARK    4  A    between atoms: C15_20  and  O3_21 
ROOT
HETATM    1  C2  UNL     1      20.302   0.725  51.657  1.00  0.00     0.079 C 
HETATM    2  C3  UNL     1      20.851   0.576  50.462  1.00  0.00     0.054 C 
HETATM    3  C4  UNL     1      22.064   1.192  49.973  1.00  0.00     0.120 C 
HETATM    4  N1  UNL     1      22.740   1.985  50.718  1.00  0.00    -0.254 NA
HETATM    5  C5  UNL     1      23.926   2.572  50.202  1.00  0.00     0.234 C 
HETATM    6  N2  UNL     1      24.207   2.228  51.388  1.00  0.00    -0.225 NA
HETATM    7  C6  UNL     1      23.394   1.606  52.336  1.00  0.00     0.130 C 
HETATM    8  C14 UNL     1      22.307   1.246  52.972  1.00  0.00     0.062 C 
HETATM    9  C15 UNL     1      20.890   1.589  52.710  1.00  0.00     0.204 C 
ENDROOT
BRANCH   7  10
HETATM   10  N3  UNL     1      24.667   1.116  52.812  1.00  0.00    -0.339 N 
HETATM   11  C7  UNL     1      25.707   2.119  52.824  1.00  0.00     0.092 C 
HETATM   12  C8  UNL     1      26.943   2.194  53.349  1.00  0.00     0.017 C 
HETATM   13  C9  UNL     1      27.556   1.110  54.122  1.00  0.00    -0.000 C 
HETATM   14  C10 UNL     1      27.029   0.048  54.708  1.00  0.00     0.006 C 
HETATM   15  C11 UNL     1      25.560  -0.237  54.663  1.00  0.00     0.162 C 
HETATM   16  C13 UNL     1      25.022  -0.221  53.271  1.00  0.00     0.166 C 
BRANCH  15  17
HETATM   17  O2  UNL     1      25.204  -1.394  55.311  1.00  0.00    -0.385 OA
HETATM   18  C12 UNL     1      23.807  -1.371  55.503  1.00  0.00     0.202 C 
ENDBRANCH  15  17
ENDBRANCH   7  10
BRANCH   9  19
HETATM   19  O3  UNL     1      20.870   2.934  52.365  1.00  0.00    -0.380 OA
HETATM   20  C16 UNL     1      19.646   3.422  51.986  1.00  0.00     0.202 C 
ENDBRANCH   9  19
BRANCH   1  21
HETATM   21  O1  UNL     1      19.119   0.044  51.947  1.00  0.00    -0.357 OA
HETATM   22  C1  UNL     1      18.015   0.036  51.070  1.00  0.00     0.209 C 
ENDBRANCH   1  21
TORSDOF 4
ENDMDL
MODEL 8
REMARK VINA RESULT:      -6.0      2.786      4.428
REMARK  4 active torsions:
REMARK  status: ('A' for Active; 'I' for Inactive)
REMARK    1  A    between atoms: O1_2  and  C2_3 
REMARK    2  A    between atoms: C6_9  and  N3_10 
REMARK    3  A    between atoms: C11_15  and  O2_16 
REMARK    4  A    between atoms: C15_20  and  O3_21 
ROOT
HETATM    1  C2  UNL     1      22.156   3.115  48.081  1.00  0.00     0.079 C 
HETATM    2  C3  UNL     1      22.747   4.208  48.536  1.00  0.00     0.054 C 
HETATM    3  C4  UNL     1      22.774   4.686  49.901  1.00  0.00     0.120 C 
HETATM    4  N1  UNL     1      22.182   4.035  50.832  1.00  0.00    -0.254 NA
HETATM    5  C5  UNL     1      22.230   4.537  52.161  1.00  0.00     0.234 C 
HETATM    6  N2  UNL     1      22.413   3.287  52.263  1.00  0.00    -0.225 NA
HETATM    7  C6  UNL     1      22.457   2.323  51.256  1.00  0.00     0.130 C 
HETATM    8  C14 UNL     1      22.221   1.735  50.109  1.00  0.00     0.062 C 
HETATM    9  C15 UNL     1      21.404   2.184  48.958  1.00  0.00     0.204 C 
ENDROOT
BRANCH   7  10
HETATM   10  N3  UNL     1      23.306   1.652  52.214  1.00  0.00    -0.339 N 
HETATM   11  C7  UNL     1      22.636   0.603  52.948  1.00  0.00     0.092 C 
HETATM   12  C8  UNL     1      23.039  -0.391  53.759  1.00  0.00     0.017 C 
HETATM   13  C9  UNL     1      24.444  -0.630  54.102  1.00  0.00    -0.000 C 
HETATM   14  C10 UNL     1      25.565  -0.207  53.539  1.00  0.00     0.006 C 
HETATM   15  C11 UNL     1      25.563   0.680  52.334  1.00  0.00     0.162 C 
HETATM   16  C13 UNL     1      24.711   1.891  52.521  1.00  0.00     0.166 C 
BRANCH  15  17
HETATM   17  O2  UNL     1      26.820   1.029  51.906  1.00  0.00    -0.385 OA
HETATM   18  C12 UNL     1      26.732   2.292  51.287  1.00  0.00     0.202 C 
ENDBRANCH  15  17
ENDBRANCH   7  10
BRANCH   9  19
HETATM   19  O3  UNL     1      20.261   2.763  49.491  1.00  0.00    -0.380 OA
HETATM   20  C16 UNL     1      19.233   2.949  48.604  1.00  0.00     0.202 C 
ENDBRANCH   9  19
BRANCH   1  21
HETATM   21  O1  UNL     1      22.239   2.818  46.720  1.00  0.00    -0.357 OA
HETATM   22  C1  UNL     1      21.846   3.732  45.720  1.00  0.00     0.209 C 
ENDBRANCH   1  21
TORSDOF 4
ENDMDL
MODEL 9
REMARK VINA RESULT:      -6.0      3.432      5.046
REMARK  4 active torsions:
REMARK  status: ('A' for Active; 'I' for Inactive)
REMARK    1  A    between atoms: O1_2  and  C2_3 
REMARK    2  A    between atoms: C6_9  and  N3_10 
REMARK    3  A    between atoms: C11_15  and  O2_16 
REMARK    4  A    between atoms: C15_20  and  O3_21 
ROOT
HETATM    1  C2  UNL     1      23.538   5.257  50.999  1.00  0.00     0.079 C 
HETATM    2  C3  UNL     1      22.326   5.103  50.490  1.00  0.00     0.054 C 
HETATM    3  C4  UNL     1      21.776   3.911  49.884  1.00  0.00     0.120 C 
HETATM    4  N1  UNL     1      22.476   2.843  49.791  1.00  0.00    -0.254 NA
HETATM    5  C5  UNL     1      21.901   1.692  49.188  1.00  0.00     0.234 C 
HETATM    6  N2  UNL     1      22.529   1.265  50.203  1.00  0.00    -0.225 NA
HETATM    7  C6  UNL     1      23.270   1.985  51.141  1.00  0.00     0.130 C 
HETATM    8  C14 UNL     1      24.011   2.939  51.648  1.00  0.00     0.062 C 
HETATM    9  C15 UNL     1      24.545   4.169  51.019  1.00  0.00     0.204 C 
ENDROOT
BRANCH   7  10
HETATM   10  N3  UNL     1      22.884   0.884  51.993  1.00  0.00    -0.339 N 
HETATM   11  C7  UNL     1      23.929   0.452  52.892  1.00  0.00     0.092 C 
HETATM   12  C8  UNL     1      23.981  -0.360  53.963  1.00  0.00     0.017 C 
HETATM   13  C9  UNL     1      22.811  -1.062  54.498  1.00  0.00    -0.000 C 
HETATM   14  C10 UNL     1      21.515  -0.871  54.308  1.00  0.00     0.006 C 
HETATM   15  C11 UNL     1      20.993   0.213  53.419  1.00  0.00     0.162 C 
HETATM   16  C13 UNL     1      21.610   0.177  52.060  1.00  0.00     0.166 C 
BRANCH  15  17
HETATM   17  O2  UNL     1      19.623   0.242  53.332  1.00  0.00    -0.385 OA
HETATM   18  C12 UNL     1      19.269   0.025  51.985  1.00  0.00     0.202 C 
ENDBRANCH  15  17
ENDBRANCH   7  10
BRANCH   9  19
HETATM   19  O3  UNL     1      24.961   3.807  49.745  1.00  0.00    -0.380 OA
HETATM   20  C16 UNL     1      26.147   4.364  49.338  1.00  0.00     0.202 C 
ENDBRANCH   9  19
BRANCH   1  21
HETATM   21  O1  UNL     1      23.890   6.493  51.543  1.00  0.00    -0.357 OA
HETATM   22  C1  UNL     1      24.057   7.649  50.752  1.00  0.00     0.209 C 
ENDBRANCH   1  21
TORSDOF 4
ENDMDL
