MODEL 1
REMARK VINA RESULT:      -7.4      0.000      0.000
REMARK  7 active torsions:
REMARK  status: ('A' for Active; 'I' for Inactive)
REMARK    1  A    between atoms: C2_2  and  C3_4 
REMARK    2  A    between atoms: C4_6  and  C5_7 
REMARK    3  A    between atoms: C6_8  and  N1_9 
REMARK    4  A    between atoms: N1_9  and  C7_10 
REMARK    5  A    between atoms: C10_15  and  O1_16 
REMARK    6  A    between atoms: C13_19  and  O2_20 
REMARK    7  A    between atoms: O2_20  and  C14_21 
ROOT
HETATM    1  C7  UNL     1      25.804   1.972  51.222  1.00  0.00     0.041 A 
HETATM    2  P1  UNL     1      24.868   1.854  52.555  1.00  0.00    -0.002 P 
HETATM    3  C8  UNL     1      23.585   3.003  52.983  1.00  0.00     0.085 A 
HETATM    4  N2  UNL     1      22.839   1.940  52.826  1.00  0.00    -0.254 NA
HETATM    5  C9  UNL     1      23.341   0.700  52.463  1.00  0.00     0.191 A 
HETATM    6  C10 UNL     1      23.887  -0.286  53.370  1.00  0.00     0.065 C 
HETATM    7  C12 UNL     1      25.178  -0.654  53.482  1.00  0.00     0.067 C 
HETATM    8  C13 UNL     1      26.414  -0.222  52.829  1.00  0.00     0.065 C 
HETATM    9  C17 UNL     1      26.363   0.833  51.989  1.00  0.00     0.138 A 
ENDROOT
BRANCH   1  10
HETATM   10  N1  UNL     1      25.567   3.057  50.359  1.00  0.00    -0.367 N 
HETATM   11  H6  UNL     1      24.524   3.193  50.285  1.00  0.00     0.165 HD
BRANCH  10  12
HETATM   12  C6  UNL     1      26.743   3.652  49.841  1.00  0.00     0.088 C 
HETATM   13  C5  UNL     1      26.734   4.620  48.946  1.00  0.00     0.020 C 
BRANCH  13  14
HETATM   14  C4  UNL     1      28.043   5.101  48.539  1.00  0.00     0.045 C 
HETATM   15  C3  UNL     1      28.017   6.346  48.121  1.00  0.00     0.135 C 
HETATM   16  F1  UNL     1      26.975   7.175  48.031  1.00  0.00    -0.204 F 
BRANCH  15  17
HETATM   17  C2  UNL     1      29.176   7.055  47.664  1.00  0.00     0.038 C 
HETATM   18  C1  UNL     1      30.223   7.651  47.170  1.00  0.00     0.206 C 
HETATM   19 CL1  UNL     1      29.855   8.252  48.761  1.00  0.00    -0.221 Cl
ENDBRANCH  15  17
ENDBRANCH  13  14
ENDBRANCH  10  12
ENDBRANCH   1  10
BRANCH   8  20
HETATM   20  O2  UNL     1      27.675  -0.737  52.936  1.00  0.00    -0.350 OA
BRANCH  20  21
HETATM   21  C14 UNL     1      28.758  -0.081  53.566  1.00  0.00     0.120 C 
HETATM   22  C15 UNL     1      28.445   0.262  55.005  1.00  0.00     0.040 C 
HETATM   23  C16 UNL     1      29.987  -0.961  53.446  1.00  0.00     0.040 C 
ENDBRANCH  20  21
ENDBRANCH   8  20
BRANCH   6  24
HETATM   24  O1  UNL     1      23.062  -0.984  54.266  1.00  0.00    -0.359 OA
HETATM   25  C11 UNL     1      21.756  -1.402  53.882  1.00  0.00     0.209 C 
ENDBRANCH   6  24
TORSDOF 7
ENDMDL
MODEL 2
REMARK VINA RESULT:      -7.1      4.238      6.988
REMARK  7 active torsions:
REMARK  status: ('A' for Active; 'I' for Inactive)
REMARK    1  A    between atoms: C2_2  and  C3_4 
REMARK    2  A    between atoms: C4_6  and  C5_7 
REMARK    3  A    between atoms: C6_8  and  N1_9 
REMARK    4  A    between atoms: N1_9  and  C7_10 
REMARK    5  A    between atoms: C10_15  and  O1_16 
REMARK    6  A    between atoms: C13_19  and  O2_20 
REMARK    7  A    between atoms: O2_20  and  C14_21 
ROOT
HETATM    1  C7  UNL     1      24.169   2.636  52.787  1.00  0.00     0.041 A 
HETATM    2  P1  UNL     1      25.426   1.964  51.992  1.00  0.00    -0.002 P 
HETATM    3  C8  UNL     1      26.564   2.867  50.972  1.00  0.00     0.085 A 
HETATM    4  N2  UNL     1      27.411   2.462  51.883  1.00  0.00    -0.254 NA
HETATM    5  C9  UNL     1      27.049   1.691  52.975  1.00  0.00     0.191 A 
HETATM    6  C10 UNL     1      26.933   0.249  52.989  1.00  0.00     0.065 C 
HETATM    7  C12 UNL     1      25.798  -0.471  53.078  1.00  0.00     0.067 C 
HETATM    8  C13 UNL     1      24.380  -0.119  53.149  1.00  0.00     0.065 C 
HETATM    9  C17 UNL     1      24.030   1.177  53.006  1.00  0.00     0.138 A 
ENDROOT
BRANCH   1  10
HETATM   10  N1  UNL     1      23.984   4.025  52.652  1.00  0.00    -0.367 N 
HETATM   11  H6  UNL     1      24.913   4.495  52.826  1.00  0.00     0.165 HD
BRANCH  10  12
HETATM   12  C6  UNL     1      22.658   4.404  52.332  1.00  0.00     0.088 C 
HETATM   13  C5  UNL     1      21.944   3.820  51.390  1.00  0.00     0.020 C 
BRANCH  13  14
HETATM   14  C4  UNL     1      20.603   4.351  51.212  1.00  0.00     0.045 C 
HETATM   15  C3  UNL     1      19.669   3.498  51.572  1.00  0.00     0.135 C 
HETATM   16  F1  UNL     1      19.810   2.262  52.057  1.00  0.00    -0.204 F 
BRANCH  15  17
HETATM   17  C2  UNL     1      18.266   3.777  51.495  1.00  0.00     0.038 C 
HETATM   18  C1  UNL     1      16.999   4.082  51.501  1.00  0.00     0.206 C 
HETATM   19 CL1  UNL     1      17.383   3.036  50.164  1.00  0.00    -0.221 Cl
ENDBRANCH  15  17
ENDBRANCH  13  14
ENDBRANCH  10  12
ENDBRANCH   1  10
BRANCH   8  20
HETATM   20  O2  UNL     1      23.295  -0.927  53.347  1.00  0.00    -0.350 OA
BRANCH  20  21
HETATM   21  C14 UNL     1      22.456  -0.878  54.484  1.00  0.00     0.120 C 
HETATM   22  C15 UNL     1      21.141  -1.583  54.241  1.00  0.00     0.040 C 
HETATM   23  C16 UNL     1      23.208  -1.468  55.661  1.00  0.00     0.040 C 
ENDBRANCH  20  21
ENDBRANCH   8  20
BRANCH   6  24
HETATM   24  O1  UNL     1      28.069  -0.571  52.903  1.00  0.00    -0.359 OA
HETATM   25  C11 UNL     1      29.209  -0.327  53.721  1.00  0.00     0.209 C 
ENDBRANCH   6  24
TORSDOF 7
ENDMDL
MODEL 3
REMARK VINA RESULT:      -7.1      3.585      5.763
REMARK  7 active torsions:
REMARK  status: ('A' for Active; 'I' for Inactive)
REMARK    1  A    between atoms: C2_2  and  C3_4 
REMARK    2  A    between atoms: C4_6  and  C5_7 
REMARK    3  A    between atoms: C6_8  and  N1_9 
REMARK    4  A    between atoms: N1_9  and  C7_10 
REMARK    5  A    between atoms: C10_15  and  O1_16 
REMARK    6  A    between atoms: C13_19  and  O2_20 
REMARK    7  A    between atoms: O2_20  and  C14_21 
ROOT
HETATM    1  C7  UNL     1      24.216   2.708  52.846  1.00  0.00     0.041 A 
HETATM    2  P1  UNL     1      25.429   1.988  52.025  1.00  0.00    -0.002 P 
HETATM    3  C8  UNL     1      26.620   2.853  51.033  1.00  0.00     0.085 A 
HETATM    4  N2  UNL     1      27.441   2.365  51.928  1.00  0.00    -0.254 NA
HETATM    5  C9  UNL     1      27.032   1.581  52.994  1.00  0.00     0.191 A 
HETATM    6  C10 UNL     1      26.828   0.150  52.958  1.00  0.00     0.065 C 
HETATM    7  C12 UNL     1      25.651  -0.502  53.025  1.00  0.00     0.067 C 
HETATM    8  C13 UNL     1      24.257  -0.066  53.112  1.00  0.00     0.065 C 
HETATM    9  C17 UNL     1      23.988   1.253  53.015  1.00  0.00     0.138 A 
ENDROOT
BRANCH   1  10
HETATM   10  N1  UNL     1      24.117   4.109  52.759  1.00  0.00    -0.367 N 
HETATM   11  H6  UNL     1      24.755   4.526  53.488  1.00  0.00     0.165 HD
BRANCH  10  12
HETATM   12  C6  UNL     1      23.225   4.565  51.759  1.00  0.00     0.088 C 
HETATM   13  C5  UNL     1      22.043   5.086  52.023  1.00  0.00     0.020 C 
BRANCH  13  14
HETATM   14  C4  UNL     1      21.273   5.497  50.862  1.00  0.00     0.045 C 
HETATM   15  C3  UNL     1      21.499   6.746  50.521  1.00  0.00     0.135 C 
HETATM   16  F1  UNL     1      22.315   7.633  51.096  1.00  0.00    -0.204 F 
BRANCH  15  17
HETATM   17  C2  UNL     1      20.866   7.395  49.411  1.00  0.00     0.038 C 
HETATM   18  C1  UNL     1      20.345   7.934  48.347  1.00  0.00     0.206 C 
HETATM   19 CL1  UNL     1      19.616   8.574  49.791  1.00  0.00    -0.221 Cl
ENDBRANCH  15  17
ENDBRANCH  13  14
ENDBRANCH  10  12
ENDBRANCH   1  10
BRANCH   8  20
HETATM   20  O2  UNL     1      23.125  -0.813  53.285  1.00  0.00    -0.350 OA
BRANCH  20  21
HETATM   21  C14 UNL     1      22.342  -0.820  54.463  1.00  0.00     0.120 C 
HETATM   22  C15 UNL     1      21.029  -1.541  54.259  1.00  0.00     0.040 C 
HETATM   23  C16 UNL     1      23.162  -1.438  55.579  1.00  0.00     0.040 C 
ENDBRANCH  20  21
ENDBRANCH   8  20
BRANCH   6  24
HETATM   24  O1  UNL     1      27.911  -0.736  52.841  1.00  0.00    -0.359 OA
HETATM   25  C11 UNL     1      29.098  -0.542  53.604  1.00  0.00     0.209 C 
ENDBRANCH   6  24
TORSDOF 7
ENDMDL
MODEL 4
REMARK VINA RESULT:      -7.1      2.877      3.360
REMARK  7 active torsions:
REMARK  status: ('A' for Active; 'I' for Inactive)
REMARK    1  A    between atoms: C2_2  and  C3_4 
REMARK    2  A    between atoms: C4_6  and  C5_7 
REMARK    3  A    between atoms: C6_8  and  N1_9 
REMARK    4  A    between atoms: N1_9  and  C7_10 
REMARK    5  A    between atoms: C10_15  and  O1_16 
REMARK    6  A    between atoms: C13_19  and  O2_20 
REMARK    7  A    between atoms: O2_20  and  C14_21 
ROOT
HETATM    1  C7  UNL     1      26.671   2.083  52.091  1.00  0.00     0.041 A 
HETATM    2  P1  UNL     1      25.384   2.015  53.093  1.00  0.00    -0.002 P 
HETATM    3  C8  UNL     1      24.143   3.278  53.216  1.00  0.00     0.085 A 
HETATM    4  N2  UNL     1      23.379   2.308  52.782  1.00  0.00    -0.254 NA
HETATM    5  C9  UNL     1      23.849   1.036  52.494  1.00  0.00     0.191 A 
HETATM    6  C10 UNL     1      24.016  -0.036  53.449  1.00  0.00     0.065 C 
HETATM    7  C12 UNL     1      25.180  -0.546  53.898  1.00  0.00     0.067 C 
HETATM    8  C13 UNL     1      26.586  -0.224  53.653  1.00  0.00     0.065 C 
HETATM    9  C17 UNL     1      26.878   0.862  52.906  1.00  0.00     0.138 A 
ENDROOT
BRANCH   1  10
HETATM   10  N1  UNL     1      26.795   3.219  51.271  1.00  0.00    -0.367 N 
HETATM   11  H6  UNL     1      27.607   3.791  51.627  1.00  0.00     0.165 HD
BRANCH  10  12
HETATM   12  C6  UNL     1      25.835   3.291  50.232  1.00  0.00     0.088 C 
HETATM   13  C5  UNL     1      25.127   4.371  49.972  1.00  0.00     0.020 C 
BRANCH  13  14
HETATM   14  C4  UNL     1      24.194   4.249  48.865  1.00  0.00     0.045 C 
HETATM   15  C3  UNL     1      23.432   5.310  48.725  1.00  0.00     0.135 C 
HETATM   16  F1  UNL     1      23.420   6.430  49.450  1.00  0.00    -0.204 F 
BRANCH  15  17
HETATM   17  C2  UNL     1      22.430   5.441  47.708  1.00  0.00     0.038 C 
HETATM   18  C1  UNL     1      21.466   5.502  46.834  1.00  0.00     0.206 C 
HETATM   19 CL1  UNL     1      22.810   6.497  46.352  1.00  0.00    -0.221 Cl
ENDBRANCH  15  17
ENDBRANCH  13  14
ENDBRANCH  10  12
ENDBRANCH   1  10
BRANCH   8  20
HETATM   20  O2  UNL     1      27.711  -0.875  54.078  1.00  0.00    -0.350 OA
BRANCH  20  21
HETATM   21  C14 UNL     1      28.777  -1.265  53.235  1.00  0.00     0.120 C 
HETATM   22  C15 UNL     1      30.112  -0.793  53.766  1.00  0.00     0.040 C 
HETATM   23  C16 UNL     1      28.732  -2.772  53.071  1.00  0.00     0.040 C 
ENDBRANCH  20  21
ENDBRANCH   8  20
BRANCH   6  24
HETATM   24  O1  UNL     1      22.907  -0.676  54.026  1.00  0.00    -0.359 OA
HETATM   25  C11 UNL     1      23.011  -1.313  55.295  1.00  0.00     0.209 C 
ENDBRANCH   6  24
TORSDOF 7
ENDMDL
MODEL 5
REMARK VINA RESULT:      -7.1      3.431      5.407
REMARK  7 active torsions:
REMARK  status: ('A' for Active; 'I' for Inactive)
REMARK    1  A    between atoms: C2_2  and  C3_4 
REMARK    2  A    between atoms: C4_6  and  C5_7 
REMARK    3  A    between atoms: C6_8  and  N1_9 
REMARK    4  A    between atoms: N1_9  and  C7_10 
REMARK    5  A    between atoms: C10_15  and  O1_16 
REMARK    6  A    between atoms: C13_19  and  O2_20 
REMARK    7  A    between atoms: O2_20  and  C14_21 
ROOT
HETATM    1  C7  UNL     1      24.296   2.665  52.892  1.00  0.00     0.041 A 
HETATM    2  P1  UNL     1      25.503   1.946  52.060  1.00  0.00    -0.002 P 
HETATM    3  C8  UNL     1      26.705   2.817  51.086  1.00  0.00     0.085 A 
HETATM    4  N2  UNL     1      27.519   2.304  51.972  1.00  0.00    -0.254 NA
HETATM    5  C9  UNL     1      27.100   1.505  53.024  1.00  0.00     0.191 A 
HETATM    6  C10 UNL     1      26.881   0.077  52.961  1.00  0.00     0.065 C 
HETATM    7  C12 UNL     1      25.696  -0.563  53.015  1.00  0.00     0.067 C 
HETATM    8  C13 UNL     1      24.307  -0.114  53.108  1.00  0.00     0.065 C 
HETATM    9  C17 UNL     1      24.052   1.210  53.034  1.00  0.00     0.138 A 
ENDROOT
BRANCH   1  10
HETATM   10  N1  UNL     1      24.213   4.068  52.831  1.00  0.00    -0.367 N 
HETATM   11  H6  UNL     1      24.625   4.458  53.720  1.00  0.00     0.165 HD
BRANCH  10  12
HETATM   12  C6  UNL     1      23.623   4.561  51.642  1.00  0.00     0.088 C 
HETATM   13  C5  UNL     1      22.509   4.077  51.129  1.00  0.00     0.020 C 
BRANCH  13  14
HETATM   14  C4  UNL     1      22.062   4.717  49.904  1.00  0.00     0.045 C 
HETATM   15  C3  UNL     1      22.561   4.154  48.827  1.00  0.00     0.135 C 
HETATM   16  F1  UNL     1      23.392   3.113  48.738  1.00  0.00    -0.204 F 
BRANCH  15  17
HETATM   17  C2  UNL     1      22.276   4.595  47.494  1.00  0.00     0.038 C 
HETATM   18  C1  UNL     1      22.028   5.084  46.312  1.00  0.00     0.206 C 
HETATM   19 CL1  UNL     1      21.941   3.346  46.299  1.00  0.00    -0.221 Cl
ENDBRANCH  15  17
ENDBRANCH  13  14
ENDBRANCH  10  12
ENDBRANCH   1  10
BRANCH   8  20
HETATM   20  O2  UNL     1      23.167  -0.851  53.266  1.00  0.00    -0.350 OA
BRANCH  20  21
HETATM   21  C14 UNL     1      22.367  -0.850  54.432  1.00  0.00     0.120 C 
HETATM   22  C15 UNL     1      21.056  -1.570  54.213  1.00  0.00     0.040 C 
HETATM   23  C16 UNL     1      23.170  -1.464  55.563  1.00  0.00     0.040 C 
ENDBRANCH  20  21
ENDBRANCH   8  20
BRANCH   6  24
HETATM   24  O1  UNL     1      27.955  -0.818  52.829  1.00  0.00    -0.359 OA
HETATM   25  C11 UNL     1      29.160  -0.625  53.563  1.00  0.00     0.209 C 
ENDBRANCH   6  24
TORSDOF 7
ENDMDL
MODEL 6
REMARK VINA RESULT:      -6.8      1.979      2.415
REMARK  7 active torsions:
REMARK  status: ('A' for Active; 'I' for Inactive)
REMARK    1  A    between atoms: C2_2  and  C3_4 
REMARK    2  A    between atoms: C4_6  and  C5_7 
REMARK    3  A    between atoms: C6_8  and  N1_9 
REMARK    4  A    between atoms: N1_9  and  C7_10 
REMARK    5  A    between atoms: C10_15  and  O1_16 
REMARK    6  A    between atoms: C13_19  and  O2_20 
REMARK    7  A    between atoms: O2_20  and  C14_21 
ROOT
HETATM    1  C7  UNL     1      23.324   2.588  50.962  1.00  0.00     0.041 A 
HETATM    2  P1  UNL     1      22.387   2.130  52.218  1.00  0.00    -0.002 P 
HETATM    3  C8  UNL     1      20.801   2.833  52.593  1.00  0.00     0.085 A 
HETATM    4  N2  UNL     1      20.408   1.611  52.343  1.00  0.00    -0.254 NA
HETATM    5  C9  UNL     1      21.271   0.592  51.972  1.00  0.00     0.191 A 
HETATM    6  C10 UNL     1      22.027  -0.244  52.879  1.00  0.00     0.065 C 
HETATM    7  C12 UNL     1      23.360  -0.230  53.071  1.00  0.00     0.067 C 
HETATM    8  C13 UNL     1      24.452   0.577  52.527  1.00  0.00     0.065 C 
HETATM    9  C17 UNL     1      24.145   1.618  51.724  1.00  0.00     0.138 A 
ENDROOT
BRANCH   1  10
HETATM   10  N1  UNL     1      22.832   3.606  50.124  1.00  0.00    -0.367 N 
HETATM   11  H6  UNL     1      21.820   3.394  49.912  1.00  0.00     0.165 HD
BRANCH  10  12
HETATM   12  C6  UNL     1      23.785   4.602  49.801  1.00  0.00     0.088 C 
HETATM   13  C5  UNL     1      24.933   4.342  49.207  1.00  0.00     0.020 C 
BRANCH  13  14
HETATM   14  C4  UNL     1      25.778   5.497  48.958  1.00  0.00     0.045 C 
HETATM   15  C3  UNL     1      27.022   5.167  48.696  1.00  0.00     0.135 C 
HETATM   16  F1  UNL     1      27.569   3.951  48.638  1.00  0.00    -0.204 F 
BRANCH  15  17
HETATM   17  C2  UNL     1      28.055   6.120  48.416  1.00  0.00     0.038 C 
HETATM   18  C1  UNL     1      28.932   7.054  48.179  1.00  0.00     0.206 C 
HETATM   19 CL1  UNL     1      29.632   5.474  47.976  1.00  0.00    -0.221 Cl
ENDBRANCH  15  17
ENDBRANCH  13  14
ENDBRANCH  10  12
ENDBRANCH   1  10
BRANCH   8  20
HETATM   20  O2  UNL     1      25.801   0.443  52.706  1.00  0.00    -0.350 OA
BRANCH  20  21
HETATM   21  C14 UNL     1      26.402  -0.438  53.634  1.00  0.00     0.120 C 
HETATM   22  C15 UNL     1      27.776  -0.878  53.179  1.00  0.00     0.040 C 
HETATM   23  C16 UNL     1      26.443   0.246  54.986  1.00  0.00     0.040 C 
ENDBRANCH  20  21
ENDBRANCH   8  20
BRANCH   6  24
HETATM   24  O1  UNL     1      21.390  -1.200  53.687  1.00  0.00    -0.359 OA
HETATM   25  C11 UNL     1      21.964  -1.607  54.925  1.00  0.00     0.209 C 
ENDBRANCH   6  24
TORSDOF 7
ENDMDL
MODEL 7
REMARK VINA RESULT:      -6.8      5.498      9.224
REMARK  7 active torsions:
REMARK  status: ('A' for Active; 'I' for Inactive)
REMARK    1  A    between atoms: C2_2  and  C3_4 
REMARK    2  A    between atoms: C4_6  and  C5_7 
REMARK    3  A    between atoms: C6_8  and  N1_9 
REMARK    4  A    between atoms: N1_9  and  C7_10 
REMARK    5  A    between atoms: C10_15  and  O1_16 
REMARK    6  A    between atoms: C13_19  and  O2_20 
REMARK    7  A    between atoms: O2_20  and  C14_21 
ROOT
HETATM    1  C7  UNL     1      29.377   5.769  48.350  1.00  0.00     0.041 A 
HETATM    2  P1  UNL     1      30.336   7.046  48.008  1.00  0.00    -0.002 P 
HETATM    3  C8  UNL     1      29.813   8.740  48.083  1.00  0.00     0.085 A 
HETATM    4  N2  UNL     1      30.726   8.785  49.019  1.00  0.00    -0.254 NA
HETATM    5  C9  UNL     1      31.482   7.689  49.403  1.00  0.00     0.191 A 
HETATM    6  C10 UNL     1      32.701   7.241  48.767  1.00  0.00     0.065 C 
HETATM    7  C12 UNL     1      32.865   6.125  48.030  1.00  0.00     0.067 C 
HETATM    8  C13 UNL     1      31.964   5.058  47.595  1.00  0.00     0.065 C 
HETATM    9  C17 UNL     1      30.646   5.181  47.859  1.00  0.00     0.138 A 
ENDROOT
BRANCH   1  10
HETATM   10  N1  UNL     1      28.051   6.040  48.733  1.00  0.00    -0.367 N 
HETATM   11  H6  UNL     1      27.935   7.087  48.790  1.00  0.00     0.165 HD
BRANCH  10  12
HETATM   12  C6  UNL     1      27.259   4.883  48.933  1.00  0.00     0.088 C 
HETATM   13  C5  UNL     1      25.994   4.925  49.302  1.00  0.00     0.020 C 
BRANCH  13  14
HETATM   14  C4  UNL     1      25.350   3.631  49.453  1.00  0.00     0.045 C 
HETATM   15  C3  UNL     1      24.625   3.551  50.546  1.00  0.00     0.135 C 
HETATM   16  F1  UNL     1      24.426   4.479  51.486  1.00  0.00    -0.204 F 
BRANCH  15  17
HETATM   17  C2  UNL     1      23.888   2.383  50.928  1.00  0.00     0.038 C 
HETATM   18  C1  UNL     1      23.151   1.349  51.219  1.00  0.00     0.206 C 
HETATM   19 CL1  UNL     1      24.661   1.301  52.082  1.00  0.00    -0.221 Cl
ENDBRANCH  15  17
ENDBRANCH  13  14
ENDBRANCH  10  12
ENDBRANCH   1  10
BRANCH   8  20
HETATM   20  O2  UNL     1      32.252   3.898  46.931  1.00  0.00    -0.350 OA
BRANCH  20  21
HETATM   21  C14 UNL     1      32.966   2.812  47.488  1.00  0.00     0.120 C 
HETATM   22  C15 UNL     1      32.528   1.491  46.896  1.00  0.00     0.040 C 
HETATM   23  C16 UNL     1      34.448   3.060  47.287  1.00  0.00     0.040 C 
ENDBRANCH  20  21
ENDBRANCH   8  20
BRANCH   6  24
HETATM   24  O1  UNL     1      33.889   7.981  48.871  1.00  0.00    -0.359 OA
HETATM   25  C11 UNL     1      34.975   7.747  47.979  1.00  0.00     0.209 C 
ENDBRANCH   6  24
TORSDOF 7
ENDMDL
MODEL 8
REMARK VINA RESULT:      -6.8      4.828      8.985
REMARK  7 active torsions:
REMARK  status: ('A' for Active; 'I' for Inactive)
REMARK    1  A    between atoms: C2_2  and  C3_4 
REMARK    2  A    between atoms: C4_6  and  C5_7 
REMARK    3  A    between atoms: C6_8  and  N1_9 
REMARK    4  A    between atoms: N1_9  and  C7_10 
REMARK    5  A    between atoms: C10_15  and  O1_16 
REMARK    6  A    between atoms: C13_19  and  O2_20 
REMARK    7  A    between atoms: O2_20  and  C14_21 
ROOT
HETATM    1  C7  UNL     1      27.874   5.991  48.442  1.00  0.00     0.041 A 
HETATM    2  P1  UNL     1      28.586   7.298  47.769  1.00  0.00    -0.002 P 
HETATM    3  C8  UNL     1      27.709   8.726  47.184  1.00  0.00     0.085 A 
HETATM    4  N2  UNL     1      28.401   9.306  48.130  1.00  0.00    -0.254 NA
HETATM    5  C9  UNL     1      29.288   8.630  48.954  1.00  0.00     0.191 A 
HETATM    6  C10 UNL     1      30.671   8.341  48.645  1.00  0.00     0.065 C 
HETATM    7  C12 UNL     1      31.204   7.134  48.373  1.00  0.00     0.067 C 
HETATM    8  C13 UNL     1      30.647   5.786  48.255  1.00  0.00     0.065 C 
HETATM    9  C17 UNL     1      29.308   5.634  48.323  1.00  0.00     0.138 A 
ENDROOT
BRANCH   1  10
HETATM   10  N1  UNL     1      26.473   6.010  48.567  1.00  0.00    -0.367 N 
HETATM   11  H6  UNL     1      26.123   6.926  48.179  1.00  0.00     0.165 HD
BRANCH  10  12
HETATM   12  C6  UNL     1      25.929   4.843  49.157  1.00  0.00     0.088 C 
HETATM   13  C5  UNL     1      26.667   3.874  49.662  1.00  0.00     0.020 C 
BRANCH  13  14
HETATM   14  C4  UNL     1      25.924   2.759  50.225  1.00  0.00     0.045 C 
HETATM   15  C3  UNL     1      26.440   2.325  51.352  1.00  0.00     0.135 C 
HETATM   16  F1  UNL     1      27.517   2.770  52.004  1.00  0.00    -0.204 F 
BRANCH  15  17
HETATM   17  C2  UNL     1      25.897   1.234  52.107  1.00  0.00     0.038 C 
HETATM   18  C1  UNL     1      25.339   0.303  52.826  1.00  0.00     0.206 C 
HETATM   19 CL1  UNL     1      26.699  -0.323  51.940  1.00  0.00    -0.221 Cl
ENDBRANCH  15  17
ENDBRANCH  13  14
ENDBRANCH  10  12
ENDBRANCH   1  10
BRANCH   8  20
HETATM   20  O2  UNL     1      31.294   4.594  48.079  1.00  0.00    -0.350 OA
BRANCH  20  21
HETATM   21  C14 UNL     1      32.336   4.379  47.148  1.00  0.00     0.120 C 
HETATM   22  C15 UNL     1      33.696   4.436  47.806  1.00  0.00     0.040 C 
HETATM   23  C16 UNL     1      32.095   3.050  46.458  1.00  0.00     0.040 C 
ENDBRANCH  20  21
ENDBRANCH   8  20
BRANCH   6  24
HETATM   24  O1  UNL     1      31.634   9.362  48.600  1.00  0.00    -0.359 OA
HETATM   25  C11 UNL     1      31.869  10.090  47.399  1.00  0.00     0.209 C 
ENDBRANCH   6  24
TORSDOF 7
ENDMDL
MODEL 9
REMARK VINA RESULT:      -6.8      4.351      6.436
REMARK  7 active torsions:
REMARK  status: ('A' for Active; 'I' for Inactive)
REMARK    1  A    between atoms: C2_2  and  C3_4 
REMARK    2  A    between atoms: C4_6  and  C5_7 
REMARK    3  A    between atoms: C6_8  and  N1_9 
REMARK    4  A    between atoms: N1_9  and  C7_10 
REMARK    5  A    between atoms: C10_15  and  O1_16 
REMARK    6  A    between atoms: C13_19  and  O2_20 
REMARK    7  A    between atoms: O2_20  and  C14_21 
ROOT
HETATM    1  C7  UNL     1      23.641   2.413  51.270  1.00  0.00     0.041 A 
HETATM    2  P1  UNL     1      22.575   3.380  52.040  1.00  0.00    -0.002 P 
HETATM    3  C8  UNL     1      22.725   5.144  52.157  1.00  0.00     0.085 A 
HETATM    4  N2  UNL     1      21.612   5.097  51.471  1.00  0.00    -0.254 NA
HETATM    5  C9  UNL     1      21.009   3.914  51.074  1.00  0.00     0.191 A 
HETATM    6  C10 UNL     1      20.103   3.120  51.874  1.00  0.00     0.065 C 
HETATM    7  C12 UNL     1      20.350   1.911  52.416  1.00  0.00     0.067 C 
HETATM    8  C13 UNL     1      21.521   1.034  52.441  1.00  0.00     0.065 C 
HETATM    9  C17 UNL     1      22.678   1.490  51.917  1.00  0.00     0.138 A 
ENDROOT
BRANCH   1  10
HETATM   10  N1  UNL     1      24.748   3.028  50.657  1.00  0.00    -0.367 N 
HETATM   11  H6  UNL     1      24.387   3.788  50.021  1.00  0.00     0.165 HD
BRANCH  10  12
HETATM   12  C6  UNL     1      25.998   2.485  51.041  1.00  0.00     0.088 C 
HETATM   13  C5  UNL     1      26.258   2.053  52.259  1.00  0.00     0.020 C 
BRANCH  13  14
HETATM   14  C4  UNL     1      27.599   1.529  52.457  1.00  0.00     0.045 C 
HETATM   15  C3  UNL     1      27.616   0.456  53.215  1.00  0.00     0.135 C 
HETATM   16  F1  UNL     1      26.592  -0.172  53.796  1.00  0.00    -0.204 F 
BRANCH  15  17
HETATM   17  C2  UNL     1      28.813  -0.252  53.563  1.00  0.00     0.038 C 
HETATM   18  C1  UNL     1      29.930  -0.819  53.921  1.00  0.00     0.206 C 
HETATM   19 CL1  UNL     1      28.917  -1.932  53.049  1.00  0.00    -0.221 Cl
ENDBRANCH  15  17
ENDBRANCH  13  14
ENDBRANCH  10  12
ENDBRANCH   1  10
BRANCH   8  20
HETATM   20  O2  UNL     1      21.641  -0.236  52.933  1.00  0.00    -0.350 OA
BRANCH  20  21
HETATM   21  C14 UNL     1      21.204  -0.643  54.215  1.00  0.00     0.120 C 
HETATM   22  C15 UNL     1      20.062  -1.630  54.130  1.00  0.00     0.040 C 
HETATM   23  C16 UNL     1      22.391  -1.212  54.967  1.00  0.00     0.040 C 
ENDBRANCH  20  21
ENDBRANCH   8  20
BRANCH   6  24
HETATM   24  O1  UNL     1      18.808   3.573  52.172  1.00  0.00    -0.359 OA
HETATM   25  C11 UNL     1      17.744   3.403  51.241  1.00  0.00     0.209 C 
ENDBRANCH   6  24
TORSDOF 7
ENDMDL
