MODEL 1
REMARK VINA RESULT:      -8.7      0.000      0.000
REMARK  7 active torsions:
REMARK  status: ('A' for Active; 'I' for Inactive)
REMARK    1  A    between atoms: O1_2  and  C2_3 
REMARK    2  A    between atoms: C5_6  and  O2_7 
REMARK    3  A    between atoms: C7_9  and  C8_10 
REMARK    4  A    between atoms: C8_10  and  N1_11 
REMARK    5  A    between atoms: C12_16  and  N3_17 
REMARK    6  A    between atoms: C13_19  and  N5_20 
REMARK    7  A    between atoms: N5_20  and  C14_21 
ROOT
HETATM    1  N1  UNL     1      26.380   2.724  50.587  1.00  0.00    -0.336 N 
HETATM    2  C9  UNL     1      25.313   2.173  51.360  1.00  0.00     0.108 A 
HETATM    3  C10 UNL     1      26.025   1.942  52.464  1.00  0.00     0.049 A 
HETATM    4  C11 UNL     1      27.168   2.485  51.762  1.00  0.00     0.160 A 
HETATM    5  N2  UNL     1      28.242   2.475  52.513  1.00  0.00    -0.045 NA
HETATM    6  C12 UNL     1      28.201   1.975  53.840  1.00  0.00     0.719 A 
HETATM    7  N4  UNL     1      27.226   1.482  54.511  1.00  0.00    -0.075 NA
HETATM    8  C13 UNL     1      25.923   1.400  53.853  1.00  0.00     0.264 A 
ENDROOT
BRANCH   1   9
HETATM    9  C8  UNL     1      26.700   3.296  49.300  1.00  0.00     0.171 C 
BRANCH   9  10
HETATM   10  C7  UNL     1      26.436   4.750  49.273  1.00  0.00    -0.004 A 
HETATM   11  C5  UNL     1      27.506   5.478  48.723  1.00  0.00     0.076 A 
HETATM   12  C4  UNL     1      27.427   6.851  48.640  1.00  0.00     0.040 A 
HETATM   13  C3  UNL     1      26.329   7.574  49.078  1.00  0.00     0.039 A 
HETATM   14  C2  UNL     1      25.277   6.843  49.620  1.00  0.00     0.069 A 
HETATM   15  C20 UNL     1      25.354   5.485  49.702  1.00  0.00     0.048 A 
BRANCH  11  16
HETATM   16  O2  UNL     1      28.670   4.869  48.244  1.00  0.00    -0.355 OA
HETATM   17  C6  UNL     1      29.873   5.603  48.058  1.00  0.00     0.210 C 
ENDBRANCH  11  16
BRANCH  14  18
HETATM   18  O1  UNL     1      24.128   7.477  50.090  1.00  0.00    -0.356 OA
HETATM   19  C1  UNL     1      22.979   6.631  50.232  1.00  0.00     0.210 C 
ENDBRANCH  14  18
ENDBRANCH   9  10
ENDBRANCH   1   9
BRANCH   8  20
HETATM   20  N5  UNL     1      25.594  -0.020  53.836  1.00  0.00    -0.363 N 
HETATM   21  H15 UNL     1      26.303  -0.764  53.617  1.00  0.00     0.162 HD
BRANCH  20  22
HETATM   22  C14 UNL     1      24.255  -0.439  54.125  1.00  0.00     0.031 A 
HETATM   23  C15 UNL     1      23.906  -1.223  55.204  1.00  0.00     0.029 A 
HETATM   24  C16 UNL     1      22.583  -1.568  55.393  1.00  0.00     0.004 A 
HETATM   25  C17 UNL     1      21.555  -1.169  54.550  1.00  0.00     0.019 A 
HETATM   26  C18 UNL     1      21.904  -0.391  53.479  1.00  0.00     0.013 A 
HETATM   27 BR1  UNL     1      20.518   0.186  52.285  1.00  0.00    -0.051 Br
HETATM   28  C19 UNL     1      23.221  -0.038  53.278  1.00  0.00     0.048 A 
ENDBRANCH  20  22
ENDBRANCH   8  20
BRANCH   6  29
HETATM   29  N3  UNL     1      29.434   2.033  54.546  1.00  0.00    -0.231 N 
HETATM   30  H12 UNL     1      30.364   2.024  54.987  1.00  0.00     0.174 HD
HETATM   31  H13 UNL     1      29.196   2.590  55.421  1.00  0.00     0.174 HD
ENDBRANCH   6  29
TORSDOF 7
ENDMDL
MODEL 2
REMARK VINA RESULT:      -8.3      3.034      5.201
REMARK  7 active torsions:
REMARK  status: ('A' for Active; 'I' for Inactive)
REMARK    1  A    between atoms: O1_2  and  C2_3 
REMARK    2  A    between atoms: C5_6  and  O2_7 
REMARK    3  A    between atoms: C7_9  and  C8_10 
REMARK    4  A    between atoms: C8_10  and  N1_11 
REMARK    5  A    between atoms: C12_16  and  N3_17 
REMARK    6  A    between atoms: C13_19  and  N5_20 
REMARK    7  A    between atoms: N5_20  and  C14_21 
ROOT
HETATM    1  N1  UNL     1      26.568   5.327  49.059  1.00  0.00    -0.336 N 
HETATM    2  C9  UNL     1      26.726   3.979  49.507  1.00  0.00     0.108 A 
HETATM    3  C10 UNL     1      25.696   3.977  50.356  1.00  0.00     0.049 A 
HETATM    4  C11 UNL     1      25.456   5.350  49.966  1.00  0.00     0.160 A 
HETATM    5  N2  UNL     1      24.425   5.855  50.598  1.00  0.00    -0.045 NA
HETATM    6  C12 UNL     1      23.691   5.082  51.534  1.00  0.00     0.719 A 
HETATM    7  N4  UNL     1      23.856   3.871  51.920  1.00  0.00    -0.075 NA
HETATM    8  C13 UNL     1      24.963   3.118  51.333  1.00  0.00     0.264 A 
ENDROOT
BRANCH   1   9
HETATM    9  C8  UNL     1      27.114   6.318  48.163  1.00  0.00     0.171 C 
BRANCH   9  10
HETATM   10  C7  UNL     1      28.579   6.444  48.322  1.00  0.00    -0.004 A 
HETATM   11  C5  UNL     1      28.979   7.770  48.558  1.00  0.00     0.076 A 
HETATM   12  C4  UNL     1      30.317   8.063  48.711  1.00  0.00     0.040 A 
HETATM   13  C3  UNL     1      31.314   7.103  48.646  1.00  0.00     0.039 A 
HETATM   14  C2  UNL     1      30.905   5.794  48.412  1.00  0.00     0.069 A 
HETATM   15  C20 UNL     1      29.583   5.504  48.260  1.00  0.00     0.048 A 
BRANCH  11  16
HETATM   16  O2  UNL     1      28.073   8.832  48.648  1.00  0.00    -0.355 OA
HETATM   17  C6  UNL     1      27.746   9.430  49.895  1.00  0.00     0.210 C 
ENDBRANCH  11  16
BRANCH  14  18
HETATM   18  O1  UNL     1      31.831   4.756  48.327  1.00  0.00    -0.356 OA
HETATM   19  C1  UNL     1      31.930   4.130  47.041  1.00  0.00     0.210 C 
ENDBRANCH  14  18
ENDBRANCH   9  10
ENDBRANCH   1   9
BRANCH   8  20
HETATM   20  N5  UNL     1      25.819   2.759  52.458  1.00  0.00    -0.363 N 
HETATM   21  H15 UNL     1      26.164   3.466  53.155  1.00  0.00     0.162 HD
BRANCH  20  22
HETATM   22  C14 UNL     1      26.218   1.396  52.637  1.00  0.00     0.031 A 
HETATM   23  C15 UNL     1      25.369   0.318  52.508  1.00  0.00     0.029 A 
HETATM   24  C16 UNL     1      25.857  -0.959  52.698  1.00  0.00     0.004 A 
HETATM   25  C17 UNL     1      27.179  -1.238  53.019  1.00  0.00     0.019 A 
HETATM   26  C18 UNL     1      28.021  -0.166  53.147  1.00  0.00     0.013 A 
HETATM   27 BR1  UNL     1      29.857  -0.501  53.588  1.00  0.00    -0.051 Br
HETATM   28  C19 UNL     1      27.547   1.115  52.959  1.00  0.00     0.048 A 
ENDBRANCH  20  22
ENDBRANCH   8  20
BRANCH   6  29
HETATM   29  N3  UNL     1      22.591   5.750  52.138  1.00  0.00    -0.231 N 
HETATM   30  H12 UNL     1      21.832   6.209  52.659  1.00  0.00     0.174 HD
HETATM   31  H13 UNL     1      22.026   6.104  51.309  1.00  0.00     0.174 HD
ENDBRANCH   6  29
TORSDOF 7
ENDMDL
MODEL 3
REMARK VINA RESULT:      -8.1      1.736      2.304
REMARK  7 active torsions:
REMARK  status: ('A' for Active; 'I' for Inactive)
REMARK    1  A    between atoms: O1_2  and  C2_3 
REMARK    2  A    between atoms: C5_6  and  O2_7 
REMARK    3  A    between atoms: C7_9  and  C8_10 
REMARK    4  A    between atoms: C8_10  and  N1_11 
REMARK    5  A    between atoms: C12_16  and  N3_17 
REMARK    6  A    between atoms: C13_19  and  N5_20 
REMARK    7  A    between atoms: N5_20  and  C14_21 
ROOT
HETATM    1  N1  UNL     1      26.251   2.965  51.072  1.00  0.00    -0.336 N 
HETATM    2  C9  UNL     1      25.236   2.373  51.885  1.00  0.00     0.108 A 
HETATM    3  C10 UNL     1      26.054   1.869  52.811  1.00  0.00     0.049 A 
HETATM    4  C11 UNL     1      27.152   2.433  52.055  1.00  0.00     0.160 A 
HETATM    5  N2  UNL     1      28.305   2.180  52.623  1.00  0.00    -0.045 NA
HETATM    6  C12 UNL     1      28.379   1.437  53.829  1.00  0.00     0.719 A 
HETATM    7  N4  UNL     1      27.449   0.914  54.539  1.00  0.00    -0.075 NA
HETATM    8  C13 UNL     1      26.071   1.080  54.079  1.00  0.00     0.264 A 
ENDROOT
BRANCH   1   9
HETATM    9  C8  UNL     1      26.465   3.744  49.876  1.00  0.00     0.171 C 
BRANCH   9  10
HETATM   10  C7  UNL     1      25.187   4.198  49.288  1.00  0.00    -0.004 A 
HETATM   11  C5  UNL     1      25.148   5.590  49.101  1.00  0.00     0.076 A 
HETATM   12  C4  UNL     1      24.017   6.178  48.577  1.00  0.00     0.040 A 
HETATM   13  C3  UNL     1      22.888   5.458  48.215  1.00  0.00     0.039 A 
HETATM   14  C2  UNL     1      22.940   4.082  48.406  1.00  0.00     0.069 A 
HETATM   15  C20 UNL     1      24.058   3.500  48.923  1.00  0.00     0.048 A 
BRANCH  11  16
HETATM   16  O2  UNL     1      26.219   6.429  49.424  1.00  0.00    -0.355 OA
HETATM   17  C6  UNL     1      26.021   7.670  50.089  1.00  0.00     0.210 C 
ENDBRANCH  11  16
BRANCH  14  18
HETATM   18  O1  UNL     1      21.856   3.270  48.075  1.00  0.00    -0.356 OA
HETATM   19  C1  UNL     1      22.045   1.870  48.320  1.00  0.00     0.210 C 
ENDBRANCH  14  18
ENDBRANCH   9  10
ENDBRANCH   1   9
BRANCH   8  20
HETATM   20  N5  UNL     1      25.578  -0.275  53.858  1.00  0.00    -0.363 N 
HETATM   21  H15 UNL     1      26.204  -1.064  53.558  1.00  0.00     0.162 HD
BRANCH  20  22
HETATM   22  C14 UNL     1      24.188  -0.562  54.049  1.00  0.00     0.031 A 
HETATM   23  C15 UNL     1      23.679  -1.226  55.144  1.00  0.00     0.029 A 
HETATM   24  C16 UNL     1      22.320  -1.448  55.232  1.00  0.00     0.004 A 
HETATM   25  C17 UNL     1      21.408  -1.038  54.269  1.00  0.00     0.019 A 
HETATM   26  C18 UNL     1      21.915  -0.379  53.182  1.00  0.00     0.013 A 
HETATM   27 BR1  UNL     1      20.695   0.208  51.824  1.00  0.00    -0.051 Br
HETATM   28  C19 UNL     1      23.271  -0.149  53.081  1.00  0.00     0.048 A 
ENDBRANCH  20  22
ENDBRANCH   8  20
BRANCH   6  29
HETATM   29  N3  UNL     1      29.692   1.245  54.341  1.00  0.00    -0.231 N 
HETATM   30  H12 UNL     1      30.607   1.128  54.797  1.00  0.00     0.174 HD
HETATM   31  H13 UNL     1      30.262   0.990  53.480  1.00  0.00     0.174 HD
ENDBRANCH   6  29
TORSDOF 7
ENDMDL
MODEL 4
REMARK VINA RESULT:      -8.1      4.058      8.720
REMARK  7 active torsions:
REMARK  status: ('A' for Active; 'I' for Inactive)
REMARK    1  A    between atoms: O1_2  and  C2_3 
REMARK    2  A    between atoms: C5_6  and  O2_7 
REMARK    3  A    between atoms: C7_9  and  C8_10 
REMARK    4  A    between atoms: C8_10  and  N1_11 
REMARK    5  A    between atoms: C12_16  and  N3_17 
REMARK    6  A    between atoms: C13_19  and  N5_20 
REMARK    7  A    between atoms: N5_20  and  C14_21 
ROOT
HETATM    1  N1  UNL     1      24.142   2.571  51.349  1.00  0.00    -0.336 N 
HETATM    2  C9  UNL     1      25.313   3.209  50.836  1.00  0.00     0.108 A 
HETATM    3  C10 UNL     1      24.794   4.436  50.749  1.00  0.00     0.049 A 
HETATM    4  C11 UNL     1      23.561   3.880  51.264  1.00  0.00     0.160 A 
HETATM    5  N2  UNL     1      22.631   4.797  51.375  1.00  0.00    -0.045 NA
HETATM    6  C12 UNL     1      22.886   6.145  51.011  1.00  0.00     0.719 A 
HETATM    7  N4  UNL     1      23.950   6.693  50.551  1.00  0.00    -0.075 NA
HETATM    8  C13 UNL     1      25.119   5.838  50.348  1.00  0.00     0.264 A 
ENDROOT
BRANCH   1   9
HETATM    9  C8  UNL     1      23.621   1.302  51.798  1.00  0.00     0.171 C 
BRANCH   9  10
HETATM   10  C7  UNL     1      24.420   0.752  52.914  1.00  0.00    -0.004 A 
HETATM   11  C5  UNL     1      23.804  -0.357  53.518  1.00  0.00     0.076 A 
HETATM   12  C4  UNL     1      24.412  -0.978  54.587  1.00  0.00     0.040 A 
HETATM   13  C3  UNL     1      25.625  -0.563  55.114  1.00  0.00     0.039 A 
HETATM   14  C2  UNL     1      26.224   0.536  54.507  1.00  0.00     0.069 A 
HETATM   15  C20 UNL     1      25.624   1.150  53.450  1.00  0.00     0.048 A 
BRANCH  11  16
HETATM   16  O2  UNL     1      22.581  -0.876  53.082  1.00  0.00    -0.355 OA
HETATM   17  C6  UNL     1      21.579  -1.295  53.999  1.00  0.00     0.210 C 
ENDBRANCH  11  16
BRANCH  14  18
HETATM   18  O1  UNL     1      27.445   1.031  54.964  1.00  0.00    -0.356 OA
HETATM   19  C1  UNL     1      28.568   0.162  54.768  1.00  0.00     0.210 C 
ENDBRANCH  14  18
ENDBRANCH   9  10
ENDBRANCH   1   9
BRANCH   8  20
HETATM   20  N5  UNL     1      25.408   5.919  48.921  1.00  0.00    -0.363 N 
HETATM   21  H15 UNL     1      24.661   5.844  48.186  1.00  0.00     0.162 HD
BRANCH  20  22
HETATM   22  C14 UNL     1      26.758   6.109  48.483  1.00  0.00     0.031 A 
HETATM   23  C15 UNL     1      27.750   5.159  48.603  1.00  0.00     0.029 A 
HETATM   24  C16 UNL     1      29.020   5.442  48.143  1.00  0.00     0.004 A 
HETATM   25  C17 UNL     1      29.375   6.648  47.554  1.00  0.00     0.019 A 
HETATM   26  C18 UNL     1      28.389   7.589  47.436  1.00  0.00     0.013 A 
HETATM   27 BR1  UNL     1      28.830   9.271  46.627  1.00  0.00    -0.051 Br
HETATM   28  C19 UNL     1      27.115   7.320  47.890  1.00  0.00     0.048 A 
ENDBRANCH  20  22
ENDBRANCH   8  20
BRANCH   6  29
HETATM   29  N3  UNL     1      21.794   7.037  51.192  1.00  0.00    -0.231 N 
HETATM   30  H12 UNL     1      21.023   7.717  51.237  1.00  0.00     0.174 HD
HETATM   31  H13 UNL     1      21.425   6.790  52.159  1.00  0.00     0.174 HD
ENDBRANCH   6  29
TORSDOF 7
ENDMDL
MODEL 5
REMARK VINA RESULT:      -8.0      1.530      2.323
REMARK  7 active torsions:
REMARK  status: ('A' for Active; 'I' for Inactive)
REMARK    1  A    between atoms: O1_2  and  C2_3 
REMARK    2  A    between atoms: C5_6  and  O2_7 
REMARK    3  A    between atoms: C7_9  and  C8_10 
REMARK    4  A    between atoms: C8_10  and  N1_11 
REMARK    5  A    between atoms: C12_16  and  N3_17 
REMARK    6  A    between atoms: C13_19  and  N5_20 
REMARK    7  A    between atoms: N5_20  and  C14_21 
ROOT
HETATM    1  N1  UNL     1      26.014   3.018  50.721  1.00  0.00    -0.336 N 
HETATM    2  C9  UNL     1      25.019   2.409  51.547  1.00  0.00     0.108 A 
HETATM    3  C10 UNL     1      25.846   2.017  52.519  1.00  0.00     0.049 A 
HETATM    4  C11 UNL     1      26.922   2.607  51.753  1.00  0.00     0.160 A 
HETATM    5  N2  UNL     1      28.075   2.467  52.360  1.00  0.00    -0.045 NA
HETATM    6  C12 UNL     1      28.168   1.806  53.611  1.00  0.00     0.719 A 
HETATM    7  N4  UNL     1      27.256   1.265  54.333  1.00  0.00    -0.075 NA
HETATM    8  C13 UNL     1      25.883   1.309  53.834  1.00  0.00     0.264 A 
ENDROOT
BRANCH   1   9
HETATM    9  C8  UNL     1      26.206   3.736  49.484  1.00  0.00     0.171 C 
BRANCH   9  10
HETATM   10  C7  UNL     1      25.466   5.016  49.479  1.00  0.00    -0.004 A 
HETATM   11  C5  UNL     1      24.162   4.878  48.971  1.00  0.00     0.076 A 
HETATM   12  C4  UNL     1      23.344   5.983  48.882  1.00  0.00     0.040 A 
HETATM   13  C3  UNL     1      23.740   7.252  49.273  1.00  0.00     0.039 A 
HETATM   14  C2  UNL     1      25.031   7.375  49.774  1.00  0.00     0.069 A 
HETATM   15  C20 UNL     1      25.842   6.283  49.862  1.00  0.00     0.048 A 
BRANCH  11  16
HETATM   16  O2  UNL     1      23.641   3.653  48.543  1.00  0.00    -0.355 OA
HETATM   17  C6  UNL     1      22.354   3.558  47.946  1.00  0.00     0.210 C 
ENDBRANCH  11  16
BRANCH  14  18
HETATM   18  O1  UNL     1      25.525   8.610  50.193  1.00  0.00    -0.356 OA
HETATM   19  C1  UNL     1      26.937   8.791  50.025  1.00  0.00     0.210 C 
ENDBRANCH  14  18
ENDBRANCH   9  10
ENDBRANCH   1   9
BRANCH   8  20
HETATM   20  N5  UNL     1      25.486  -0.086  53.686  1.00  0.00    -0.363 N 
HETATM   21  H15 UNL     1      26.144  -0.829  53.342  1.00  0.00     0.162 HD
BRANCH  20  22
HETATM   22  C14 UNL     1      24.149  -0.480  54.016  1.00  0.00     0.031 A 
HETATM   23  C15 UNL     1      23.817  -1.244  55.115  1.00  0.00     0.029 A 
HETATM   24  C16 UNL     1      22.494  -1.565  55.343  1.00  0.00     0.004 A 
HETATM   25  C17 UNL     1      21.450  -1.161  54.522  1.00  0.00     0.019 A 
HETATM   26  C18 UNL     1      21.782  -0.403  53.432  1.00  0.00     0.013 A 
HETATM   27 BR1  UNL     1      20.374   0.180  52.268  1.00  0.00    -0.051 Br
HETATM   28  C19 UNL     1      23.099  -0.074  53.191  1.00  0.00     0.048 A 
ENDBRANCH  20  22
ENDBRANCH   8  20
BRANCH   6  29
HETATM   29  N3  UNL     1      29.477   1.734  54.162  1.00  0.00    -0.231 N 
HETATM   30  H12 UNL     1      30.426   1.776  54.556  1.00  0.00     0.174 HD
HETATM   31  H13 UNL     1      29.640   0.690  54.286  1.00  0.00     0.174 HD
ENDBRANCH   6  29
TORSDOF 7
ENDMDL
MODEL 6
REMARK VINA RESULT:      -7.9      4.603      9.231
REMARK  7 active torsions:
REMARK  status: ('A' for Active; 'I' for Inactive)
REMARK    1  A    between atoms: O1_2  and  C2_3 
REMARK    2  A    between atoms: C5_6  and  O2_7 
REMARK    3  A    between atoms: C7_9  and  C8_10 
REMARK    4  A    between atoms: C8_10  and  N1_11 
REMARK    5  A    between atoms: C12_16  and  N3_17 
REMARK    6  A    between atoms: C13_19  and  N5_20 
REMARK    7  A    between atoms: N5_20  and  C14_21 
ROOT
HETATM    1  N1  UNL     1      25.699   4.963  49.163  1.00  0.00    -0.336 N 
HETATM    2  C9  UNL     1      25.697   6.389  49.085  1.00  0.00     0.108 A 
HETATM    3  C10 UNL     1      26.976   6.525  48.727  1.00  0.00     0.049 A 
HETATM    4  C11 UNL     1      27.076   5.082  48.780  1.00  0.00     0.160 A 
HETATM    5  N2  UNL     1      28.282   4.674  48.471  1.00  0.00    -0.045 NA
HETATM    6  C12 UNL     1      29.305   5.599  48.140  1.00  0.00     0.719 A 
HETATM    7  N4  UNL     1      29.278   6.879  48.078  1.00  0.00    -0.075 NA
HETATM    8  C13 UNL     1      28.014   7.545  48.390  1.00  0.00     0.264 A 
ENDROOT
BRANCH   1   9
HETATM    9  C8  UNL     1      24.861   3.820  49.440  1.00  0.00     0.171 C 
BRANCH   9  10
HETATM   10  C7  UNL     1      25.175   3.223  50.755  1.00  0.00    -0.004 A 
HETATM   11  C5  UNL     1      24.259   3.606  51.750  1.00  0.00     0.076 A 
HETATM   12  C4  UNL     1      24.420   3.150  53.040  1.00  0.00     0.040 A 
HETATM   13  C3  UNL     1      25.458   2.314  53.423  1.00  0.00     0.039 A 
HETATM   14  C2  UNL     1      26.357   1.942  52.430  1.00  0.00     0.069 A 
HETATM   15  C20 UNL     1      26.199   2.393  51.154  1.00  0.00     0.048 A 
BRANCH  11  16
HETATM   16  O2  UNL     1      23.168   4.444  51.494  1.00  0.00    -0.355 OA
HETATM   17  C6  UNL     1      21.834   4.034  51.763  1.00  0.00     0.210 C 
ENDBRANCH  11  16
BRANCH  14  18
HETATM   18  O1  UNL     1      27.435   1.106  52.714  1.00  0.00    -0.356 OA
HETATM   19  C1  UNL     1      27.184  -0.295  52.539  1.00  0.00     0.210 C 
ENDBRANCH  14  18
ENDBRANCH   9  10
ENDBRANCH   1   9
BRANCH   8  20
HETATM   20  N5  UNL     1      28.304   8.395  49.539  1.00  0.00    -0.363 N 
HETATM   21  H15 UNL     1      28.069   8.115  50.524  1.00  0.00     0.162 HD
BRANCH  20  22
HETATM   22  C14 UNL     1      28.932   9.666  49.338  1.00  0.00     0.031 A 
HETATM   23  C15 UNL     1      30.290   9.882  49.434  1.00  0.00     0.029 A 
HETATM   24  C16 UNL     1      30.793  11.148  49.218  1.00  0.00     0.004 A 
HETATM   25  C17 UNL     1      30.005  12.247  48.902  1.00  0.00     0.019 A 
HETATM   26  C18 UNL     1      28.658  12.031  48.807  1.00  0.00     0.013 A 
HETATM   27 BR1  UNL     1      27.528  13.518  48.371  1.00  0.00    -0.051 Br
HETATM   28  C19 UNL     1      28.140  10.771  49.020  1.00  0.00     0.048 A 
ENDBRANCH  20  22
ENDBRANCH   8  20
BRANCH   6  29
HETATM   29  N3  UNL     1      30.563   5.020  47.815  1.00  0.00    -0.231 N 
HETATM   30  H12 UNL     1      31.456   4.537  47.648  1.00  0.00     0.174 HD
HETATM   31  H13 UNL     1      30.929   5.638  47.030  1.00  0.00     0.174 HD
ENDBRANCH   6  29
TORSDOF 7
ENDMDL
MODEL 7
REMARK VINA RESULT:      -7.4      3.825      8.175
REMARK  7 active torsions:
REMARK  status: ('A' for Active; 'I' for Inactive)
REMARK    1  A    between atoms: O1_2  and  C2_3 
REMARK    2  A    between atoms: C5_6  and  O2_7 
REMARK    3  A    between atoms: C7_9  and  C8_10 
REMARK    4  A    between atoms: C8_10  and  N1_11 
REMARK    5  A    between atoms: C12_16  and  N3_17 
REMARK    6  A    between atoms: C13_19  and  N5_20 
REMARK    7  A    between atoms: N5_20  and  C14_21 
ROOT
HETATM    1  N1  UNL     1      23.007   2.131  49.734  1.00  0.00    -0.336 N 
HETATM    2  C9  UNL     1      23.681   3.140  48.980  1.00  0.00     0.108 A 
HETATM    3  C10 UNL     1      24.816   3.126  49.683  1.00  0.00     0.049 A 
HETATM    4  C11 UNL     1      24.216   2.097  50.506  1.00  0.00     0.160 A 
HETATM    5  N2  UNL     1      25.032   1.704  51.453  1.00  0.00    -0.045 NA
HETATM    6  C12 UNL     1      26.326   2.270  51.584  1.00  0.00     0.719 A 
HETATM    7  N4  UNL     1      26.909   3.178  50.891  1.00  0.00    -0.075 NA
HETATM    8  C13 UNL     1      26.166   3.759  49.774  1.00  0.00     0.264 A 
ENDROOT
BRANCH   1   9
HETATM    9  C8  UNL     1      21.774   1.386  49.823  1.00  0.00     0.171 C 
BRANCH   9  10
HETATM   10  C7  UNL     1      21.475   0.995  51.217  1.00  0.00    -0.004 A 
HETATM   11  C5  UNL     1      20.723   1.968  51.896  1.00  0.00     0.076 A 
HETATM   12  C4  UNL     1      20.374   1.766  53.214  1.00  0.00     0.040 A 
HETATM   13  C3  UNL     1      20.731   0.632  53.926  1.00  0.00     0.039 A 
HETATM   14  C2  UNL     1      21.476  -0.324  53.242  1.00  0.00     0.069 A 
HETATM   15  C20 UNL     1      21.821  -0.125  51.939  1.00  0.00     0.048 A 
BRANCH  11  16
HETATM   16  O2  UNL     1      20.298   3.157  51.293  1.00  0.00    -0.355 OA
HETATM   17  C6  UNL     1      20.872   4.412  51.633  1.00  0.00     0.210 C 
ENDBRANCH  11  16
BRANCH  14  18
HETATM   18  O1  UNL     1      21.885  -1.499  53.870  1.00  0.00    -0.356 OA
HETATM   19  C1  UNL     1      22.630  -1.317  55.081  1.00  0.00     0.210 C 
ENDBRANCH  14  18
ENDBRANCH   9  10
ENDBRANCH   1   9
BRANCH   8  20
HETATM   20  N5  UNL     1      26.056   5.179  50.087  1.00  0.00    -0.363 N 
HETATM   21  H15 UNL     1      25.857   5.532  51.056  1.00  0.00     0.162 HD
BRANCH  20  22
HETATM   22  C14 UNL     1      26.221   6.148  49.045  1.00  0.00     0.031 A 
HETATM   23  C15 UNL     1      25.187   6.872  48.492  1.00  0.00     0.029 A 
HETATM   24  C16 UNL     1      25.455   7.785  47.493  1.00  0.00     0.004 A 
HETATM   25  C17 UNL     1      26.728   8.030  46.996  1.00  0.00     0.019 A 
HETATM   26  C18 UNL     1      27.754   7.311  47.546  1.00  0.00     0.013 A 
HETATM   27 BR1  UNL     1      29.531   7.615  46.893  1.00  0.00    -0.051 Br
HETATM   28  C19 UNL     1      27.500   6.395  48.545  1.00  0.00     0.048 A 
ENDBRANCH  20  22
ENDBRANCH   8  20
BRANCH   6  29
HETATM   29  N3  UNL     1      27.111   1.744  52.647  1.00  0.00    -0.231 N 
HETATM   30  H12 UNL     1      27.678   1.450  53.453  1.00  0.00     0.174 HD
HETATM   31  H13 UNL     1      27.242   0.722  52.380  1.00  0.00     0.174 HD
ENDBRANCH   6  29
TORSDOF 7
ENDMDL
MODEL 8
REMARK VINA RESULT:      -7.4      6.347      8.833
REMARK  7 active torsions:
REMARK  status: ('A' for Active; 'I' for Inactive)
REMARK    1  A    between atoms: O1_2  and  C2_3 
REMARK    2  A    between atoms: C5_6  and  O2_7 
REMARK    3  A    between atoms: C7_9  and  C8_10 
REMARK    4  A    between atoms: C8_10  and  N1_11 
REMARK    5  A    between atoms: C12_16  and  N3_17 
REMARK    6  A    between atoms: C13_19  and  N5_20 
REMARK    7  A    between atoms: N5_20  and  C14_21 
ROOT
HETATM    1  N1  UNL     1      31.502   6.786  46.931  1.00  0.00    -0.336 N 
HETATM    2  C9  UNL     1      30.079   6.675  46.857  1.00  0.00     0.108 A 
HETATM    3  C10 UNL     1      29.804   7.609  47.770  1.00  0.00     0.049 A 
HETATM    4  C11 UNL     1      31.231   7.794  47.916  1.00  0.00     0.160 A 
HETATM    5  N2  UNL     1      31.507   8.717  48.805  1.00  0.00    -0.045 NA
HETATM    6  C12 UNL     1      30.472   9.401  49.493  1.00  0.00     0.719 A 
HETATM    7  N4  UNL     1      29.199   9.281  49.407  1.00  0.00    -0.075 NA
HETATM    8  C13 UNL     1      28.673   8.295  48.465  1.00  0.00     0.264 A 
ENDROOT
BRANCH   1   9
HETATM    9  C8  UNL     1      32.731   6.268  46.380  1.00  0.00     0.171 C 
BRANCH   9  10
HETATM   10  C7  UNL     1      32.913   4.838  46.708  1.00  0.00    -0.004 A 
HETATM   11  C5  UNL     1      34.093   4.602  47.435  1.00  0.00     0.076 A 
HETATM   12  C4  UNL     1      34.421   3.316  47.806  1.00  0.00     0.040 A 
HETATM   13  C3  UNL     1      33.637   2.216  47.498  1.00  0.00     0.039 A 
HETATM   14  C2  UNL     1      32.472   2.463  46.779  1.00  0.00     0.069 A 
HETATM   15  C20 UNL     1      32.147   3.734  46.411  1.00  0.00     0.048 A 
BRANCH  11  16
HETATM   16  O2  UNL     1      34.970   5.625  47.810  1.00  0.00    -0.355 OA
HETATM   17  C6  UNL     1      35.493   5.713  49.129  1.00  0.00     0.210 C 
ENDBRANCH  11  16
BRANCH  14  18
HETATM   18  O1  UNL     1      31.617   1.423  46.418  1.00  0.00    -0.356 OA
HETATM   19  C1  UNL     1      32.054   0.113  46.802  1.00  0.00     0.210 C 
ENDBRANCH  14  18
ENDBRANCH   9  10
ENDBRANCH   1   9
BRANCH   8  20
HETATM   20  N5  UNL     1      27.915   7.354  49.281  1.00  0.00    -0.363 N 
HETATM   21  H15 UNL     1      28.302   6.924  50.158  1.00  0.00     0.162 HD
BRANCH  20  22
HETATM   22  C14 UNL     1      26.588   6.986  48.888  1.00  0.00     0.031 A 
HETATM   23  C15 UNL     1      25.878   5.942  49.442  1.00  0.00     0.029 A 
HETATM   24  C16 UNL     1      24.602   5.674  48.992  1.00  0.00     0.004 A 
HETATM   25  C17 UNL     1      23.968   6.402  47.994  1.00  0.00     0.019 A 
HETATM   26  C18 UNL     1      24.674   7.438  47.445  1.00  0.00     0.013 A 
HETATM   27 BR1  UNL     1      23.840   8.474  46.063  1.00  0.00    -0.051 Br
HETATM   28  C19 UNL     1      25.950   7.718  47.885  1.00  0.00     0.048 A 
ENDBRANCH  20  22
ENDBRANCH   8  20
BRANCH   6  29
HETATM   29  N3  UNL     1      30.912  10.385  50.421  1.00  0.00    -0.231 N 
HETATM   30  H12 UNL     1      31.243  11.026  51.154  1.00  0.00     0.174 HD
HETATM   31  H13 UNL     1      30.818  11.298  49.882  1.00  0.00     0.174 HD
ENDBRANCH   6  29
TORSDOF 7
ENDMDL
MODEL 9
REMARK VINA RESULT:      -7.4      3.873      8.223
REMARK  7 active torsions:
REMARK  status: ('A' for Active; 'I' for Inactive)
REMARK    1  A    between atoms: O1_2  and  C2_3 
REMARK    2  A    between atoms: C5_6  and  O2_7 
REMARK    3  A    between atoms: C7_9  and  C8_10 
REMARK    4  A    between atoms: C8_10  and  N1_11 
REMARK    5  A    between atoms: C12_16  and  N3_17 
REMARK    6  A    between atoms: C13_19  and  N5_20 
REMARK    7  A    between atoms: N5_20  and  C14_21 
ROOT
HETATM    1  N1  UNL     1      24.117   2.306  52.113  1.00  0.00    -0.336 N 
HETATM    2  C9  UNL     1      24.198   3.465  52.945  1.00  0.00     0.108 A 
HETATM    3  C10 UNL     1      23.447   4.258  52.178  1.00  0.00     0.049 A 
HETATM    4  C11 UNL     1      23.306   3.139  51.271  1.00  0.00     0.160 A 
HETATM    5  N2  UNL     1      22.567   3.452  50.235  1.00  0.00    -0.045 NA
HETATM    6  C12 UNL     1      22.012   4.750  50.098  1.00  0.00     0.719 A 
HETATM    7  N4  UNL     1      22.102   5.775  50.862  1.00  0.00    -0.075 NA
HETATM    8  C13 UNL     1      22.891   5.642  52.085  1.00  0.00     0.264 A 
ENDROOT
BRANCH   1   9
HETATM    9  C8  UNL     1      24.535   0.929  52.007  1.00  0.00     0.171 C 
BRANCH   9  10
HETATM   10  C7  UNL     1      24.107   0.140  53.181  1.00  0.00    -0.004 A 
HETATM   11  C5  UNL     1      25.177  -0.167  54.039  1.00  0.00     0.076 A 
HETATM   12  C4  UNL     1      24.950  -0.914  55.175  1.00  0.00     0.040 A 
HETATM   13  C3  UNL     1      23.698  -1.391  55.529  1.00  0.00     0.039 A 
HETATM   14  C2  UNL     1      22.647  -1.080  54.672  1.00  0.00     0.069 A 
HETATM   15  C20 UNL     1      22.871  -0.342  53.549  1.00  0.00     0.048 A 
BRANCH  11  16
HETATM   16  O2  UNL     1      26.488   0.255  53.797  1.00  0.00    -0.355 OA
HETATM   17  C6  UNL     1      27.491  -0.648  53.348  1.00  0.00     0.210 C 
ENDBRANCH  11  16
BRANCH  14  18
HETATM   18  O1  UNL     1      21.350  -1.514  54.939  1.00  0.00    -0.356 OA
HETATM   19  C1  UNL     1      20.356  -1.077  54.004  1.00  0.00     0.210 C 
ENDBRANCH  14  18
ENDBRANCH   9  10
ENDBRANCH   1   9
BRANCH   8  20
HETATM   20  N5  UNL     1      23.959   6.626  51.959  1.00  0.00    -0.363 N 
HETATM   21  H15 UNL     1      24.319   7.180  52.776  1.00  0.00     0.162 HD
BRANCH  20  22
HETATM   22  C14 UNL     1      24.554   6.864  50.678  1.00  0.00     0.031 A 
HETATM   23  C15 UNL     1      24.146   7.851  49.807  1.00  0.00     0.029 A 
HETATM   24  C16 UNL     1      24.792   7.998  48.596  1.00  0.00     0.004 A 
HETATM   25  C17 UNL     1      25.850   7.199  48.186  1.00  0.00     0.019 A 
HETATM   26  C18 UNL     1      26.254   6.219  49.052  1.00  0.00     0.013 A 
HETATM   27 BR1  UNL     1      27.714   5.090  48.530  1.00  0.00    -0.051 Br
HETATM   28  C19 UNL     1      25.619   6.061  50.265  1.00  0.00     0.048 A 
ENDBRANCH  20  22
ENDBRANCH   8  20
BRANCH   6  29
HETATM   29  N3  UNL     1      21.222   4.949  48.932  1.00  0.00    -0.231 N 
HETATM   30  H12 UNL     1      20.686   5.180  48.085  1.00  0.00     0.174 HD
HETATM   31  H13 UNL     1      20.708   4.024  48.816  1.00  0.00     0.174 HD
ENDBRANCH   6  29
TORSDOF 7
ENDMDL
