MODEL 1
REMARK VINA RESULT:      -7.6      0.000      0.000
REMARK  6 active torsions:
REMARK  status: ('A' for Active; 'I' for Inactive)
REMARK    1  A    between atoms: O1_2  and  C2_3 
REMARK    2  A    between atoms: C4_5  and  C5_6 
REMARK    3  A    between atoms: C5_6  and  C6_7 
REMARK    4  A    between atoms: C6_7  and  C8_10 
REMARK    5  A    between atoms: C8_10  and  C9_12 
REMARK    6  A    between atoms: C14_19  and  O2_20 
ROOT
HETATM    1  C6  UNL     1      25.829   0.647  52.964  1.00  0.00     0.071 C 
HETATM    2  C7  UNL     1      26.179   1.593  51.902  1.00  0.00     0.101 C 
HETATM    3  N1  UNL     1      26.477   2.349  51.031  1.00  0.00    -0.191 NA
ENDROOT
BRANCH   1   4
HETATM    4  C5  UNL     1      24.585   0.411  52.927  1.00  0.00     0.036 C 
BRANCH   4   5
HETATM    5  C4  UNL     1      23.202   0.082  53.044  1.00  0.00    -0.032 A 
HETATM    6  C3  UNL     1      22.066   0.387  52.331  1.00  0.00     0.051 A 
HETATM    7  C2  UNL     1      20.829  -0.078  52.650  1.00  0.00     0.102 A 
HETATM    8  C14 UNL     1      20.783  -0.889  53.755  1.00  0.00     0.099 A 
HETATM    9  C13 UNL     1      21.830  -1.276  54.558  1.00  0.00     0.040 A 
HETATM   10  C12 UNL     1      23.075  -0.761  54.173  1.00  0.00     0.014 A 
BRANCH   7  11
HETATM   11  O1  UNL     1      19.754   0.288  51.872  1.00  0.00    -0.353 OA
HETATM   12  C1  UNL     1      19.350   1.651  51.896  1.00  0.00     0.210 C 
ENDBRANCH   7  11
BRANCH   8  13
HETATM   13  O2  UNL     1      19.527  -1.398  54.130  1.00  0.00    -0.358 OA
HETATM   14  H10 UNL     1      19.512  -2.296  54.622  1.00  0.00     0.217 HD
ENDBRANCH   8  13
ENDBRANCH   4   5
ENDBRANCH   1   4
BRANCH   1  15
HETATM   15  C8  UNL     1      26.891   0.174  53.836  1.00  0.00     0.077 C 
HETATM   16  N2  UNL     1      26.697  -0.391  54.961  1.00  0.00    -0.301 NA
HETATM   17  H6  UNL     1      25.816  -0.604  55.431  1.00  0.00     0.186 HD
BRANCH  15  18
HETATM   18  C9  UNL     1      28.281   0.366  53.375  1.00  0.00     0.251 C 
HETATM   19  C10 UNL     1      28.966   1.384  54.180  1.00  0.00     0.085 C 
HETATM   20  N3  UNL     1      29.492   2.176  54.811  1.00  0.00    -0.195 NA
HETATM   21  C11 UNL     1      28.943  -0.953  53.510  1.00  0.00     0.085 C 
HETATM   22  N4  UNL     1      29.456  -1.974  53.634  1.00  0.00    -0.195 NA
ENDBRANCH  15  18
ENDBRANCH   1  15
TORSDOF 6
ENDMDL
MODEL 2
REMARK VINA RESULT:      -7.3      4.153      7.470
REMARK  6 active torsions:
REMARK  status: ('A' for Active; 'I' for Inactive)
REMARK    1  A    between atoms: O1_2  and  C2_3 
REMARK    2  A    between atoms: C4_5  and  C5_6 
REMARK    3  A    between atoms: C5_6  and  C6_7 
REMARK    4  A    between atoms: C6_7  and  C8_10 
REMARK    5  A    between atoms: C8_10  and  C9_12 
REMARK    6  A    between atoms: C14_19  and  O2_20 
ROOT
HETATM    1  C6  UNL     1      21.932  -0.224  53.596  1.00  0.00     0.071 C 
HETATM    2  C7  UNL     1      22.258  -1.181  54.655  1.00  0.00     0.101 C 
HETATM    3  N1  UNL     1      22.514  -1.976  55.506  1.00  0.00    -0.191 NA
ENDROOT
BRANCH   1   4
HETATM    4  C5  UNL     1      22.993   0.340  53.195  1.00  0.00     0.036 C 
BRANCH   4   5
HETATM    5  C4  UNL     1      24.185   1.063  52.893  1.00  0.00    -0.032 A 
HETATM    6  C3  UNL     1      25.355   1.333  53.563  1.00  0.00     0.051 A 
HETATM    7  C2  UNL     1      26.377   2.057  53.033  1.00  0.00     0.102 A 
HETATM    8  C14 UNL     1      26.163   2.513  51.757  1.00  0.00     0.099 A 
HETATM    9  C13 UNL     1      25.050   2.321  50.972  1.00  0.00     0.040 A 
HETATM   10  C12 UNL     1      24.036   1.568  51.580  1.00  0.00     0.014 A 
BRANCH   7  11
HETATM   11  O1  UNL     1      27.508   2.273  53.788  1.00  0.00    -0.353 OA
HETATM   12  C1  UNL     1      28.425   1.196  53.932  1.00  0.00     0.210 C 
ENDBRANCH   7  11
BRANCH   8  13
HETATM   13  O2  UNL     1      27.188   3.267  51.161  1.00  0.00    -0.358 OA
HETATM   14  H10 UNL     1      28.148   2.933  51.281  1.00  0.00     0.217 HD
ENDBRANCH   8  13
ENDBRANCH   4   5
ENDBRANCH   1   4
BRANCH   1  15
HETATM   15  C8  UNL     1      20.539  -0.077  53.211  1.00  0.00     0.077 C 
HETATM   16  N2  UNL     1      19.558  -0.550  53.872  1.00  0.00    -0.301 NA
HETATM   17  H6  UNL     1      19.566  -1.087  54.741  1.00  0.00     0.186 HD
BRANCH  15  18
HETATM   18  C9  UNL     1      20.255   0.673  51.970  1.00  0.00     0.251 C 
HETATM   19  C10 UNL     1      19.007   0.213  51.351  1.00  0.00     0.085 C 
HETATM   20  N3  UNL     1      18.034  -0.150  50.877  1.00  0.00    -0.195 NA
HETATM   21  C11 UNL     1      20.159   2.098  52.367  1.00  0.00     0.085 C 
HETATM   22  N4  UNL     1      20.068   3.199  52.682  1.00  0.00    -0.195 NA
ENDBRANCH  15  18
ENDBRANCH   1  15
TORSDOF 6
ENDMDL
MODEL 3
REMARK VINA RESULT:      -7.3      1.488      2.596
REMARK  6 active torsions:
REMARK  status: ('A' for Active; 'I' for Inactive)
REMARK    1  A    between atoms: O1_2  and  C2_3 
REMARK    2  A    between atoms: C4_5  and  C5_6 
REMARK    3  A    between atoms: C5_6  and  C6_7 
REMARK    4  A    between atoms: C6_7  and  C8_10 
REMARK    5  A    between atoms: C8_10  and  C9_12 
REMARK    6  A    between atoms: C14_19  and  O2_20 
ROOT
HETATM    1  C6  UNL     1      24.881   2.176  51.386  1.00  0.00     0.071 C 
HETATM    2  C7  UNL     1      24.476   2.985  50.235  1.00  0.00     0.101 C 
HETATM    3  N1  UNL     1      24.162   3.634  49.286  1.00  0.00    -0.191 NA
ENDROOT
BRANCH   1   4
HETATM    4  C5  UNL     1      23.889   1.509  51.803  1.00  0.00     0.036 C 
BRANCH   4   5
HETATM    5  C4  UNL     1      22.852   0.751  52.426  1.00  0.00    -0.032 A 
HETATM    6  C3  UNL     1      21.503   0.589  52.211  1.00  0.00     0.051 A 
HETATM    7  C2  UNL     1      20.714  -0.228  52.958  1.00  0.00     0.102 A 
HETATM    8  C14 UNL     1      21.363  -0.896  53.964  1.00  0.00     0.099 A 
HETATM    9  C13 UNL     1      22.697  -0.832  54.293  1.00  0.00     0.040 A 
HETATM   10  C12 UNL     1      23.451   0.028  53.483  1.00  0.00     0.014 A 
BRANCH   7  11
HETATM   11  O1  UNL     1      19.372  -0.319  52.663  1.00  0.00    -0.353 OA
HETATM   12  C1  UNL     1      18.818   0.657  51.790  1.00  0.00     0.210 C 
ENDBRANCH   7  11
BRANCH   8  13
HETATM   13  O2  UNL     1      20.594  -1.756  54.769  1.00  0.00    -0.358 OA
HETATM   14  H10 UNL     1      19.597  -1.836  54.551  1.00  0.00     0.217 HD
ENDBRANCH   8  13
ENDBRANCH   4   5
ENDBRANCH   1   4
BRANCH   1  15
HETATM   15  C8  UNL     1      26.258   2.271  51.839  1.00  0.00     0.077 C 
HETATM   16  N2  UNL     1      27.143   3.008  51.295  1.00  0.00    -0.301 NA
HETATM   17  H6  UNL     1      27.057   3.629  50.489  1.00  0.00     0.186 HD
BRANCH  15  18
HETATM   18  C9  UNL     1      26.643   1.457  53.011  1.00  0.00     0.251 C 
HETATM   19  C10 UNL     1      26.910   0.068  52.621  1.00  0.00     0.085 C 
HETATM   20  N3  UNL     1      27.117  -1.010  52.309  1.00  0.00    -0.195 NA
HETATM   21  C11 UNL     1      27.858   2.096  53.571  1.00  0.00     0.085 C 
HETATM   22  N4  UNL     1      28.810   2.584  53.990  1.00  0.00    -0.195 NA
ENDBRANCH  15  18
ENDBRANCH   1  15
TORSDOF 6
ENDMDL
MODEL 4
REMARK VINA RESULT:      -7.2      4.222      7.188
REMARK  6 active torsions:
REMARK  status: ('A' for Active; 'I' for Inactive)
REMARK    1  A    between atoms: O1_2  and  C2_3 
REMARK    2  A    between atoms: C4_5  and  C5_6 
REMARK    3  A    between atoms: C5_6  and  C6_7 
REMARK    4  A    between atoms: C6_7  and  C8_10 
REMARK    5  A    between atoms: C8_10  and  C9_12 
REMARK    6  A    between atoms: C14_19  and  O2_20 
ROOT
HETATM    1  C6  UNL     1      22.719  -0.000  53.288  1.00  0.00     0.071 C 
HETATM    2  C7  UNL     1      22.200  -0.990  54.234  1.00  0.00     0.101 C 
HETATM    3  N1  UNL     1      21.769  -1.807  54.987  1.00  0.00    -0.191 NA
ENDROOT
BRANCH   1   4
HETATM    4  C5  UNL     1      23.978   0.078  53.407  1.00  0.00     0.036 C 
BRANCH   4   5
HETATM    5  C4  UNL     1      25.384   0.318  53.458  1.00  0.00    -0.032 A 
HETATM    6  C3  UNL     1      26.473  -0.383  53.919  1.00  0.00     0.051 A 
HETATM    7  C2  UNL     1      27.752   0.070  53.835  1.00  0.00     0.102 A 
HETATM    8  C14 UNL     1      27.891   1.302  53.248  1.00  0.00     0.099 A 
HETATM    9  C13 UNL     1      26.899   2.111  52.745  1.00  0.00     0.040 A 
HETATM   10  C12 UNL     1      25.606   1.582  52.864  1.00  0.00     0.014 A 
BRANCH   7  11
HETATM   11  O1  UNL     1      28.774  -0.708  54.329  1.00  0.00    -0.353 OA
HETATM   12  C1  UNL     1      29.414  -1.609  53.435  1.00  0.00     0.210 C 
ENDBRANCH   7  11
BRANCH   8  13
HETATM   13  O2  UNL     1      29.193   1.820  53.136  1.00  0.00    -0.358 OA
HETATM   14  H10 UNL     1      29.950   1.288  53.575  1.00  0.00     0.217 HD
ENDBRANCH   8  13
ENDBRANCH   4   5
ENDBRANCH   1   4
BRANCH   1  15
HETATM   15  C8  UNL     1      21.771   0.693  52.433  1.00  0.00     0.077 C 
HETATM   16  N2  UNL     1      20.755   0.145  51.896  1.00  0.00    -0.301 NA
HETATM   17  H6  UNL     1      20.437  -0.824  51.960  1.00  0.00     0.186 HD
BRANCH  15  18
HETATM   18  C9  UNL     1      22.011   2.129  52.181  1.00  0.00     0.251 C 
HETATM   19  C10 UNL     1      22.593   2.339  50.850  1.00  0.00     0.085 C 
HETATM   20  N3  UNL     1      23.044   2.494  49.813  1.00  0.00    -0.195 NA
HETATM   21  C11 UNL     1      20.690   2.791  52.295  1.00  0.00     0.085 C 
HETATM   22  N4  UNL     1      19.660   3.296  52.366  1.00  0.00    -0.195 NA
ENDBRANCH  15  18
ENDBRANCH   1  15
TORSDOF 6
ENDMDL
MODEL 5
REMARK VINA RESULT:      -7.1      2.775      4.120
REMARK  6 active torsions:
REMARK  status: ('A' for Active; 'I' for Inactive)
REMARK    1  A    between atoms: O1_2  and  C2_3 
REMARK    2  A    between atoms: C4_5  and  C5_6 
REMARK    3  A    between atoms: C5_6  and  C6_7 
REMARK    4  A    between atoms: C6_7  and  C8_10 
REMARK    5  A    between atoms: C8_10  and  C9_12 
REMARK    6  A    between atoms: C14_19  and  O2_20 
ROOT
HETATM    1  C6  UNL     1      23.953  -0.416  53.908  1.00  0.00     0.071 C 
HETATM    2  C7  UNL     1      22.840  -1.095  54.574  1.00  0.00     0.101 C 
HETATM    3  N1  UNL     1      21.938  -1.637  55.134  1.00  0.00    -0.191 NA
ENDROOT
BRANCH   1   4
HETATM    4  C5  UNL     1      23.518   0.229  52.909  1.00  0.00     0.036 C 
BRANCH   4   5
HETATM    5  C4  UNL     1      23.172   1.050  51.794  1.00  0.00    -0.032 A 
HETATM    6  C3  UNL     1      23.792   2.068  51.107  1.00  0.00     0.051 A 
HETATM    7  C2  UNL     1      23.241   2.698  50.036  1.00  0.00     0.102 A 
HETATM    8  C14 UNL     1      21.998   2.244  49.675  1.00  0.00     0.099 A 
HETATM    9  C13 UNL     1      21.264   1.242  50.265  1.00  0.00     0.040 A 
HETATM   10  C12 UNL     1      21.891   0.637  51.363  1.00  0.00     0.014 A 
BRANCH   7  11
HETATM   11  O1  UNL     1      23.943   3.708  49.418  1.00  0.00    -0.353 OA
HETATM   12  C1  UNL     1      24.886   4.433  50.196  1.00  0.00     0.210 C 
ENDBRANCH   7  11
BRANCH   8  13
HETATM   13  O2  UNL     1      21.381   2.862  48.572  1.00  0.00    -0.358 OA
HETATM   14  H10 UNL     1      21.739   3.778  48.286  1.00  0.00     0.217 HD
ENDBRANCH   8  13
ENDBRANCH   4   5
ENDBRANCH   1   4
BRANCH   1  15
HETATM   15  C8  UNL     1      25.287  -0.591  54.456  1.00  0.00     0.077 C 
HETATM   16  N2  UNL     1      25.530  -1.021  55.630  1.00  0.00    -0.301 NA
HETATM   17  H6  UNL     1      24.875  -1.306  56.360  1.00  0.00     0.186 HD
BRANCH  15  18
HETATM   18  C9  UNL     1      26.429  -0.245  53.584  1.00  0.00     0.251 C 
HETATM   19  C10 UNL     1      27.580   0.201  54.377  1.00  0.00     0.085 C 
HETATM   20  N3  UNL     1      28.472   0.545  55.000  1.00  0.00    -0.195 NA
HETATM   21  C11 UNL     1      26.750  -1.475  52.823  1.00  0.00     0.085 C 
HETATM   22  N4  UNL     1      27.007  -2.438  52.250  1.00  0.00    -0.195 NA
ENDBRANCH  15  18
ENDBRANCH   1  15
TORSDOF 6
ENDMDL
MODEL 6
REMARK VINA RESULT:      -7.1      1.567      2.805
REMARK  6 active torsions:
REMARK  status: ('A' for Active; 'I' for Inactive)
REMARK    1  A    between atoms: O1_2  and  C2_3 
REMARK    2  A    between atoms: C4_5  and  C5_6 
REMARK    3  A    between atoms: C5_6  and  C6_7 
REMARK    4  A    between atoms: C6_7  and  C8_10 
REMARK    5  A    between atoms: C8_10  and  C9_12 
REMARK    6  A    between atoms: C14_19  and  O2_20 
ROOT
HETATM    1  C6  UNL     1      24.672   0.858  53.196  1.00  0.00     0.071 C 
HETATM    2  C7  UNL     1      25.431  -0.273  53.734  1.00  0.00     0.101 C 
HETATM    3  N1  UNL     1      26.055  -1.181  54.189  1.00  0.00    -0.191 NA
ENDROOT
BRANCH   1   4
HETATM    4  C5  UNL     1      23.450   0.540  53.100  1.00  0.00     0.036 C 
BRANCH   4   5
HETATM    5  C4  UNL     1      22.084   0.132  53.158  1.00  0.00    -0.032 A 
HETATM    6  C3  UNL     1      20.920   0.545  52.553  1.00  0.00     0.051 A 
HETATM    7  C2  UNL     1      19.710  -0.035  52.772  1.00  0.00     0.102 A 
HETATM    8  C14 UNL     1      19.723  -1.084  53.655  1.00  0.00     0.099 A 
HETATM    9  C13 UNL     1      20.804  -1.602  54.330  1.00  0.00     0.040 A 
HETATM   10  C12 UNL     1      22.018  -0.956  54.058  1.00  0.00     0.014 A 
BRANCH   7  11
HETATM   11  O1  UNL     1      18.602   0.455  52.117  1.00  0.00    -0.353 OA
HETATM   12  C1  UNL     1      18.697   1.746  51.529  1.00  0.00     0.210 C 
ENDBRANCH   7  11
BRANCH   8  13
HETATM   13  O2  UNL     1      18.498  -1.722  53.919  1.00  0.00    -0.358 OA
HETATM   14  H10 UNL     1      17.788  -1.698  53.181  1.00  0.00     0.217 HD
ENDBRANCH   8  13
ENDBRANCH   4   5
ENDBRANCH   1   4
BRANCH   1  15
HETATM   15  C8  UNL     1      25.397   2.074  52.869  1.00  0.00     0.077 C 
HETATM   16  N2  UNL     1      24.979   3.249  53.126  1.00  0.00    -0.301 NA
HETATM   17  H6  UNL     1      24.111   3.539  53.581  1.00  0.00     0.186 HD
BRANCH  15  18
HETATM   18  C9  UNL     1      26.703   1.924  52.196  1.00  0.00     0.251 C 
HETATM   19  C10 UNL     1      26.793   2.798  51.020  1.00  0.00     0.085 C 
HETATM   20  N3  UNL     1      26.855   3.481  50.108  1.00  0.00    -0.195 NA
HETATM   21  C11 UNL     1      27.727   2.283  53.206  1.00  0.00     0.085 C 
HETATM   22  N4  UNL     1      28.516   2.580  53.987  1.00  0.00    -0.195 NA
ENDBRANCH  15  18
ENDBRANCH   1  15
TORSDOF 6
ENDMDL
MODEL 7
REMARK VINA RESULT:      -7.0      1.562      2.317
REMARK  6 active torsions:
REMARK  status: ('A' for Active; 'I' for Inactive)
REMARK    1  A    between atoms: O1_2  and  C2_3 
REMARK    2  A    between atoms: C4_5  and  C5_6 
REMARK    3  A    between atoms: C5_6  and  C6_7 
REMARK    4  A    between atoms: C6_7  and  C8_10 
REMARK    5  A    between atoms: C8_10  and  C9_12 
REMARK    6  A    between atoms: C14_19  and  O2_20 
ROOT
HETATM    1  C6  UNL     1      26.121   2.216  52.274  1.00  0.00     0.071 C 
HETATM    2  C7  UNL     1      26.485   2.839  50.999  1.00  0.00     0.101 C 
HETATM    3  N1  UNL     1      26.792   3.328  49.957  1.00  0.00    -0.191 NA
ENDROOT
BRANCH   1   4
HETATM    4  C5  UNL     1      24.860   2.171  52.377  1.00  0.00     0.036 C 
BRANCH   4   5
HETATM    5  C4  UNL     1      23.454   1.949  52.476  1.00  0.00    -0.032 A 
HETATM    6  C3  UNL     1      22.339   2.755  52.467  1.00  0.00     0.051 A 
HETATM    7  C2  UNL     1      21.068   2.283  52.564  1.00  0.00     0.102 A 
HETATM    8  C14 UNL     1      20.964   0.920  52.675  1.00  0.00     0.099 A 
HETATM    9  C13 UNL     1      21.983  -0.002  52.698  1.00  0.00     0.040 A 
HETATM   10  C12 UNL     1      23.266   0.552  52.594  1.00  0.00     0.014 A 
BRANCH   7  11
HETATM   11  O1  UNL     1      20.019   3.175  52.547  1.00  0.00    -0.353 OA
HETATM   12  C1  UNL     1      19.589   3.669  51.285  1.00  0.00     0.210 C 
ENDBRANCH   7  11
BRANCH   8  13
HETATM   13  O2  UNL     1      19.670   0.378  52.779  1.00  0.00    -0.358 OA
HETATM   14  H10 UNL     1      19.260   0.319  53.716  1.00  0.00     0.217 HD
ENDBRANCH   8  13
ENDBRANCH   4   5
ENDBRANCH   1   4
BRANCH   1  15
HETATM   15  C8  UNL     1      27.193   1.791  53.158  1.00  0.00     0.077 C 
HETATM   16  N2  UNL     1      27.927   2.585  53.830  1.00  0.00    -0.301 NA
HETATM   17  H6  UNL     1      27.903   3.606  53.870  1.00  0.00     0.186 HD
BRANCH  15  18
HETATM   18  C9  UNL     1      27.435   0.338  53.279  1.00  0.00     0.251 C 
HETATM   19  C10 UNL     1      28.863   0.056  53.460  1.00  0.00     0.085 C 
HETATM   20  N3  UNL     1      29.976  -0.155  53.603  1.00  0.00    -0.195 NA
HETATM   21  C11 UNL     1      26.650  -0.111  54.453  1.00  0.00     0.085 C 
HETATM   22  N4  UNL     1      26.054  -0.450  55.376  1.00  0.00    -0.195 NA
ENDBRANCH  15  18
ENDBRANCH   1  15
TORSDOF 6
ENDMDL
MODEL 8
REMARK VINA RESULT:      -6.9      1.366      2.251
REMARK  6 active torsions:
REMARK  status: ('A' for Active; 'I' for Inactive)
REMARK    1  A    between atoms: O1_2  and  C2_3 
REMARK    2  A    between atoms: C4_5  and  C5_6 
REMARK    3  A    between atoms: C5_6  and  C6_7 
REMARK    4  A    between atoms: C6_7  and  C8_10 
REMARK    5  A    between atoms: C8_10  and  C9_12 
REMARK    6  A    between atoms: C14_19  and  O2_20 
ROOT
HETATM    1  C6  UNL     1      25.795   0.987  52.543  1.00  0.00     0.071 C 
HETATM    2  C7  UNL     1      26.544   1.969  51.756  1.00  0.00     0.101 C 
HETATM    3  N1  UNL     1      27.162   2.753  51.105  1.00  0.00    -0.191 NA
ENDROOT
BRANCH   1   4
HETATM    4  C5  UNL     1      24.555   1.228  52.449  1.00  0.00     0.036 C 
BRANCH   4   5
HETATM    5  C4  UNL     1      23.144   1.431  52.500  1.00  0.00    -0.032 A 
HETATM    6  C3  UNL     1      22.058   0.642  52.801  1.00  0.00     0.051 A 
HETATM    7  C2  UNL     1      20.775   1.090  52.792  1.00  0.00     0.102 A 
HETATM    8  C14 UNL     1      20.627   2.412  52.456  1.00  0.00     0.099 A 
HETATM    9  C13 UNL     1      21.614   3.314  52.134  1.00  0.00     0.040 A 
HETATM   10  C12 UNL     1      22.911   2.784  52.163  1.00  0.00     0.014 A 
BRANCH   7  11
HETATM   11  O1  UNL     1      19.757   0.218  53.106  1.00  0.00    -0.353 OA
HETATM   12  C1  UNL     1      20.099  -0.985  53.781  1.00  0.00     0.210 C 
ENDBRANCH   7  11
BRANCH   8  13
HETATM   13  O2  UNL     1      19.319   2.929  52.431  1.00  0.00    -0.358 OA
HETATM   14  H10 UNL     1      18.806   2.952  53.317  1.00  0.00     0.217 HD
ENDBRANCH   8  13
ENDBRANCH   4   5
ENDBRANCH   1   4
BRANCH   1  15
HETATM   15  C8  UNL     1      26.544  -0.027  53.265  1.00  0.00     0.077 C 
HETATM   16  N2  UNL     1      26.014  -0.939  53.978  1.00  0.00    -0.301 NA
HETATM   17  H6  UNL     1      25.026  -1.117  54.165  1.00  0.00     0.186 HD
BRANCH  15  18
HETATM   18  C9  UNL     1      28.017   0.013  53.154  1.00  0.00     0.251 C 
HETATM   19  C10 UNL     1      28.604   0.823  54.227  1.00  0.00     0.085 C 
HETATM   20  N3  UNL     1      29.052   1.453  55.066  1.00  0.00    -0.195 NA
HETATM   21  C11 UNL     1      28.472  -1.395  53.239  1.00  0.00     0.085 C 
HETATM   22  N4  UNL     1      28.820  -2.487  53.325  1.00  0.00    -0.195 NA
ENDBRANCH  15  18
ENDBRANCH   1  15
TORSDOF 6
ENDMDL
MODEL 9
REMARK VINA RESULT:      -6.9      4.128      6.816
REMARK  6 active torsions:
REMARK  status: ('A' for Active; 'I' for Inactive)
REMARK    1  A    between atoms: O1_2  and  C2_3 
REMARK    2  A    between atoms: C4_5  and  C5_6 
REMARK    3  A    between atoms: C5_6  and  C6_7 
REMARK    4  A    between atoms: C6_7  and  C8_10 
REMARK    5  A    between atoms: C8_10  and  C9_12 
REMARK    6  A    between atoms: C14_19  and  O2_20 
ROOT
HETATM    1  C6  UNL     1      23.381   1.111  52.743  1.00  0.00     0.071 C 
HETATM    2  C7  UNL     1      23.302   2.570  52.647  1.00  0.00     0.101 C 
HETATM    3  N1  UNL     1      23.225   3.758  52.586  1.00  0.00    -0.191 NA
ENDROOT
BRANCH   1   4
HETATM    4  C5  UNL     1      24.590   0.762  52.886  1.00  0.00     0.036 C 
BRANCH   4   5
HETATM    5  C4  UNL     1      25.892   0.238  53.145  1.00  0.00    -0.032 A 
HETATM    6  C3  UNL     1      27.020   0.707  53.775  1.00  0.00     0.051 A 
HETATM    7  C2  UNL     1      28.165  -0.014  53.905  1.00  0.00     0.102 A 
HETATM    8  C14 UNL     1      28.123  -1.270  53.355  1.00  0.00     0.099 A 
HETATM    9  C13 UNL     1      27.071  -1.866  52.700  1.00  0.00     0.040 A 
HETATM   10  C12 UNL     1      25.924  -1.067  52.601  1.00  0.00     0.014 A 
BRANCH   7  11
HETATM   11  O1  UNL     1      29.242   0.547  54.553  1.00  0.00    -0.353 OA
HETATM   12  C1  UNL     1      29.397   1.959  54.482  1.00  0.00     0.210 C 
ENDBRANCH   7  11
BRANCH   8  13
HETATM   13  O2  UNL     1      29.281  -2.060  53.461  1.00  0.00    -0.358 OA
HETATM   14  H10 UNL     1      29.827  -2.211  52.608  1.00  0.00     0.217 HD
ENDBRANCH   8  13
ENDBRANCH   4   5
ENDBRANCH   1   4
BRANCH   1  15
HETATM   15  C8  UNL     1      22.145   0.352  52.652  1.00  0.00     0.077 C 
HETATM   16  N2  UNL     1      21.714  -0.192  51.585  1.00  0.00    -0.301 NA
HETATM   17  H6  UNL     1      22.129  -0.196  50.651  1.00  0.00     0.186 HD
BRANCH  15  18
HETATM   18  C9  UNL     1      21.347   0.208  53.888  1.00  0.00     0.251 C 
HETATM   19  C10 UNL     1      20.002  -0.297  53.589  1.00  0.00     0.085 C 
HETATM   20  N3  UNL     1      18.959  -0.692  53.348  1.00  0.00    -0.195 NA
HETATM   21  C11 UNL     1      22.094  -0.741  54.748  1.00  0.00     0.085 C 
HETATM   22  N4  UNL     1      22.667  -1.491  55.403  1.00  0.00    -0.195 NA
ENDBRANCH  15  18
ENDBRANCH   1  15
TORSDOF 6
ENDMDL
