MODEL 1
REMARK VINA RESULT:      -7.9      0.000      0.000
REMARK  3 active torsions:
REMARK  status: ('A' for Active; 'I' for Inactive)
REMARK    1  A    between atoms: C2_2  and  C3_3 
REMARK    2  A    between atoms: C3_3  and  C4_4 
REMARK    3  A    between atoms: C4_4  and  C5_5 
ROOT
HETATM    1  C5  UNL     1      25.116   4.741  49.586  1.00  0.00     0.033 C 
HETATM    2  C6  UNL     1      25.619   3.951  50.675  1.00  0.00     0.127 C 
HETATM    3  N1  UNL     1      25.073   3.455  51.816  1.00  0.00    -0.374 N 
HETATM    4  C7  UNL     1      24.021   2.472  51.931  1.00  0.00     0.218 C 
HETATM    5  C8  UNL     1      24.323   1.573  53.027  1.00  0.00     0.098 C 
HETATM    6  O1  UNL     1      23.896   1.980  50.645  1.00  0.00    -0.324 OA
HETATM    7  C9  UNL     1      22.871   2.220  49.831  1.00  0.00     0.294 C 
HETATM    8  N2  UNL     1      21.935   3.210  49.785  1.00  0.00    -0.375 N 
HETATM    9  C10 UNL     1      21.986   4.477  49.195  1.00  0.00     0.155 C 
HETATM   10  C11 UNL     1      22.750   5.501  50.048  1.00  0.00    -0.053 C 
HETATM   11  C12 UNL     1      22.282   5.950  51.266  1.00  0.00     0.079 C 
HETATM   12  C13 UNL     1      22.799   4.861  52.272  1.00  0.00     0.252 C 
HETATM   13  O2  UNL     1      23.316   4.741  53.295  1.00  0.00    -0.268 OA
HETATM   14  N3  UNL     1      22.742   3.332  52.128  1.00  0.00    -0.264 N 
HETATM   15  C14 UNL     1      21.430   2.716  52.045  1.00  0.00     0.057 C 
HETATM   16  C15 UNL     1      20.472   2.053  52.690  1.00  0.00     0.002 C 
HETATM   17  C16 UNL     1      20.457   0.758  52.430  1.00  0.00     0.014 C 
HETATM   18  C17 UNL     1      20.074   0.548  51.032  1.00  0.00    -0.001 C 
HETATM   19  C18 UNL     1      20.256   1.556  50.191  1.00  0.00     0.004 C 
HETATM   20  C19 UNL     1      20.824   2.846  50.638  1.00  0.00     0.156 C 
HETATM   21  C20 UNL     1      24.097   5.769  49.474  1.00  0.00     0.021 C 
HETATM   22  C21 UNL     1      23.860   6.078  48.016  1.00  0.00     0.015 C 
HETATM   23  H11 UNL     1      25.389   3.818  52.742  1.00  0.00     0.158 HD
ENDROOT
BRANCH   1  24
HETATM   24  C4  UNL     1      26.291   5.265  48.803  1.00  0.00    -0.024 C 
BRANCH  24  25
HETATM   25  C3  UNL     1      27.510   4.828  48.706  1.00  0.00    -0.031 C 
BRANCH  25  26
HETATM   26  C2  UNL     1      28.776   5.450  48.250  1.00  0.00     0.022 C 
HETATM   27  C1  UNL     1      28.500   6.873  47.762  1.00  0.00     0.009 C 
ENDBRANCH  25  26
ENDBRANCH  24  25
ENDBRANCH   1  24
TORSDOF 3
ENDMDL
MODEL 2
REMARK VINA RESULT:      -7.6      2.377      5.049
REMARK  3 active torsions:
REMARK  status: ('A' for Active; 'I' for Inactive)
REMARK    1  A    between atoms: C2_2  and  C3_3 
REMARK    2  A    between atoms: C3_3  and  C4_4 
REMARK    3  A    between atoms: C4_4  and  C5_5 
ROOT
HETATM    1  C5  UNL     1      23.199   2.240  52.021  1.00  0.00     0.033 C 
HETATM    2  C6  UNL     1      24.056   3.361  52.285  1.00  0.00     0.127 C 
HETATM    3  N1  UNL     1      24.393   4.479  51.591  1.00  0.00    -0.374 N 
HETATM    4  C7  UNL     1      23.526   5.567  51.205  1.00  0.00     0.218 C 
HETATM    5  C8  UNL     1      24.232   6.823  51.364  1.00  0.00     0.098 C 
HETATM    6  O1  UNL     1      22.367   5.326  51.921  1.00  0.00    -0.324 OA
HETATM    7  C9  UNL     1      21.217   4.911  51.395  1.00  0.00     0.294 C 
HETATM    8  N2  UNL     1      20.907   4.259  50.240  1.00  0.00    -0.375 N 
HETATM    9  C10 UNL     1      20.898   2.891  49.947  1.00  0.00     0.155 C 
HETATM   10  C11 UNL     1      22.301   2.334  49.661  1.00  0.00    -0.053 C 
HETATM   11  C12 UNL     1      23.030   2.695  48.546  1.00  0.00     0.079 C 
HETATM   12  C13 UNL     1      23.746   4.017  48.998  1.00  0.00     0.252 C 
HETATM   13  O2  UNL     1      24.769   4.546  48.987  1.00  0.00    -0.268 OA
HETATM   14  N3  UNL     1      23.140   5.219  49.740  1.00  0.00    -0.264 N 
HETATM   15  C14 UNL     1      22.079   5.952  49.073  1.00  0.00     0.057 C 
HETATM   16  C15 UNL     1      21.751   7.034  48.368  1.00  0.00     0.002 C 
HETATM   17  C16 UNL     1      21.158   7.972  49.084  1.00  0.00     0.014 C 
HETATM   18  C17 UNL     1      19.846   7.493  49.520  1.00  0.00    -0.001 C 
HETATM   19  C18 UNL     1      19.657   6.181  49.563  1.00  0.00     0.004 C 
HETATM   20  C19 UNL     1      20.726   5.233  49.185  1.00  0.00     0.156 C 
HETATM   21  C20 UNL     1      22.801   1.537  50.815  1.00  0.00     0.021 C 
HETATM   22  C21 UNL     1      21.693   0.568  51.146  1.00  0.00     0.015 C 
HETATM   23  H11 UNL     1      25.370   4.598  51.243  1.00  0.00     0.158 HD
ENDROOT
BRANCH   1  24
HETATM   24  C4  UNL     1      23.519   1.157  53.019  1.00  0.00    -0.024 C 
BRANCH  24  25
HETATM   25  C3  UNL     1      24.659   0.697  53.436  1.00  0.00    -0.031 C 
BRANCH  25  26
HETATM   26  C2  UNL     1      25.600  -0.316  52.900  1.00  0.00     0.022 C 
HETATM   27  C1  UNL     1      26.559   0.349  51.910  1.00  0.00     0.009 C 
ENDBRANCH  25  26
ENDBRANCH  24  25
ENDBRANCH   1  24
TORSDOF 3
ENDMDL
MODEL 3
REMARK VINA RESULT:      -7.6      2.733      4.621
REMARK  3 active torsions:
REMARK  status: ('A' for Active; 'I' for Inactive)
REMARK    1  A    between atoms: C2_2  and  C3_3 
REMARK    2  A    between atoms: C3_3  and  C4_4 
REMARK    3  A    between atoms: C4_4  and  C5_5 
ROOT
HETATM    1  C5  UNL     1      23.632   1.240  52.474  1.00  0.00     0.033 C 
HETATM    2  C6  UNL     1      22.396   0.518  52.588  1.00  0.00     0.127 C 
HETATM    3  N1  UNL     1      21.095   0.823  52.339  1.00  0.00    -0.374 N 
HETATM    4  C7  UNL     1      20.495   1.132  51.062  1.00  0.00     0.218 C 
HETATM    5  C8  UNL     1      19.187   0.512  50.986  1.00  0.00     0.098 C 
HETATM    6  O1  UNL     1      21.479   0.792  50.152  1.00  0.00    -0.324 OA
HETATM    7  C9  UNL     1      22.193   1.660  49.440  1.00  0.00     0.294 C 
HETATM    8  N2  UNL     1      22.493   2.978  49.613  1.00  0.00    -0.375 N 
HETATM    9  C10 UNL     1      23.516   3.584  50.350  1.00  0.00     0.155 C 
HETATM   10  C11 UNL     1      23.207   3.653  51.853  1.00  0.00    -0.053 C 
HETATM   11  C12 UNL     1      22.199   4.442  52.369  1.00  0.00     0.079 C 
HETATM   12  C13 UNL     1      20.928   3.528  52.241  1.00  0.00     0.252 C 
HETATM   13  O2  UNL     1      20.005   3.168  52.829  1.00  0.00    -0.268 OA
HETATM   14  N3  UNL     1      20.481   2.686  51.036  1.00  0.00    -0.264 N 
HETATM   15  C14 UNL     1      20.170   3.390  49.805  1.00  0.00     0.057 C 
HETATM   16  C15 UNL     1      19.213   3.872  49.014  1.00  0.00     0.002 C 
HETATM   17  C16 UNL     1      18.966   3.115  47.961  1.00  0.00     0.014 C 
HETATM   18  C17 UNL     1      20.126   3.131  47.068  1.00  0.00    -0.001 C 
HETATM   19  C18 UNL     1      21.299   3.452  47.596  1.00  0.00     0.004 C 
HETATM   20  C19 UNL     1      21.439   3.780  49.031  1.00  0.00     0.156 C 
HETATM   21  C20 UNL     1      23.997   2.639  52.604  1.00  0.00     0.021 C 
HETATM   22  C21 UNL     1      25.425   2.825  52.151  1.00  0.00     0.015 C 
HETATM   23  H11 UNL     1      20.418   0.889  53.130  1.00  0.00     0.158 HD
ENDROOT
BRANCH   1  24
HETATM   24  C4  UNL     1      24.689   0.485  53.237  1.00  0.00    -0.024 C 
BRANCH  24  25
HETATM   25  C3  UNL     1      25.170  -0.708  53.066  1.00  0.00    -0.031 C 
BRANCH  25  26
HETATM   26  C2  UNL     1      26.493  -1.214  52.624  1.00  0.00     0.022 C 
HETATM   27  C1  UNL     1      27.576  -0.194  52.980  1.00  0.00     0.009 C 
ENDBRANCH  25  26
ENDBRANCH  24  25
ENDBRANCH   1  24
TORSDOF 3
ENDMDL
MODEL 4
REMARK VINA RESULT:      -7.4      4.850      9.529
REMARK  3 active torsions:
REMARK  status: ('A' for Active; 'I' for Inactive)
REMARK    1  A    between atoms: C2_2  and  C3_3 
REMARK    2  A    between atoms: C3_3  and  C4_4 
REMARK    3  A    between atoms: C4_4  and  C5_5 
ROOT
HETATM    1  C5  UNL     1      27.434   6.576  48.339  1.00  0.00     0.033 C 
HETATM    2  C6  UNL     1      28.797   6.165  48.152  1.00  0.00     0.127 C 
HETATM    3  N1  UNL     1      29.869   6.704  47.515  1.00  0.00    -0.374 N 
HETATM    4  C7  UNL     1      30.557   7.932  47.841  1.00  0.00     0.218 C 
HETATM    5  C8  UNL     1      31.985   7.739  47.674  1.00  0.00     0.098 C 
HETATM    6  O1  UNL     1      30.042   8.273  49.077  1.00  0.00    -0.324 OA
HETATM    7  C9  UNL     1      29.213   9.288  49.306  1.00  0.00     0.294 C 
HETATM    8  N2  UNL     1      28.357   9.984  48.506  1.00  0.00    -0.375 N 
HETATM    9  C10 UNL     1      27.036   9.709  48.137  1.00  0.00     0.155 C 
HETATM   10  C11 UNL     1      26.937   8.668  47.012  1.00  0.00    -0.053 C 
HETATM   11  C12 UNL     1      27.375   8.918  45.727  1.00  0.00     0.079 C 
HETATM   12  C13 UNL     1      28.904   8.567  45.795  1.00  0.00     0.252 C 
HETATM   13  O2  UNL     1      29.732   8.001  45.229  1.00  0.00    -0.268 OA
HETATM   14  N3  UNL     1      29.924   8.969  46.872  1.00  0.00    -0.264 N 
HETATM   15  C14 UNL     1      30.182  10.386  47.053  1.00  0.00     0.057 C 
HETATM   16  C15 UNL     1      31.002  11.406  46.802  1.00  0.00     0.002 C 
HETATM   17  C16 UNL     1      31.775  11.727  47.823  1.00  0.00     0.014 C 
HETATM   18  C17 UNL     1      30.952  12.267  48.906  1.00  0.00    -0.001 C 
HETATM   19  C18 UNL     1      29.666  11.943  48.916  1.00  0.00     0.004 C 
HETATM   20  C19 UNL     1      29.080  11.069  47.878  1.00  0.00     0.156 C 
HETATM   21  C20 UNL     1      26.497   7.350  47.547  1.00  0.00     0.021 C 
HETATM   22  C21 UNL     1      25.267   7.640  48.372  1.00  0.00     0.015 C 
HETATM   23  H11 UNL     1      30.257   6.237  46.666  1.00  0.00     0.158 HD
ENDROOT
BRANCH   1  24
HETATM   24  C4  UNL     1      26.648   5.387  48.828  1.00  0.00    -0.024 C 
BRANCH  24  25
HETATM   25  C3  UNL     1      27.034   4.194  49.166  1.00  0.00    -0.031 C 
BRANCH  25  26
HETATM   26  C2  UNL     1      26.341   3.048  49.803  1.00  0.00     0.022 C 
HETATM   27  C1  UNL     1      24.831   3.289  49.787  1.00  0.00     0.009 C 
ENDBRANCH  25  26
ENDBRANCH  24  25
ENDBRANCH   1  24
TORSDOF 3
ENDMDL
MODEL 5
REMARK VINA RESULT:      -7.1      1.802      3.683
REMARK  3 active torsions:
REMARK  status: ('A' for Active; 'I' for Inactive)
REMARK    1  A    between atoms: C2_2  and  C3_3 
REMARK    2  A    between atoms: C3_3  and  C4_4 
REMARK    3  A    between atoms: C4_4  and  C5_5 
ROOT
HETATM    1  C5  UNL     1      23.387   6.053  50.418  1.00  0.00     0.033 C 
HETATM    2  C6  UNL     1      21.991   6.011  50.750  1.00  0.00     0.127 C 
HETATM    3  N1  UNL     1      21.044   5.037  50.735  1.00  0.00    -0.374 N 
HETATM    4  C7  UNL     1      21.004   3.838  51.540  1.00  0.00     0.218 C 
HETATM    5  C8  UNL     1      19.639   3.586  51.958  1.00  0.00     0.098 C 
HETATM    6  O1  UNL     1      21.992   4.050  52.484  1.00  0.00    -0.324 OA
HETATM    7  C9  UNL     1      23.160   3.413  52.524  1.00  0.00     0.294 C 
HETATM    8  N2  UNL     1      23.888   2.752  51.581  1.00  0.00    -0.375 N 
HETATM    9  C10 UNL     1      24.810   3.235  50.646  1.00  0.00     0.155 C 
HETATM   10  C11 UNL     1      24.137   3.858  49.414  1.00  0.00    -0.053 C 
HETATM   11  C12 UNL     1      23.416   3.113  48.504  1.00  0.00     0.079 C 
HETATM   12  C13 UNL     1      21.984   3.052  49.143  1.00  0.00     0.252 C 
HETATM   13  O2  UNL     1      20.868   3.173  48.886  1.00  0.00    -0.268 OA
HETATM   14  N3  UNL     1      21.608   2.754  50.604  1.00  0.00    -0.264 N 
HETATM   15  C14 UNL     1      21.962   1.450  51.133  1.00  0.00     0.057 C 
HETATM   16  C15 UNL     1      21.540   0.225  51.442  1.00  0.00     0.002 C 
HETATM   17  C16 UNL     1      21.329   0.049  52.734  1.00  0.00     0.014 C 
HETATM   18  C17 UNL     1      22.605   0.112  53.448  1.00  0.00    -0.001 C 
HETATM   19  C18 UNL     1      23.606   0.749  52.856  1.00  0.00     0.004 C 
HETATM   20  C19 UNL     1      23.446   1.375  51.527  1.00  0.00     0.156 C 
HETATM   21  C20 UNL     1      24.217   5.344  49.461  1.00  0.00     0.021 C 
HETATM   22  C21 UNL     1      25.668   5.662  49.730  1.00  0.00     0.015 C 
HETATM   23  H11 UNL     1      20.251   5.095  50.059  1.00  0.00     0.158 HD
ENDROOT
BRANCH   1  24
HETATM   24  C4  UNL     1      23.799   7.498  50.302  1.00  0.00    -0.024 C 
BRANCH  24  25
HETATM   25  C3  UNL     1      23.278   8.478  49.629  1.00  0.00    -0.031 C 
BRANCH  25  26
HETATM   26  C2  UNL     1      23.166   8.764  48.178  1.00  0.00     0.022 C 
HETATM   27  C1  UNL     1      24.562   8.792  47.553  1.00  0.00     0.009 C 
ENDBRANCH  25  26
ENDBRANCH  24  25
ENDBRANCH   1  24
TORSDOF 3
ENDMDL
MODEL 6
REMARK VINA RESULT:      -7.1      5.411     10.741
REMARK  3 active torsions:
REMARK  status: ('A' for Active; 'I' for Inactive)
REMARK    1  A    between atoms: C2_2  and  C3_3 
REMARK    2  A    between atoms: C3_3  and  C4_4 
REMARK    3  A    between atoms: C4_4  and  C5_5 
ROOT
HETATM    1  C5  UNL     1      29.365   6.372  48.000  1.00  0.00     0.033 C 
HETATM    2  C6  UNL     1      28.532   7.524  48.206  1.00  0.00     0.127 C 
HETATM    3  N1  UNL     1      28.776   8.848  48.388  1.00  0.00    -0.374 N 
HETATM    4  C7  UNL     1      29.369   9.769  47.447  1.00  0.00     0.218 C 
HETATM    5  C8  UNL     1      28.680  11.042  47.524  1.00  0.00     0.098 C 
HETATM    6  O1  UNL     1      29.382   9.057  46.262  1.00  0.00    -0.324 OA
HETATM    7  C9  UNL     1      30.472   8.569  45.676  1.00  0.00     0.294 C 
HETATM    8  N2  UNL     1      31.713   8.252  46.142  1.00  0.00    -0.375 N 
HETATM    9  C10 UNL     1      32.182   7.079  46.742  1.00  0.00     0.155 C 
HETATM   10  C11 UNL     1      31.808   6.980  48.228  1.00  0.00    -0.053 C 
HETATM   11  C12 UNL     1      32.331   7.826  49.185  1.00  0.00     0.079 C 
HETATM   12  C13 UNL     1      31.378   9.073  49.120  1.00  0.00     0.252 C 
HETATM   13  O2  UNL     1      30.789   9.802  49.790  1.00  0.00    -0.268 OA
HETATM   14  N3  UNL     1      30.863   9.811  47.874  1.00  0.00    -0.264 N 
HETATM   15  C14 UNL     1      31.847  10.447  47.018  1.00  0.00     0.057 C 
HETATM   16  C15 UNL     1      32.441  11.586  46.665  1.00  0.00     0.002 C 
HETATM   17  C16 UNL     1      31.983  12.092  45.535  1.00  0.00     0.014 C 
HETATM   18  C17 UNL     1      32.348  11.210  44.425  1.00  0.00    -0.001 C 
HETATM   19  C18 UNL     1      32.614   9.944  44.712  1.00  0.00     0.004 C 
HETATM   20  C19 UNL     1      32.547   9.434  46.098  1.00  0.00     0.156 C 
HETATM   21  C20 UNL     1      30.701   6.005  48.432  1.00  0.00     0.021 C 
HETATM   22  C21 UNL     1      31.130   4.751  47.711  1.00  0.00     0.015 C 
HETATM   23  H11 UNL     1      28.561   9.293  49.307  1.00  0.00     0.158 HD
ENDROOT
BRANCH   1  24
HETATM   24  C4  UNL     1      28.527   5.141  48.222  1.00  0.00    -0.024 C 
BRANCH  24  25
HETATM   25  C3  UNL     1      27.336   5.002  48.721  1.00  0.00    -0.031 C 
BRANCH  25  26
HETATM   26  C2  UNL     1      26.670   3.904  49.463  1.00  0.00     0.022 C 
HETATM   27  C1  UNL     1      25.161   4.154  49.502  1.00  0.00     0.009 C 
ENDBRANCH  25  26
ENDBRANCH  24  25
ENDBRANCH   1  24
TORSDOF 3
ENDMDL
MODEL 7
REMARK VINA RESULT:      -6.9      7.660     10.398
REMARK  3 active torsions:
REMARK  status: ('A' for Active; 'I' for Inactive)
REMARK    1  A    between atoms: C2_2  and  C3_3 
REMARK    2  A    between atoms: C3_3  and  C4_4 
REMARK    3  A    between atoms: C4_4  and  C5_5 
ROOT
HETATM    1  C5  UNL     1      31.097   6.757  47.979  1.00  0.00     0.033 C 
HETATM    2  C6  UNL     1      32.206   7.619  47.681  1.00  0.00     0.127 C 
HETATM    3  N1  UNL     1      32.333   8.812  47.044  1.00  0.00    -0.374 N 
HETATM    4  C7  UNL     1      31.789  10.087  47.451  1.00  0.00     0.218 C 
HETATM    5  C8  UNL     1      32.763  11.128  47.192  1.00  0.00     0.098 C 
HETATM    6  O1  UNL     1      31.348   9.853  48.741  1.00  0.00    -0.324 OA
HETATM    7  C9  UNL     1      30.072   9.778  49.110  1.00  0.00     0.294 C 
HETATM    8  N2  UNL     1      28.923   9.509  48.428  1.00  0.00    -0.375 N 
HETATM    9  C10 UNL     1      28.328   8.285  48.104  1.00  0.00     0.155 C 
HETATM   10  C11 UNL     1      28.981   7.609  46.889  1.00  0.00    -0.053 C 
HETATM   11  C12 UNL     1      28.898   8.130  45.614  1.00  0.00     0.079 C 
HETATM   12  C13 UNL     1      30.084   9.156  45.567  1.00  0.00     0.252 C 
HETATM   13  O2  UNL     1      30.962   9.501  44.906  1.00  0.00    -0.268 OA
HETATM   14  N3  UNL     1      30.479  10.202  46.623  1.00  0.00    -0.264 N 
HETATM   15  C14 UNL     1      29.514  11.242  46.927  1.00  0.00     0.057 C 
HETATM   16  C15 UNL     1      29.149  12.509  46.734  1.00  0.00     0.002 C 
HETATM   17  C16 UNL     1      29.458  13.307  47.739  1.00  0.00     0.014 C 
HETATM   18  C17 UNL     1      28.660  12.944  48.911  1.00  0.00    -0.001 C 
HETATM   19  C18 UNL     1      28.166  11.715  48.957  1.00  0.00     0.004 C 
HETATM   20  C19 UNL     1      28.409  10.742  47.871  1.00  0.00     0.156 C 
HETATM   21  C20 UNL     1      29.838   6.468  47.315  1.00  0.00     0.021 C 
HETATM   22  C21 UNL     1      28.974   5.634  48.229  1.00  0.00     0.015 C 
HETATM   23  H11 UNL     1      32.843   8.863  46.135  1.00  0.00     0.158 HD
ENDROOT
BRANCH   1  24
HETATM   24  C4  UNL     1      31.642   5.414  48.389  1.00  0.00    -0.024 C 
BRANCH  24  25
HETATM   25  C3  UNL     1      32.412   4.581  47.758  1.00  0.00    -0.031 C 
BRANCH  25  26
HETATM   26  C2  UNL     1      32.165   3.584  46.689  1.00  0.00     0.022 C 
HETATM   27  C1  UNL     1      32.791   2.245  47.083  1.00  0.00     0.009 C 
ENDBRANCH  25  26
ENDBRANCH  24  25
ENDBRANCH   1  24
TORSDOF 3
ENDMDL
MODEL 8
REMARK VINA RESULT:      -6.8      6.416      8.824
REMARK  3 active torsions:
REMARK  status: ('A' for Active; 'I' for Inactive)
REMARK    1  A    between atoms: C2_2  and  C3_3 
REMARK    2  A    between atoms: C3_3  and  C4_4 
REMARK    3  A    between atoms: C4_4  and  C5_5 
ROOT
HETATM    1  C5  UNL     1      31.543   8.556  48.170  1.00  0.00     0.033 C 
HETATM    2  C6  UNL     1      30.795   7.463  48.725  1.00  0.00     0.127 C 
HETATM    3  N1  UNL     1      29.483   7.266  49.019  1.00  0.00    -0.374 N 
HETATM    4  C7  UNL     1      28.375   7.213  48.094  1.00  0.00     0.218 C 
HETATM    5  C8  UNL     1      27.456   6.171  48.507  1.00  0.00     0.098 C 
HETATM    6  O1  UNL     1      28.989   7.147  46.857  1.00  0.00    -0.324 OA
HETATM    7  C9  UNL     1      29.012   8.132  45.963  1.00  0.00     0.294 C 
HETATM    8  N2  UNL     1      28.857   9.482  46.065  1.00  0.00    -0.375 N 
HETATM    9  C10 UNL     1      29.789  10.480  46.370  1.00  0.00     0.155 C 
HETATM   10  C11 UNL     1      30.072  10.590  47.875  1.00  0.00    -0.053 C 
HETATM   11  C12 UNL     1      29.125  11.025  48.780  1.00  0.00     0.079 C 
HETATM   12  C13 UNL     1      28.325   9.717  49.118  1.00  0.00     0.252 C 
HETATM   13  O2  UNL     1      27.893   9.119  50.003  1.00  0.00    -0.268 OA
HETATM   14  N3  UNL     1      27.791   8.652  48.146  1.00  0.00    -0.264 N 
HETATM   15  C14 UNL     1      26.803   9.074  47.169  1.00  0.00     0.057 C 
HETATM   16  C15 UNL     1      25.513   9.107  46.838  1.00  0.00     0.002 C 
HETATM   17  C16 UNL     1      25.177   8.207  45.932  1.00  0.00     0.014 C 
HETATM   18  C17 UNL     1      25.819   8.537  44.658  1.00  0.00    -0.001 C 
HETATM   19  C18 UNL     1      26.903   9.300  44.700  1.00  0.00     0.004 C 
HETATM   20  C19 UNL     1      27.448   9.801  45.979  1.00  0.00     0.156 C 
HETATM   21  C20 UNL     1      31.397   9.999  48.210  1.00  0.00     0.021 C 
HETATM   22  C21 UNL     1      32.374  10.625  47.244  1.00  0.00     0.015 C 
HETATM   23  H11 UNL     1      29.183   7.172  50.014  1.00  0.00     0.158 HD
ENDROOT
BRANCH   1  24
HETATM   24  C4  UNL     1      33.005   8.300  48.423  1.00  0.00    -0.024 C 
BRANCH  24  25
HETATM   25  C3  UNL     1      33.703   7.208  48.344  1.00  0.00    -0.031 C 
BRANCH  25  26
HETATM   26  C2  UNL     1      35.140   6.907  48.551  1.00  0.00     0.022 C 
HETATM   27  C1  UNL     1      35.295   5.472  49.057  1.00  0.00     0.009 C 
ENDBRANCH  25  26
ENDBRANCH  24  25
ENDBRANCH   1  24
TORSDOF 3
ENDMDL
MODEL 9
REMARK VINA RESULT:      -6.7      6.728     12.135
REMARK  3 active torsions:
REMARK  status: ('A' for Active; 'I' for Inactive)
REMARK    1  A    between atoms: C2_2  and  C3_3 
REMARK    2  A    between atoms: C3_3  and  C4_4 
REMARK    3  A    between atoms: C4_4  and  C5_5 
ROOT
HETATM    1  C5  UNL     1      31.027   6.070  47.667  1.00  0.00     0.033 C 
HETATM    2  C6  UNL     1      30.953   7.432  48.115  1.00  0.00     0.127 C 
HETATM    3  N1  UNL     1      31.817   8.480  48.102  1.00  0.00    -0.374 N 
HETATM    4  C7  UNL     1      32.352   9.163  46.946  1.00  0.00     0.218 C 
HETATM    5  C8  UNL     1      32.401  10.587  47.212  1.00  0.00     0.098 C 
HETATM    6  O1  UNL     1      31.589   8.677  45.901  1.00  0.00    -0.324 OA
HETATM    7  C9  UNL     1      32.024   7.842  44.961  1.00  0.00     0.294 C 
HETATM    8  N2  UNL     1      33.059   6.957  44.913  1.00  0.00    -0.375 N 
HETATM    9  C10 UNL     1      33.136   5.630  45.349  1.00  0.00     0.155 C 
HETATM   10  C11 UNL     1      33.358   5.513  46.865  1.00  0.00    -0.053 C 
HETATM   11  C12 UNL     1      34.527   5.914  47.478  1.00  0.00     0.079 C 
HETATM   12  C13 UNL     1      34.297   7.448  47.721  1.00  0.00     0.252 C 
HETATM   13  O2  UNL     1      34.407   8.268  48.523  1.00  0.00    -0.268 OA
HETATM   14  N3  UNL     1      33.739   8.492  46.740  1.00  0.00    -0.264 N 
HETATM   15  C14 UNL     1      34.493   8.738  45.524  1.00  0.00     0.057 C 
HETATM   16  C15 UNL     1      35.351   9.538  44.893  1.00  0.00     0.002 C 
HETATM   17  C16 UNL     1      34.779  10.335  44.009  1.00  0.00     0.014 C 
HETATM   18  C17 UNL     1      34.251   9.534  42.903  1.00  0.00    -0.001 C 
HETATM   19  C18 UNL     1      34.004   8.253  43.140  1.00  0.00     0.004 C 
HETATM   20  C19 UNL     1      34.248   7.650  44.467  1.00  0.00     0.156 C 
HETATM   21  C20 UNL     1      32.103   5.103  47.553  1.00  0.00     0.021 C 
HETATM   22  C21 UNL     1      31.607   3.892  46.801  1.00  0.00     0.015 C 
HETATM   23  H11 UNL     1      32.197   8.851  49.000  1.00  0.00     0.158 HD
ENDROOT
BRANCH   1  24
HETATM   24  C4  UNL     1      29.879   5.311  48.282  1.00  0.00    -0.024 C 
BRANCH  24  25
HETATM   25  C3  UNL     1      28.609   5.576  48.320  1.00  0.00    -0.031 C 
BRANCH  25  26
HETATM   26  C2  UNL     1      27.418   4.776  48.695  1.00  0.00     0.022 C 
HETATM   27  C1  UNL     1      26.278   5.713  49.098  1.00  0.00     0.009 C 
ENDBRANCH  25  26
ENDBRANCH  24  25
ENDBRANCH   1  24
TORSDOF 3
ENDMDL
