MODEL 1
REMARK VINA RESULT:      -8.1      0.000      0.000
REMARK  5 active torsions:
REMARK  status: ('A' for Active; 'I' for Inactive)
REMARK    1  A    between atoms: C2_2  and  C3_4 
REMARK    2  A    between atoms: C2_2  and  O1_6 
REMARK    3  A    between atoms: O1_6  and  C4_7 
REMARK    4  A    between atoms: C8_11  and  N1_12 
REMARK    5  A    between atoms: N1_12  and  C9_13 
ROOT
HETATM    1  C4  UNL     1      26.813   2.019  53.199  1.00  0.00     0.075 A 
HETATM    2  C5  UNL     1      25.541   2.209  53.696  1.00  0.00     0.037 A 
HETATM    3  C6  UNL     1      24.567   2.699  52.851  1.00  0.00     0.005 A 
HETATM    4  C7  UNL     1      24.902   2.981  51.545  1.00  0.00     0.029 A 
HETATM    5  C8  UNL     1      26.145   2.816  50.987  1.00  0.00     0.036 A 
HETATM    6  C17 UNL     1      27.088   2.319  51.883  1.00  0.00     0.066 A 
ENDROOT
BRANCH   5   7
HETATM    7  N1  UNL     1      26.535   3.081  49.653  1.00  0.00    -0.344 N 
HETATM    8  H9  UNL     1      26.713   2.243  49.019  1.00  0.00     0.167 HD
BRANCH   7   9
HETATM    9  C9  UNL     1      26.719   4.376  49.098  1.00  0.00     0.108 C 
HETATM   10  N2  UNL     1      27.982   4.561  48.806  1.00  0.00    -0.247 NA
HETATM   11  C10 UNL     1      28.572   5.725  48.236  1.00  0.00     0.119 C 
HETATM   12  C11 UNL     1      28.157   6.997  48.389  1.00  0.00     0.031 C 
HETATM   13  C12 UNL     1      26.990   7.422  49.193  1.00  0.00    -0.025 A 
HETATM   14  C13 UNL     1      26.492   8.443  49.913  1.00  0.00     0.036 A 
HETATM   15  C15 UNL     1      25.823   6.583  49.425  1.00  0.00    -0.019 A 
HETATM   16  C14 UNL     1      25.309   7.588  50.148  1.00  0.00     0.042 A 
HETATM   17 CL1  UNL     1      23.839   7.903  51.061  1.00  0.00    -0.084 Cl
HETATM   18  C16 UNL     1      25.497   5.206  48.974  1.00  0.00     0.119 C 
ENDBRANCH   7   9
ENDBRANCH   5   7
BRANCH   1  19
HETATM   19  O1  UNL     1      27.824   1.528  54.012  1.00  0.00    -0.307 OA
BRANCH  19  20
HETATM   20  C2  UNL     1      28.236   0.197  54.082  1.00  0.00     0.232 C 
HETATM   21  C1  UNL     1      27.432  -0.748  53.240  1.00  0.00     0.087 C 
HETATM   22  F1  UNL     1      28.184  -0.171  55.432  1.00  0.00    -0.209 F 
BRANCH  20  23
HETATM   23  C3  UNL     1      29.708   0.027  53.693  1.00  0.00     0.295 C 
HETATM   24  F2  UNL     1      29.899  -1.048  52.873  1.00  0.00    -0.249 F 
ENDBRANCH  20  23
ENDBRANCH  19  20
ENDBRANCH   1  19
TORSDOF 5
ENDMDL
MODEL 2
REMARK VINA RESULT:      -7.7      3.262      3.994
REMARK  5 active torsions:
REMARK  status: ('A' for Active; 'I' for Inactive)
REMARK    1  A    between atoms: C2_2  and  C3_4 
REMARK    2  A    between atoms: C2_2  and  O1_6 
REMARK    3  A    between atoms: O1_6  and  C4_7 
REMARK    4  A    between atoms: C8_11  and  N1_12 
REMARK    5  A    between atoms: N1_12  and  C9_13 
ROOT
HETATM    1  C4  UNL     1      24.966   0.302  53.404  1.00  0.00     0.075 A 
HETATM    2  C5  UNL     1      23.751  -0.322  53.224  1.00  0.00     0.037 A 
HETATM    3  C6  UNL     1      22.663   0.441  52.854  1.00  0.00     0.005 A 
HETATM    4  C7  UNL     1      22.833   1.796  52.678  1.00  0.00     0.029 A 
HETATM    5  C8  UNL     1      24.011   2.480  52.840  1.00  0.00     0.036 A 
HETATM    6  C17 UNL     1      25.074   1.662  53.213  1.00  0.00     0.066 A 
ENDROOT
BRANCH   5   7
HETATM    7  N1  UNL     1      24.237   3.866  52.664  1.00  0.00    -0.344 N 
HETATM    8  H9  UNL     1      24.484   4.436  53.530  1.00  0.00     0.167 HD
BRANCH   7   9
HETATM    9  C9  UNL     1      24.151   4.556  51.425  1.00  0.00     0.108 C 
HETATM   10  N2  UNL     1      23.786   5.797  51.631  1.00  0.00    -0.247 NA
HETATM   11  C10 UNL     1      23.586   6.810  50.649  1.00  0.00     0.119 C 
HETATM   12  C11 UNL     1      23.178   6.631  49.378  1.00  0.00     0.031 C 
HETATM   13  C12 UNL     1      22.857   5.325  48.761  1.00  0.00    -0.025 A 
HETATM   14  C13 UNL     1      22.105   4.736  47.814  1.00  0.00     0.036 A 
HETATM   15  C15 UNL     1      23.467   4.069  49.173  1.00  0.00    -0.019 A 
HETATM   16  C14 UNL     1      22.726   3.462  48.235  1.00  0.00     0.042 A 
HETATM   17 CL1  UNL     1      22.484   1.825  47.637  1.00  0.00    -0.084 Cl
HETATM   18  C16 UNL     1      24.478   3.761  50.217  1.00  0.00     0.119 C 
ENDBRANCH   7   9
ENDBRANCH   5   7
BRANCH   1  19
HETATM   19  O1  UNL     1      26.088  -0.425  53.776  1.00  0.00    -0.307 OA
BRANCH  19  20
HETATM   20  C2  UNL     1      27.151  -0.763  52.940  1.00  0.00     0.232 C 
HETATM   21  C1  UNL     1      28.487  -0.254  53.395  1.00  0.00     0.087 C 
HETATM   22  F1  UNL     1      26.836  -0.268  51.668  1.00  0.00    -0.209 F 
BRANCH  20  23
HETATM   23  C3  UNL     1      27.274  -2.277  52.745  1.00  0.00     0.295 C 
HETATM   24  F2  UNL     1      26.538  -2.717  51.682  1.00  0.00    -0.249 F 
ENDBRANCH  20  23
ENDBRANCH  19  20
ENDBRANCH   1  19
TORSDOF 5
ENDMDL
MODEL 3
REMARK VINA RESULT:      -7.7      3.049      3.735
REMARK  5 active torsions:
REMARK  status: ('A' for Active; 'I' for Inactive)
REMARK    1  A    between atoms: C2_2  and  C3_4 
REMARK    2  A    between atoms: C2_2  and  O1_6 
REMARK    3  A    between atoms: O1_6  and  C4_7 
REMARK    4  A    between atoms: C8_11  and  N1_12 
REMARK    5  A    between atoms: N1_12  and  C9_13 
ROOT
HETATM    1  C4  UNL     1      26.485   0.696  52.985  1.00  0.00     0.075 A 
HETATM    2  C5  UNL     1      25.634  -0.368  53.189  1.00  0.00     0.037 A 
HETATM    3  C6  UNL     1      24.275  -0.131  53.227  1.00  0.00     0.005 A 
HETATM    4  C7  UNL     1      23.822   1.158  53.059  1.00  0.00     0.029 A 
HETATM    5  C8  UNL     1      24.612   2.261  52.853  1.00  0.00     0.036 A 
HETATM    6  C17 UNL     1      25.972   1.965  52.824  1.00  0.00     0.066 A 
ENDROOT
BRANCH   5   7
HETATM    7  N1  UNL     1      24.195   3.600  52.667  1.00  0.00    -0.344 N 
HETATM    8  H9  UNL     1      23.848   4.128  53.525  1.00  0.00     0.167 HD
BRANCH   7   9
HETATM    9  C9  UNL     1      24.193   4.290  51.425  1.00  0.00     0.108 C 
HETATM   10  N2  UNL     1      23.942   5.561  51.622  1.00  0.00    -0.247 NA
HETATM   11  C10 UNL     1      23.854   6.583  50.634  1.00  0.00     0.119 C 
HETATM   12  C11 UNL     1      23.450   6.438  49.358  1.00  0.00     0.031 C 
HETATM   13  C12 UNL     1      23.018   5.166  48.739  1.00  0.00    -0.025 A 
HETATM   14  C13 UNL     1      22.228   4.646  47.783  1.00  0.00     0.036 A 
HETATM   15  C15 UNL     1      23.501   3.859  49.164  1.00  0.00    -0.019 A 
HETATM   16  C14 UNL     1      22.720   3.321  48.217  1.00  0.00     0.042 A 
HETATM   17 CL1  UNL     1      22.335   1.711  47.620  1.00  0.00    -0.084 Cl
HETATM   18  C16 UNL     1      24.461   3.463  50.225  1.00  0.00     0.119 C 
ENDBRANCH   7   9
ENDBRANCH   5   7
BRANCH   1  19
HETATM   19  O1  UNL     1      27.859   0.506  52.940  1.00  0.00    -0.307 OA
BRANCH  19  20
HETATM   20  C2  UNL     1      28.690   0.318  54.044  1.00  0.00     0.232 C 
HETATM   21  C1  UNL     1      29.756  -0.719  53.851  1.00  0.00     0.087 C 
HETATM   22  F1  UNL     1      27.859  -0.015  55.121  1.00  0.00    -0.209 F 
BRANCH  20  23
HETATM   23  C3  UNL     1      29.378   1.616  54.476  1.00  0.00     0.295 C 
HETATM   24  F2  UNL     1      29.062   2.660  53.655  1.00  0.00    -0.249 F 
ENDBRANCH  20  23
ENDBRANCH  19  20
ENDBRANCH   1  19
TORSDOF 5
ENDMDL
MODEL 4
REMARK VINA RESULT:      -7.6      2.164      3.049
REMARK  5 active torsions:
REMARK  status: ('A' for Active; 'I' for Inactive)
REMARK    1  A    between atoms: C2_2  and  C3_4 
REMARK    2  A    between atoms: C2_2  and  O1_6 
REMARK    3  A    between atoms: O1_6  and  C4_7 
REMARK    4  A    between atoms: C8_11  and  N1_12 
REMARK    5  A    between atoms: N1_12  and  C9_13 
ROOT
HETATM    1  C4  UNL     1      26.413   0.848  52.976  1.00  0.00     0.075 A 
HETATM    2  C5  UNL     1      25.550  -0.214  53.140  1.00  0.00     0.037 A 
HETATM    3  C6  UNL     1      24.194   0.036  53.187  1.00  0.00     0.005 A 
HETATM    4  C7  UNL     1      23.755   1.336  53.068  1.00  0.00     0.029 A 
HETATM    5  C8  UNL     1      24.557   2.437  52.902  1.00  0.00     0.036 A 
HETATM    6  C17 UNL     1      25.914   2.127  52.862  1.00  0.00     0.066 A 
ENDROOT
BRANCH   5   7
HETATM    7  N1  UNL     1      24.155   3.787  52.767  1.00  0.00    -0.344 N 
HETATM    8  H9  UNL     1      24.102   4.373  53.656  1.00  0.00     0.167 HD
BRANCH   7   9
HETATM    9  C9  UNL     1      23.808   4.417  51.542  1.00  0.00     0.108 C 
HETATM   10  N2  UNL     1      23.430   3.516  50.669  1.00  0.00    -0.247 NA
HETATM   11  C10 UNL     1      23.007   3.741  49.329  1.00  0.00     0.119 C 
HETATM   12  C11 UNL     1      23.408   4.735  48.512  1.00  0.00     0.031 C 
HETATM   13  C12 UNL     1      24.381   5.791  48.869  1.00  0.00    -0.025 A 
HETATM   14  C13 UNL     1      25.305   6.622  48.356  1.00  0.00     0.036 A 
HETATM   15  C15 UNL     1      24.581   6.275  50.228  1.00  0.00    -0.019 A 
HETATM   16  C14 UNL     1      25.507   7.111  49.737  1.00  0.00     0.042 A 
HETATM   17 CL1  UNL     1      26.598   8.342  50.361  1.00  0.00    -0.084 Cl
HETATM   18  C16 UNL     1      23.942   5.893  51.512  1.00  0.00     0.119 C 
ENDBRANCH   7   9
ENDBRANCH   5   7
BRANCH   1  19
HETATM   19  O1  UNL     1      27.785   0.643  52.924  1.00  0.00    -0.307 OA
BRANCH  19  20
HETATM   20  C2  UNL     1      28.615   0.419  54.021  1.00  0.00     0.232 C 
HETATM   21  C1  UNL     1      29.590  -0.707  53.844  1.00  0.00     0.087 C 
HETATM   22  F1  UNL     1      27.777   0.185  55.119  1.00  0.00    -0.209 F 
BRANCH  20  23
HETATM   23  C3  UNL     1      29.414   1.668  54.405  1.00  0.00     0.295 C 
HETATM   24  F2  UNL     1      28.966   2.782  53.754  1.00  0.00    -0.249 F 
ENDBRANCH  20  23
ENDBRANCH  19  20
ENDBRANCH   1  19
TORSDOF 5
ENDMDL
MODEL 5
REMARK VINA RESULT:      -7.6      3.897      5.202
REMARK  5 active torsions:
REMARK  status: ('A' for Active; 'I' for Inactive)
REMARK    1  A    between atoms: C2_2  and  C3_4 
REMARK    2  A    between atoms: C2_2  and  O1_6 
REMARK    3  A    between atoms: O1_6  and  C4_7 
REMARK    4  A    between atoms: C8_11  and  N1_12 
REMARK    5  A    between atoms: N1_12  and  C9_13 
ROOT
HETATM    1  C4  UNL     1      23.470  -0.604  53.563  1.00  0.00     0.075 A 
HETATM    2  C5  UNL     1      22.860  -1.011  54.730  1.00  0.00     0.037 A 
HETATM    3  C6  UNL     1      21.483  -0.985  54.801  1.00  0.00     0.005 A 
HETATM    4  C7  UNL     1      20.771  -0.553  53.704  1.00  0.00     0.029 A 
HETATM    5  C8  UNL     1      21.313  -0.136  52.514  1.00  0.00     0.036 A 
HETATM    6  C17 UNL     1      22.704  -0.183  52.498  1.00  0.00     0.066 A 
ENDROOT
BRANCH   5   7
HETATM    7  N1  UNL     1      20.626   0.307  51.359  1.00  0.00    -0.344 N 
HETATM    8  H9  UNL     1      19.702  -0.171  51.126  1.00  0.00     0.167 HD
BRANCH   7   9
HETATM    9  C9  UNL     1      21.077   1.329  50.482  1.00  0.00     0.108 C 
HETATM   10  N2  UNL     1      21.405   0.811  49.325  1.00  0.00    -0.247 NA
HETATM   11  C10 UNL     1      21.902   1.502  48.183  1.00  0.00     0.119 C 
HETATM   12  C11 UNL     1      22.646   2.624  48.180  1.00  0.00     0.031 C 
HETATM   13  C12 UNL     1      23.090   3.356  49.387  1.00  0.00    -0.025 A 
HETATM   14  C13 UNL     1      24.061   4.153  49.868  1.00  0.00     0.036 A 
HETATM   15  C15 UNL     1      22.353   3.360  50.642  1.00  0.00    -0.019 A 
HETATM   16  C14 UNL     1      23.311   4.154  51.142  1.00  0.00     0.042 A 
HETATM   17 CL1  UNL     1      23.663   4.949  52.671  1.00  0.00    -0.084 Cl
HETATM   18  C16 UNL     1      21.081   2.703  51.038  1.00  0.00     0.119 C 
ENDBRANCH   7   9
ENDBRANCH   5   7
BRANCH   1  19
HETATM   19  O1  UNL     1      24.853  -0.614  53.447  1.00  0.00    -0.307 OA
BRANCH  19  20
HETATM   20  C2  UNL     1      25.681   0.508  53.497  1.00  0.00     0.232 C 
HETATM   21  C1  UNL     1      26.734   0.456  54.563  1.00  0.00     0.087 C 
HETATM   22  F1  UNL     1      24.844   1.617  53.675  1.00  0.00    -0.209 F 
BRANCH  20  23
HETATM   23  C3  UNL     1      26.384   0.766  52.161  1.00  0.00     0.295 C 
HETATM   24  F2  UNL     1      26.732  -0.395  51.533  1.00  0.00    -0.249 F 
ENDBRANCH  20  23
ENDBRANCH  19  20
ENDBRANCH   1  19
TORSDOF 5
ENDMDL
MODEL 6
REMARK VINA RESULT:      -7.6      4.102      6.414
REMARK  5 active torsions:
REMARK  status: ('A' for Active; 'I' for Inactive)
REMARK    1  A    between atoms: C2_2  and  C3_4 
REMARK    2  A    between atoms: C2_2  and  O1_6 
REMARK    3  A    between atoms: O1_6  and  C4_7 
REMARK    4  A    between atoms: C8_11  and  N1_12 
REMARK    5  A    between atoms: N1_12  and  C9_13 
ROOT
HETATM    1  C4  UNL     1      26.226   2.073  53.033  1.00  0.00     0.075 A 
HETATM    2  C5  UNL     1      27.031   2.259  51.930  1.00  0.00     0.037 A 
HETATM    3  C6  UNL     1      26.459   2.723  50.764  1.00  0.00     0.005 A 
HETATM    4  C7  UNL     1      25.107   2.984  50.747  1.00  0.00     0.029 A 
HETATM    5  C8  UNL     1      24.250   2.823  51.806  1.00  0.00     0.036 A 
HETATM    6  C17 UNL     1      24.879   2.353  52.955  1.00  0.00     0.066 A 
ENDROOT
BRANCH   5   7
HETATM    7  N1  UNL     1      22.859   3.085  51.840  1.00  0.00    -0.344 N 
HETATM    8  H9  UNL     1      22.549   4.030  52.222  1.00  0.00     0.167 HD
BRANCH   7   9
HETATM    9  C9  UNL     1      21.848   2.183  51.414  1.00  0.00     0.108 C 
HETATM   10  N2  UNL     1      20.894   2.840  50.803  1.00  0.00    -0.247 NA
HETATM   11  C10 UNL     1      19.706   2.300  50.232  1.00  0.00     0.119 C 
HETATM   12  C11 UNL     1      19.038   1.206  50.646  1.00  0.00     0.031 C 
HETATM   13  C12 UNL     1      19.426   0.352  51.791  1.00  0.00    -0.025 A 
HETATM   14  C13 UNL     1      18.936  -0.467  52.738  1.00  0.00     0.036 A 
HETATM   15  C15 UNL     1      20.801   0.183  52.240  1.00  0.00    -0.019 A 
HETATM   16  C14 UNL     1      20.333  -0.636  53.193  1.00  0.00     0.042 A 
HETATM   17 CL1  UNL     1      20.994  -1.592  54.513  1.00  0.00    -0.084 Cl
HETATM   18  C16 UNL     1      22.076   0.755  51.739  1.00  0.00     0.119 C 
ENDBRANCH   7   9
ENDBRANCH   5   7
BRANCH   1  19
HETATM   19  O1  UNL     1      26.757   1.608  54.228  1.00  0.00    -0.307 OA
BRANCH  19  20
HETATM   20  C2  UNL     1      27.065   0.278  54.516  1.00  0.00     0.232 C 
HETATM   21  C1  UNL     1      26.698  -0.694  53.435  1.00  0.00     0.087 C 
HETATM   22  F1  UNL     1      26.410  -0.036  55.713  1.00  0.00    -0.209 F 
BRANCH  20  23
HETATM   23  C3  UNL     1      28.552   0.085  54.828  1.00  0.00     0.295 C 
HETATM   24  F2  UNL     1      29.347   0.464  53.785  1.00  0.00    -0.249 F 
ENDBRANCH  20  23
ENDBRANCH  19  20
ENDBRANCH   1  19
TORSDOF 5
ENDMDL
MODEL 7
REMARK VINA RESULT:      -7.6      4.038      5.490
REMARK  5 active torsions:
REMARK  status: ('A' for Active; 'I' for Inactive)
REMARK    1  A    between atoms: C2_2  and  C3_4 
REMARK    2  A    between atoms: C2_2  and  O1_6 
REMARK    3  A    between atoms: O1_6  and  C4_7 
REMARK    4  A    between atoms: C8_11  and  N1_12 
REMARK    5  A    between atoms: N1_12  and  C9_13 
ROOT
HETATM    1  C4  UNL     1      24.530   0.147  53.358  1.00  0.00     0.075 A 
HETATM    2  C5  UNL     1      25.525  -0.753  53.046  1.00  0.00     0.037 A 
HETATM    3  C6  UNL     1      26.579  -0.330  52.263  1.00  0.00     0.005 A 
HETATM    4  C7  UNL     1      26.596   0.975  51.824  1.00  0.00     0.029 A 
HETATM    5  C8  UNL     1      25.641   1.922  52.097  1.00  0.00     0.036 A 
HETATM    6  C17 UNL     1      24.602   1.441  52.889  1.00  0.00     0.066 A 
ENDROOT
BRANCH   5   7
HETATM    7  N1  UNL     1      25.619   3.273  51.678  1.00  0.00    -0.344 N 
HETATM    8  H9  UNL     1      26.469   3.872  51.909  1.00  0.00     0.167 HD
BRANCH   7   9
HETATM    9  C9  UNL     1      24.547   3.895  50.983  1.00  0.00     0.108 C 
HETATM   10  N2  UNL     1      24.171   4.976  51.619  1.00  0.00    -0.247 NA
HETATM   11  C10 UNL     1      23.130   5.875  51.247  1.00  0.00     0.119 C 
HETATM   12  C11 UNL     1      22.005   5.571  50.573  1.00  0.00     0.031 C 
HETATM   13  C12 UNL     1      21.639   4.222  50.088  1.00  0.00    -0.025 A 
HETATM   14  C13 UNL     1      20.593   3.429  49.796  1.00  0.00     0.036 A 
HETATM   15  C15 UNL     1      22.616   3.204  49.728  1.00  0.00    -0.019 A 
HETATM   16  C14 UNL     1      21.587   2.397  49.432  1.00  0.00     0.042 A 
HETATM   17 CL1  UNL     1      21.361   0.755  48.843  1.00  0.00    -0.084 Cl
HETATM   18  C16 UNL     1      24.101   3.218  49.742  1.00  0.00     0.119 C 
ENDBRANCH   7   9
ENDBRANCH   5   7
BRANCH   1  19
HETATM   19  O1  UNL     1      23.450  -0.234  54.142  1.00  0.00    -0.307 OA
BRANCH  19  20
HETATM   20  C2  UNL     1      22.187  -0.588  53.669  1.00  0.00     0.232 C 
HETATM   21  C1  UNL     1      21.594  -1.801  54.323  1.00  0.00     0.087 C 
HETATM   22  F1  UNL     1      22.314  -0.779  52.287  1.00  0.00    -0.209 F 
BRANCH  20  23
HETATM   23  C3  UNL     1      21.177   0.555  53.809  1.00  0.00     0.295 C 
HETATM   24  F2  UNL     1      21.335   1.499  52.836  1.00  0.00    -0.249 F 
ENDBRANCH  20  23
ENDBRANCH  19  20
ENDBRANCH   1  19
TORSDOF 5
ENDMDL
MODEL 8
REMARK VINA RESULT:      -7.5      3.831      6.659
REMARK  5 active torsions:
REMARK  status: ('A' for Active; 'I' for Inactive)
REMARK    1  A    between atoms: C2_2  and  C3_4 
REMARK    2  A    between atoms: C2_2  and  O1_6 
REMARK    3  A    between atoms: O1_6  and  C4_7 
REMARK    4  A    between atoms: C8_11  and  N1_12 
REMARK    5  A    between atoms: N1_12  and  C9_13 
ROOT
HETATM    1  C4  UNL     1      26.282   2.715  51.504  1.00  0.00     0.075 A 
HETATM    2  C5  UNL     1      26.646   3.134  50.243  1.00  0.00     0.037 A 
HETATM    3  C6  UNL     1      25.655   3.476  49.346  1.00  0.00     0.005 A 
HETATM    4  C7  UNL     1      24.341   3.387  49.745  1.00  0.00     0.029 A 
HETATM    5  C8  UNL     1      23.908   2.979  50.982  1.00  0.00     0.036 A 
HETATM    6  C17 UNL     1      24.949   2.646  51.846  1.00  0.00     0.066 A 
ENDROOT
BRANCH   5   7
HETATM    7  N1  UNL     1      22.573   2.879  51.442  1.00  0.00    -0.344 N 
HETATM    8  H9  UNL     1      22.011   3.781  51.512  1.00  0.00     0.167 HD
BRANCH   7   9
HETATM    9  C9  UNL     1      21.931   1.671  51.825  1.00  0.00     0.108 C 
HETATM   10  N2  UNL     1      20.640   1.867  51.930  1.00  0.00    -0.247 NA
HETATM   11  C10 UNL     1      19.650   0.909  52.292  1.00  0.00     0.119 C 
HETATM   12  C11 UNL     1      19.814  -0.150  53.108  1.00  0.00     0.031 C 
HETATM   13  C12 UNL     1      21.077  -0.516  53.787  1.00  0.00    -0.025 A 
HETATM   14  C13 UNL     1      21.577  -1.124  54.878  1.00  0.00     0.036 A 
HETATM   15  C15 UNL     1      22.396  -0.202  53.257  1.00  0.00    -0.019 A 
HETATM   16  C14 UNL     1      22.915  -0.804  54.337  1.00  0.00     0.042 A 
HETATM   17 CL1  UNL     1      24.515  -1.146  54.982  1.00  0.00    -0.084 Cl
HETATM   18  C16 UNL     1      22.817   0.499  52.018  1.00  0.00     0.119 C 
ENDBRANCH   7   9
ENDBRANCH   5   7
BRANCH   1  19
HETATM   19  O1  UNL     1      27.245   2.360  52.438  1.00  0.00    -0.307 OA
BRANCH  19  20
HETATM   20  C2  UNL     1      27.328   1.131  53.092  1.00  0.00     0.232 C 
HETATM   21  C1  UNL     1      26.869  -0.040  52.275  1.00  0.00     0.087 C 
HETATM   22  F1  UNL     1      26.573   1.248  54.266  1.00  0.00    -0.209 F 
BRANCH  20  23
HETATM   23  C3  UNL     1      28.749   0.831  53.577  1.00  0.00     0.295 C 
HETATM   24  F2  UNL     1      28.774   0.467  54.892  1.00  0.00    -0.249 F 
ENDBRANCH  20  23
ENDBRANCH  19  20
ENDBRANCH   1  19
TORSDOF 5
ENDMDL
MODEL 9
REMARK VINA RESULT:      -7.4      4.369      6.769
REMARK  5 active torsions:
REMARK  status: ('A' for Active; 'I' for Inactive)
REMARK    1  A    between atoms: C2_2  and  C3_4 
REMARK    2  A    between atoms: C2_2  and  O1_6 
REMARK    3  A    between atoms: O1_6  and  C4_7 
REMARK    4  A    between atoms: C8_11  and  N1_12 
REMARK    5  A    between atoms: N1_12  and  C9_13 
ROOT
HETATM    1  C4  UNL     1      25.761   2.239  51.774  1.00  0.00     0.075 A 
HETATM    2  C5  UNL     1      26.529   2.718  50.735  1.00  0.00     0.037 A 
HETATM    3  C6  UNL     1      25.898   3.338  49.677  1.00  0.00     0.005 A 
HETATM    4  C7  UNL     1      24.526   3.456  49.699  1.00  0.00     0.029 A 
HETATM    5  C8  UNL     1      23.703   3.004  50.700  1.00  0.00     0.036 A 
HETATM    6  C17 UNL     1      24.392   2.387  51.741  1.00  0.00     0.066 A 
ENDROOT
BRANCH   5   7
HETATM    7  N1  UNL     1      22.294   3.108  50.773  1.00  0.00    -0.344 N 
HETATM    8  H9  UNL     1      21.880   4.085  50.865  1.00  0.00     0.167 HD
BRANCH   7   9
HETATM    9  C9  UNL     1      21.391   2.011  50.742  1.00  0.00     0.108 C 
HETATM   10  N2  UNL     1      20.271   2.372  50.168  1.00  0.00    -0.247 NA
HETATM   11  C10 UNL     1      19.119   1.564  49.945  1.00  0.00     0.119 C 
HETATM   12  C11 UNL     1      18.696   0.536  50.706  1.00  0.00     0.031 C 
HETATM   13  C12 UNL     1      19.366   0.050  51.933  1.00  0.00    -0.025 A 
HETATM   14  C13 UNL     1      19.146  -0.558  53.111  1.00  0.00     0.036 A 
HETATM   15  C15 UNL     1      20.798   0.170  52.169  1.00  0.00    -0.019 A 
HETATM   16  C14 UNL     1      20.600  -0.436  53.349  1.00  0.00     0.042 A 
HETATM   17 CL1  UNL     1      21.577  -0.941  54.722  1.00  0.00    -0.084 Cl
HETATM   18  C16 UNL     1      21.887   0.749  51.341  1.00  0.00     0.119 C 
ENDBRANCH   7   9
ENDBRANCH   5   7
BRANCH   1  19
HETATM   19  O1  UNL     1      26.353   1.608  52.860  1.00  0.00    -0.307 OA
BRANCH  19  20
HETATM   20  C2  UNL     1      26.659   0.250  52.942  1.00  0.00     0.232 C 
HETATM   21  C1  UNL     1      28.018  -0.048  53.504  1.00  0.00     0.087 C 
HETATM   22  F1  UNL     1      26.529  -0.271  51.648  1.00  0.00    -0.209 F 
BRANCH  20  23
HETATM   23  C3  UNL     1      25.632  -0.524  53.774  1.00  0.00     0.295 C 
HETATM   24  F2  UNL     1      24.461  -0.708  53.097  1.00  0.00    -0.249 F 
ENDBRANCH  20  23
ENDBRANCH  19  20
ENDBRANCH   1  19
TORSDOF 5
ENDMDL
