MODEL 1
REMARK VINA RESULT:      -6.9      0.000      0.000
REMARK  10 active torsions:
REMARK  status: ('A' for Active; 'I' for Inactive)
REMARK    1  A    between atoms: C3_4  and  C4_5 
REMARK    2  A    between atoms: C4_5  and  N1_6 
REMARK    3  A    between atoms: N1_6  and  C5_7 
REMARK    4  A    between atoms: C10_14  and  N4_15 
REMARK    5  A    between atoms: N4_15  and  C11_16 
REMARK       I    between atoms: N4_15  and  C18_25 
REMARK    6  A    between atoms: C11_16  and  C12_17 
REMARK    7  A    between atoms: C12_17  and  C13_18 
REMARK    8  A    between atoms: C13_18  and  N5_19 
REMARK    9  A    between atoms: C18_25  and  C19_27 
REMARK   10  A    between atoms: C19_27  and  O3_28 
ROOT
HETATM    1  C5  UNL     1      22.413   4.275  51.320  1.00  0.00     0.301 A 
HETATM    2  N2  UNL     1      22.053   4.110  49.951  1.00  0.00    -0.234 NA
HETATM    3  C6  UNL     1      21.413   5.022  49.189  1.00  0.00     0.229 C 
HETATM    4  N3  UNL     1      21.015   6.310  49.708  1.00  0.00    -0.255 NA
HETATM    5  C7  UNL     1      21.649   7.094  50.560  1.00  0.00     0.118 C 
HETATM    6  C8  UNL     1      22.964   6.738  51.156  1.00  0.00     0.029 C 
HETATM    7  C9  UNL     1      23.271   5.469  51.477  1.00  0.00     0.012 A 
HETATM    8  C10 UNL     1      23.811   4.160  51.881  1.00  0.00     0.187 A 
ENDROOT
BRANCH   8   9
HETATM    9  N4  UNL     1      24.879   3.508  51.138  1.00  0.00    -0.337 N 
HETATM   10  C18 UNL     1      25.858   3.846  50.117  1.00  0.00     0.244 C 
HETATM   11  O2  UNL     1      26.581   2.890  49.632  1.00  0.00    -0.271 OA
BRANCH   9  12
HETATM   12  C11 UNL     1      25.066   2.116  51.531  1.00  0.00     0.128 C 
BRANCH  12  13
HETATM   13  C12 UNL     1      24.997   1.848  52.985  1.00  0.00     0.050 C 
BRANCH  13  14
HETATM   14  C13 UNL     1      26.275   2.165  53.680  1.00  0.00     0.274 C 
BRANCH  14  15
HETATM   15  N5  UNL     1      27.058   0.981  54.018  1.00  0.00     0.092 N 
HETATM   16  C14 UNL     1      26.278  -0.176  53.711  1.00  0.00     0.298 C 
HETATM   17  C15 UNL     1      27.132  -1.215  53.073  1.00  0.00     0.198 C 
HETATM   18  O1  UNL     1      28.282  -1.388  53.833  1.00  0.00    -0.388 OA
HETATM   19  C16 UNL     1      29.134  -0.289  53.740  1.00  0.00     0.198 C 
HETATM   20  C17 UNL     1      28.375   0.989  53.473  1.00  0.00     0.298 C 
ENDBRANCH  14  15
ENDBRANCH  13  14
ENDBRANCH  12  13
ENDBRANCH   9  12
BRANCH  10  21
HETATM   21  C19 UNL     1      26.480   4.915  49.287  1.00  0.00     0.267 C 
BRANCH  21  22
HETATM   22  O3  UNL     1      27.870   4.733  49.333  1.00  0.00    -0.392 OA
HETATM   23  H28 UNL     1      28.030   3.757  49.281  1.00  0.00     0.210 HD
ENDBRANCH  21  22
ENDBRANCH  10  21
ENDBRANCH   8   9
BRANCH   1  24
HETATM   24  N1  UNL     1      21.438   3.903  52.342  1.00  0.00     0.124 NA
HETATM   25  H7  UNL     1      21.995   3.752  53.212  1.00  0.00     0.320 HD
BRANCH  24  26
HETATM   26  C4  UNL     1      20.631   2.776  52.090  1.00  0.00     0.302 C 
BRANCH  26  27
HETATM   27  C3  UNL     1      21.242   1.511  52.665  1.00  0.00     0.022 C 
HETATM   28  C2  UNL     1      21.699   0.433  51.998  1.00  0.00     0.006 C 
HETATM   29  C1  UNL     1      21.543   0.600  50.539  1.00  0.00     0.061 C 
HETATM   30 CL1  UNL     1      22.321  -0.795  53.080  1.00  0.00    -0.090 Cl
ENDBRANCH  26  27
ENDBRANCH  24  26
ENDBRANCH   1  24
TORSDOF 10
ENDMDL
MODEL 2
REMARK VINA RESULT:      -6.8      3.193      5.045
REMARK  10 active torsions:
REMARK  status: ('A' for Active; 'I' for Inactive)
REMARK    1  A    between atoms: C3_4  and  C4_5 
REMARK    2  A    between atoms: C4_5  and  N1_6 
REMARK    3  A    between atoms: N1_6  and  C5_7 
REMARK    4  A    between atoms: C10_14  and  N4_15 
REMARK    5  A    between atoms: N4_15  and  C11_16 
REMARK       I    between atoms: N4_15  and  C18_25 
REMARK    6  A    between atoms: C11_16  and  C12_17 
REMARK    7  A    between atoms: C12_17  and  C13_18 
REMARK    8  A    between atoms: C13_18  and  N5_19 
REMARK    9  A    between atoms: C18_25  and  C19_27 
REMARK   10  A    between atoms: C19_27  and  O3_28 
ROOT
HETATM    1  C5  UNL     1      24.395   3.684  51.001  1.00  0.00     0.301 A 
HETATM    2  N2  UNL     1      23.470   4.643  51.503  1.00  0.00    -0.234 NA
HETATM    3  C6  UNL     1      22.763   5.521  50.760  1.00  0.00     0.229 C 
HETATM    4  N3  UNL     1      22.879   5.575  49.321  1.00  0.00    -0.255 NA
HETATM    5  C7  UNL     1      23.032   4.583  48.463  1.00  0.00     0.118 C 
HETATM    6  C8  UNL     1      23.113   3.160  48.884  1.00  0.00     0.029 C 
HETATM    7  C9  UNL     1      23.725   2.797  50.026  1.00  0.00     0.012 A 
HETATM    8  C10 UNL     1      24.324   2.191  51.227  1.00  0.00     0.187 A 
ENDROOT
BRANCH   8   9
HETATM    9  N4  UNL     1      23.507   1.620  52.286  1.00  0.00    -0.337 N 
HETATM   10  C18 UNL     1      22.099   1.488  52.624  1.00  0.00     0.244 C 
HETATM   11  O2  UNL     1      21.796   0.981  53.775  1.00  0.00    -0.271 OA
BRANCH   9  12
HETATM   12  C11 UNL     1      24.303   0.952  53.310  1.00  0.00     0.128 C 
BRANCH  12  13
HETATM   13  C12 UNL     1      24.771  -0.410  52.966  1.00  0.00     0.050 C 
BRANCH  13  14
HETATM   14  C13 UNL     1      26.251  -0.483  52.834  1.00  0.00     0.274 C 
BRANCH  14  15
HETATM   15  N5  UNL     1      26.949   0.578  53.553  1.00  0.00     0.092 N 
HETATM   16  C14 UNL     1      27.676  -0.014  54.632  1.00  0.00     0.298 C 
HETATM   17  C15 UNL     1      29.023   0.610  54.745  1.00  0.00     0.198 C 
HETATM   18  O1  UNL     1      28.887   1.992  54.733  1.00  0.00    -0.388 OA
HETATM   19  C16 UNL     1      28.510   2.464  53.477  1.00  0.00     0.198 C 
HETATM   20  C17 UNL     1      27.708   1.440  52.710  1.00  0.00     0.298 C 
ENDBRANCH  14  15
ENDBRANCH  13  14
ENDBRANCH  12  13
ENDBRANCH   9  12
BRANCH  10  21
HETATM   21  C19 UNL     1      20.686   1.688  52.194  1.00  0.00     0.267 C 
BRANCH  21  22
HETATM   22  O3  UNL     1      20.234   2.884  52.771  1.00  0.00    -0.392 OA
HETATM   23  H28 UNL     1      19.471   2.648  53.355  1.00  0.00     0.210 HD
ENDBRANCH  21  22
ENDBRANCH  10  21
ENDBRANCH   8   9
BRANCH   1  24
HETATM   24  N1  UNL     1      25.787   4.090  50.822  1.00  0.00     0.124 NA
HETATM   25  H7  UNL     1      25.848   5.052  51.224  1.00  0.00     0.320 HD
BRANCH  24  26
HETATM   26  C4  UNL     1      26.301   4.087  49.510  1.00  0.00     0.302 C 
BRANCH  26  27
HETATM   27  C3  UNL     1      26.390   5.491  48.942  1.00  0.00     0.022 C 
HETATM   28  C2  UNL     1      27.458   6.093  48.381  1.00  0.00     0.006 C 
HETATM   29  C1  UNL     1      28.631   5.197  48.365  1.00  0.00     0.061 C 
HETATM   30 CL1  UNL     1      27.096   7.726  47.864  1.00  0.00    -0.090 Cl
ENDBRANCH  26  27
ENDBRANCH  24  26
ENDBRANCH   1  24
TORSDOF 10
ENDMDL
MODEL 3
REMARK VINA RESULT:      -6.8      5.737      8.556
REMARK  10 active torsions:
REMARK  status: ('A' for Active; 'I' for Inactive)
REMARK    1  A    between atoms: C3_4  and  C4_5 
REMARK    2  A    between atoms: C4_5  and  N1_6 
REMARK    3  A    between atoms: N1_6  and  C5_7 
REMARK    4  A    between atoms: C10_14  and  N4_15 
REMARK    5  A    between atoms: N4_15  and  C11_16 
REMARK       I    between atoms: N4_15  and  C18_25 
REMARK    6  A    between atoms: C11_16  and  C12_17 
REMARK    7  A    between atoms: C12_17  and  C13_18 
REMARK    8  A    between atoms: C13_18  and  N5_19 
REMARK    9  A    between atoms: C18_25  and  C19_27 
REMARK   10  A    between atoms: C19_27  and  O3_28 
ROOT
HETATM    1  C5  UNL     1      30.293   6.387  48.158  1.00  0.00     0.301 A 
HETATM    2  N2  UNL     1      30.840   7.130  49.243  1.00  0.00    -0.234 NA
HETATM    3  C6  UNL     1      31.843   8.029  49.158  1.00  0.00     0.229 C 
HETATM    4  N3  UNL     1      32.487   8.340  47.902  1.00  0.00    -0.255 NA
HETATM    5  C7  UNL     1      31.955   8.440  46.698  1.00  0.00     0.118 C 
HETATM    6  C8  UNL     1      30.506   8.230  46.439  1.00  0.00     0.029 C 
HETATM    7  C9  UNL     1      29.796   7.309  47.114  1.00  0.00     0.012 A 
HETATM    8  C10 UNL     1      28.840   6.380  47.741  1.00  0.00     0.187 A 
ENDROOT
BRANCH   8   9
HETATM    9  N4  UNL     1      27.790   6.847  48.631  1.00  0.00    -0.337 N 
HETATM   10  C18 UNL     1      27.460   8.040  49.395  1.00  0.00     0.244 C 
HETATM   11  O2  UNL     1      26.436   7.991  50.184  1.00  0.00    -0.271 OA
BRANCH   9  12
HETATM   12  C11 UNL     1      26.726   5.864  48.807  1.00  0.00     0.128 C 
BRANCH  12  13
HETATM   13  C12 UNL     1      27.174   4.466  48.997  1.00  0.00     0.050 C 
BRANCH  13  14
HETATM   14  C13 UNL     1      26.064   3.569  49.419  1.00  0.00     0.274 C 
BRANCH  14  15
HETATM   15  N5  UNL     1      25.965   3.414  50.867  1.00  0.00     0.092 N 
HETATM   16  C14 UNL     1      24.622   3.707  51.259  1.00  0.00     0.298 C 
HETATM   17  C15 UNL     1      24.164   2.731  52.285  1.00  0.00     0.198 C 
HETATM   18  O1  UNL     1      25.126   2.633  53.283  1.00  0.00    -0.388 OA
HETATM   19  C16 UNL     1      26.274   1.984  52.831  1.00  0.00     0.198 C 
HETATM   20  C17 UNL     1      26.483   2.177  51.349  1.00  0.00     0.298 C 
ENDBRANCH  14  15
ENDBRANCH  13  14
ENDBRANCH  12  13
ENDBRANCH   9  12
BRANCH  10  21
HETATM   21  C19 UNL     1      27.802   9.454  49.713  1.00  0.00     0.267 C 
BRANCH  21  22
HETATM   22  O3  UNL     1      27.662   9.624  51.098  1.00  0.00    -0.392 OA
HETATM   23  H28 UNL     1      27.697  10.598  51.271  1.00  0.00     0.210 HD
ENDBRANCH  21  22
ENDBRANCH  10  21
ENDBRANCH   8   9
BRANCH   1  24
HETATM   24  N1  UNL     1      30.913   5.111  47.810  1.00  0.00     0.124 NA
HETATM   25  H7  UNL     1      30.219   4.382  48.087  1.00  0.00     0.320 HD
BRANCH  24  26
HETATM   26  C4  UNL     1      32.166   4.820  48.384  1.00  0.00     0.302 C 
BRANCH  26  27
HETATM   27  C3  UNL     1      33.220   4.557  47.323  1.00  0.00     0.022 C 
HETATM   28  C2  UNL     1      33.755   3.374  46.961  1.00  0.00     0.006 C 
HETATM   29  C1  UNL     1      33.183   2.264  47.749  1.00  0.00     0.061 C 
HETATM   30 CL1  UNL     1      34.941   3.551  45.686  1.00  0.00    -0.090 Cl
ENDBRANCH  26  27
ENDBRANCH  24  26
ENDBRANCH   1  24
TORSDOF 10
ENDMDL
MODEL 4
REMARK VINA RESULT:      -6.7      3.313      5.292
REMARK  10 active torsions:
REMARK  status: ('A' for Active; 'I' for Inactive)
REMARK    1  A    between atoms: C3_4  and  C4_5 
REMARK    2  A    between atoms: C4_5  and  N1_6 
REMARK    3  A    between atoms: N1_6  and  C5_7 
REMARK    4  A    between atoms: C10_14  and  N4_15 
REMARK    5  A    between atoms: N4_15  and  C11_16 
REMARK       I    between atoms: N4_15  and  C18_25 
REMARK    6  A    between atoms: C11_16  and  C12_17 
REMARK    7  A    between atoms: C12_17  and  C13_18 
REMARK    8  A    between atoms: C13_18  and  N5_19 
REMARK    9  A    between atoms: C18_25  and  C19_27 
REMARK   10  A    between atoms: C19_27  and  O3_28 
ROOT
HETATM    1  C5  UNL     1      22.168   2.115  51.668  1.00  0.00     0.301 A 
HETATM    2  N2  UNL     1      21.071   2.737  52.330  1.00  0.00    -0.234 NA
HETATM    3  C6  UNL     1      20.015   3.322  51.727  1.00  0.00     0.229 C 
HETATM    4  N3  UNL     1      19.887   3.376  50.290  1.00  0.00    -0.255 NA
HETATM    5  C7  UNL     1      20.217   2.467  49.391  1.00  0.00     0.118 C 
HETATM    6  C8  UNL     1      20.816   1.156  49.757  1.00  0.00     0.029 C 
HETATM    7  C9  UNL     1      21.678   1.037  50.783  1.00  0.00     0.012 A 
HETATM    8  C10 UNL     1      22.616   0.685  51.862  1.00  0.00     0.187 A 
ENDROOT
BRANCH   8   9
HETATM    9  N4  UNL     1      22.198  -0.094  53.017  1.00  0.00    -0.337 N 
HETATM   10  C18 UNL     1      20.966  -0.595  53.604  1.00  0.00     0.244 C 
HETATM   11  O2  UNL     1      21.037  -1.178  54.757  1.00  0.00    -0.271 OA
BRANCH   9  12
HETATM   12  C11 UNL     1      23.325  -0.543  53.828  1.00  0.00     0.128 C 
BRANCH  12  13
HETATM   13  C12 UNL     1      24.656  -0.427  53.190  1.00  0.00     0.050 C 
BRANCH  13  14
HETATM   14  C13 UNL     1      25.767  -0.619  54.162  1.00  0.00     0.274 C 
BRANCH  14  15
HETATM   15  N5  UNL     1      27.040  -0.074  53.700  1.00  0.00     0.092 N 
HETATM   16  C14 UNL     1      26.767   0.976  52.769  1.00  0.00     0.298 C 
HETATM   17  C15 UNL     1      27.686   2.123  53.008  1.00  0.00     0.198 C 
HETATM   18  O1  UNL     1      28.990   1.651  53.094  1.00  0.00    -0.388 OA
HETATM   19  C16 UNL     1      29.202   0.927  54.266  1.00  0.00     0.198 C 
HETATM   20  C17 UNL     1      27.936   0.265  54.754  1.00  0.00     0.298 C 
ENDBRANCH  14  15
ENDBRANCH  13  14
ENDBRANCH  12  13
ENDBRANCH   9  12
BRANCH  10  21
HETATM   21  C19 UNL     1      19.493  -0.767  53.462  1.00  0.00     0.267 C 
BRANCH  21  22
HETATM   22  O3  UNL     1      19.138  -1.951  54.124  1.00  0.00    -0.392 OA
HETATM   23  H28 UNL     1      19.951  -2.272  54.588  1.00  0.00     0.210 HD
ENDBRANCH  21  22
ENDBRANCH  10  21
ENDBRANCH   8   9
BRANCH   1  24
HETATM   24  N1  UNL     1      23.311   2.944  51.291  1.00  0.00     0.124 NA
HETATM   25  H7  UNL     1      23.055   3.914  51.581  1.00  0.00     0.320 HD
BRANCH  24  26
HETATM   26  C4  UNL     1      23.699   2.937  49.937  1.00  0.00     0.302 C 
BRANCH  26  27
HETATM   27  C3  UNL     1      24.399   4.227  49.549  1.00  0.00     0.022 C 
HETATM   28  C2  UNL     1      25.719   4.436  49.379  1.00  0.00     0.006 C 
HETATM   29  C1  UNL     1      26.493   3.202  49.621  1.00  0.00     0.061 C 
HETATM   30 CL1  UNL     1      26.070   6.092  48.931  1.00  0.00    -0.090 Cl
ENDBRANCH  26  27
ENDBRANCH  24  26
ENDBRANCH   1  24
TORSDOF 10
ENDMDL
MODEL 5
REMARK VINA RESULT:      -6.7      1.498      1.933
REMARK  10 active torsions:
REMARK  status: ('A' for Active; 'I' for Inactive)
REMARK    1  A    between atoms: C3_4  and  C4_5 
REMARK    2  A    between atoms: C4_5  and  N1_6 
REMARK    3  A    between atoms: N1_6  and  C5_7 
REMARK    4  A    between atoms: C10_14  and  N4_15 
REMARK    5  A    between atoms: N4_15  and  C11_16 
REMARK       I    between atoms: N4_15  and  C18_25 
REMARK    6  A    between atoms: C11_16  and  C12_17 
REMARK    7  A    between atoms: C12_17  and  C13_18 
REMARK    8  A    between atoms: C13_18  and  N5_19 
REMARK    9  A    between atoms: C18_25  and  C19_27 
REMARK   10  A    between atoms: C19_27  and  O3_28 
ROOT
HETATM    1  C5  UNL     1      22.711   2.493  50.989  1.00  0.00     0.301 A 
HETATM    2  N2  UNL     1      22.679   1.985  49.659  1.00  0.00    -0.234 NA
HETATM    3  C6  UNL     1      21.721   2.235  48.742  1.00  0.00     0.229 C 
HETATM    4  N3  UNL     1      20.586   3.080  49.032  1.00  0.00    -0.255 NA
HETATM    5  C7  UNL     1      20.534   4.182  49.757  1.00  0.00     0.118 C 
HETATM    6  C8  UNL     1      21.728   4.756  50.434  1.00  0.00     0.029 C 
HETATM    7  C9  UNL     1      22.681   3.971  50.966  1.00  0.00     0.012 A 
HETATM    8  C10 UNL     1      23.834   3.303  51.593  1.00  0.00     0.187 A 
ENDROOT
BRANCH   8   9
HETATM    9  N4  UNL     1      25.159   3.337  50.993  1.00  0.00    -0.337 N 
HETATM   10  C18 UNL     1      25.889   4.121  50.010  1.00  0.00     0.244 C 
HETATM   11  O2  UNL     1      27.072   3.720  49.673  1.00  0.00    -0.271 OA
BRANCH   9  12
HETATM   12  C11 UNL     1      26.046   2.314  51.536  1.00  0.00     0.128 C 
BRANCH  12  13
HETATM   13  C12 UNL     1      25.618   1.714  52.820  1.00  0.00     0.050 C 
BRANCH  13  14
HETATM   14  C13 UNL     1      26.714   1.689  53.826  1.00  0.00     0.274 C 
BRANCH  14  15
HETATM   15  N5  UNL     1      27.320   0.372  53.988  1.00  0.00     0.092 N 
HETATM   16  C14 UNL     1      26.392  -0.610  53.522  1.00  0.00     0.298 C 
HETATM   17  C15 UNL     1      27.104  -1.656  52.738  1.00  0.00     0.198 C 
HETATM   18  O1  UNL     1      28.207  -2.095  53.460  1.00  0.00    -0.388 OA
HETATM   19  C16 UNL     1      29.204  -1.123  53.523  1.00  0.00     0.198 C 
HETATM   20  C17 UNL     1      28.634   0.273  53.445  1.00  0.00     0.298 C 
ENDBRANCH  14  15
ENDBRANCH  13  14
ENDBRANCH  12  13
ENDBRANCH   9  12
BRANCH  10  21
HETATM   21  C19 UNL     1      25.897   5.315  49.119  1.00  0.00     0.267 C 
BRANCH  21  22
HETATM   22  O3  UNL     1      26.841   6.218  49.628  1.00  0.00    -0.392 OA
HETATM   23  H28 UNL     1      27.485   5.687  50.160  1.00  0.00     0.210 HD
ENDBRANCH  21  22
ENDBRANCH  10  21
ENDBRANCH   8   9
BRANCH   1  24
HETATM   24  N1  UNL     1      22.029   1.737  52.036  1.00  0.00     0.124 NA
HETATM   25  H7  UNL     1      22.480   2.034  52.929  1.00  0.00     0.320 HD
BRANCH  24  26
HETATM   26  C4  UNL     1      22.044   0.331  51.938  1.00  0.00     0.302 C 
BRANCH  26  27
HETATM   27  C3  UNL     1      22.629  -0.310  53.183  1.00  0.00     0.022 C 
HETATM   28  C2  UNL     1      21.971  -0.782  54.260  1.00  0.00     0.006 C 
HETATM   29  C1  UNL     1      20.511  -0.610  54.114  1.00  0.00     0.061 C 
HETATM   30 CL1  UNL     1      23.061  -1.437  55.463  1.00  0.00    -0.090 Cl
ENDBRANCH  26  27
ENDBRANCH  24  26
ENDBRANCH   1  24
TORSDOF 10
ENDMDL
MODEL 6
REMARK VINA RESULT:      -6.7      3.466      7.825
REMARK  10 active torsions:
REMARK  status: ('A' for Active; 'I' for Inactive)
REMARK    1  A    between atoms: C3_4  and  C4_5 
REMARK    2  A    between atoms: C4_5  and  N1_6 
REMARK    3  A    between atoms: N1_6  and  C5_7 
REMARK    4  A    between atoms: C10_14  and  N4_15 
REMARK    5  A    between atoms: N4_15  and  C11_16 
REMARK       I    between atoms: N4_15  and  C18_25 
REMARK    6  A    between atoms: C11_16  and  C12_17 
REMARK    7  A    between atoms: C12_17  and  C13_18 
REMARK    8  A    between atoms: C13_18  and  N5_19 
REMARK    9  A    between atoms: C18_25  and  C19_27 
REMARK   10  A    between atoms: C19_27  and  O3_28 
ROOT
HETATM    1  C5  UNL     1      25.895   1.266  52.686  1.00  0.00     0.301 A 
HETATM    2  N2  UNL     1      26.176   0.031  52.033  1.00  0.00    -0.234 NA
HETATM    3  C6  UNL     1      27.207  -0.793  52.316  1.00  0.00     0.229 C 
HETATM    4  N3  UNL     1      28.167  -0.492  53.353  1.00  0.00    -0.255 NA
HETATM    5  C7  UNL     1      27.969   0.076  54.528  1.00  0.00     0.118 C 
HETATM    6  C8  UNL     1      26.627   0.523  54.990  1.00  0.00     0.029 C 
HETATM    7  C9  UNL     1      25.726   1.043  54.138  1.00  0.00     0.012 A 
HETATM    8  C10 UNL     1      24.600   1.617  53.382  1.00  0.00     0.187 A 
ENDROOT
BRANCH   8   9
HETATM    9  N4  UNL     1      23.378   0.868  53.140  1.00  0.00    -0.337 N 
HETATM   10  C18 UNL     1      22.649  -0.244  53.729  1.00  0.00     0.244 C 
HETATM   11  O2  UNL     1      21.609  -0.687  53.100  1.00  0.00    -0.271 OA
BRANCH   9  12
HETATM   12  C11 UNL     1      22.627   1.374  51.996  1.00  0.00     0.128 C 
BRANCH  12  13
HETATM   13  C12 UNL     1      22.027   2.716  52.170  1.00  0.00     0.050 C 
BRANCH  13  14
HETATM   14  C13 UNL     1      20.565   2.650  52.444  1.00  0.00     0.274 C 
BRANCH  14  15
HETATM   15  N5  UNL     1      19.802   3.691  51.763  1.00  0.00     0.092 N 
HETATM   16  C14 UNL     1      20.550   4.124  50.625  1.00  0.00     0.298 C 
HETATM   17  C15 UNL     1      19.644   4.314  49.459  1.00  0.00     0.198 C 
HETATM   18  O1  UNL     1      18.553   5.080  49.850  1.00  0.00    -0.388 OA
HETATM   19  C16 UNL     1      17.704   4.374  50.701  1.00  0.00     0.198 C 
HETATM   20  C17 UNL     1      18.449   3.333  51.501  1.00  0.00     0.298 C 
ENDBRANCH  14  15
ENDBRANCH  13  14
ENDBRANCH  12  13
ENDBRANCH   9  12
BRANCH  10  21
HETATM   21  C19 UNL     1      22.540  -1.210  54.858  1.00  0.00     0.267 C 
BRANCH  21  22
HETATM   22  O3  UNL     1      21.182  -1.522  55.019  1.00  0.00    -0.392 OA
HETATM   23  H28 UNL     1      20.887  -1.083  55.856  1.00  0.00     0.210 HD
ENDBRANCH  21  22
ENDBRANCH  10  21
ENDBRANCH   8   9
BRANCH   1  24
HETATM   24  N1  UNL     1      26.526   2.480  52.174  1.00  0.00     0.124 NA
HETATM   25  H7  UNL     1      25.952   3.268  52.546  1.00  0.00     0.320 HD
BRANCH  24  26
HETATM   26  C4  UNL     1      26.656   2.604  50.776  1.00  0.00     0.302 C 
BRANCH  26  27
HETATM   27  C3  UNL     1      25.656   3.594  50.207  1.00  0.00     0.022 C 
HETATM   28  C2  UNL     1      25.873   4.562  49.296  1.00  0.00     0.006 C 
HETATM   29  C1  UNL     1      27.285   4.581  48.861  1.00  0.00     0.061 C 
HETATM   30 CL1  UNL     1      24.418   5.467  48.936  1.00  0.00    -0.090 Cl
ENDBRANCH  26  27
ENDBRANCH  24  26
ENDBRANCH   1  24
TORSDOF 10
ENDMDL
MODEL 7
REMARK VINA RESULT:      -6.6      2.978      4.818
REMARK  10 active torsions:
REMARK  status: ('A' for Active; 'I' for Inactive)
REMARK    1  A    between atoms: C3_4  and  C4_5 
REMARK    2  A    between atoms: C4_5  and  N1_6 
REMARK    3  A    between atoms: N1_6  and  C5_7 
REMARK    4  A    between atoms: C10_14  and  N4_15 
REMARK    5  A    between atoms: N4_15  and  C11_16 
REMARK       I    between atoms: N4_15  and  C18_25 
REMARK    6  A    between atoms: C11_16  and  C12_17 
REMARK    7  A    between atoms: C12_17  and  C13_18 
REMARK    8  A    between atoms: C13_18  and  N5_19 
REMARK    9  A    between atoms: C18_25  and  C19_27 
REMARK   10  A    between atoms: C19_27  and  O3_28 
ROOT
HETATM    1  C5  UNL     1      21.786   0.603  52.443  1.00  0.00     0.301 A 
HETATM    2  N2  UNL     1      21.019   1.090  53.541  1.00  0.00    -0.234 NA
HETATM    3  C6  UNL     1      20.723   0.401  54.663  1.00  0.00     0.229 C 
HETATM    4  N3  UNL     1      21.175  -0.955  54.871  1.00  0.00    -0.255 NA
HETATM    5  C7  UNL     1      22.324  -1.509  54.531  1.00  0.00     0.118 C 
HETATM    6  C8  UNL     1      23.402  -0.761  53.831  1.00  0.00     0.029 C 
HETATM    7  C9  UNL     1      23.123   0.178  52.910  1.00  0.00     0.012 A 
HETATM    8  C10 UNL     1      23.040   1.242  51.895  1.00  0.00     0.187 A 
ENDROOT
BRANCH   8   9
HETATM    9  N4  UNL     1      23.389   2.621  52.200  1.00  0.00    -0.337 N 
HETATM   10  C18 UNL     1      22.757   3.930  52.193  1.00  0.00     0.244 C 
HETATM   11  O2  UNL     1      23.497   4.962  52.441  1.00  0.00    -0.271 OA
BRANCH   9  12
HETATM   12  C11 UNL     1      24.758   2.759  52.684  1.00  0.00     0.128 C 
BRANCH  12  13
HETATM   13  C12 UNL     1      25.805   2.185  51.809  1.00  0.00     0.050 C 
BRANCH  13  14
HETATM   14  C13 UNL     1      27.163   2.292  52.408  1.00  0.00     0.274 C 
BRANCH  14  15
HETATM   15  N5  UNL     1      27.803   0.998  52.625  1.00  0.00     0.092 N 
HETATM   16  C14 UNL     1      28.692   1.118  53.738  1.00  0.00     0.298 C 
HETATM   17  C15 UNL     1      28.591  -0.087  54.606  1.00  0.00     0.198 C 
HETATM   18  O1  UNL     1      28.687  -1.227  53.817  1.00  0.00    -0.388 OA
HETATM   19  C16 UNL     1      27.552  -1.405  53.027  1.00  0.00     0.198 C 
HETATM   20  C17 UNL     1      26.887  -0.092  52.694  1.00  0.00     0.298 C 
ENDBRANCH  14  15
ENDBRANCH  13  14
ENDBRANCH  12  13
ENDBRANCH   9  12
BRANCH  10  21
HETATM   21  C19 UNL     1      21.500   4.711  52.016  1.00  0.00     0.267 C 
BRANCH  21  22
HETATM   22  O3  UNL     1      20.434   3.897  52.425  1.00  0.00    -0.392 OA
HETATM   23  H28 UNL     1      20.826   3.030  52.698  1.00  0.00     0.210 HD
ENDBRANCH  21  22
ENDBRANCH  10  21
ENDBRANCH   8   9
BRANCH   1  24
HETATM   24  N1  UNL     1      21.092  -0.116  51.378  1.00  0.00     0.124 NA
HETATM   25  H7  UNL     1      21.632   0.090  50.509  1.00  0.00     0.320 HD
BRANCH  24  26
HETATM   26  C4  UNL     1      19.729   0.181  51.175  1.00  0.00     0.302 C 
BRANCH  26  27
HETATM   27  C3  UNL     1      19.533   1.136  50.011  1.00  0.00     0.022 C 
HETATM   28  C2  UNL     1      18.583   2.080  49.864  1.00  0.00     0.006 C 
HETATM   29  C1  UNL     1      17.673   2.110  51.027  1.00  0.00     0.061 C 
HETATM   30 CL1  UNL     1      18.746   2.948  48.353  1.00  0.00    -0.090 Cl
ENDBRANCH  26  27
ENDBRANCH  24  26
ENDBRANCH   1  24
TORSDOF 10
ENDMDL
MODEL 8
REMARK VINA RESULT:      -6.5      3.663      7.522
REMARK  10 active torsions:
REMARK  status: ('A' for Active; 'I' for Inactive)
REMARK    1  A    between atoms: C3_4  and  C4_5 
REMARK    2  A    between atoms: C4_5  and  N1_6 
REMARK    3  A    between atoms: N1_6  and  C5_7 
REMARK    4  A    between atoms: C10_14  and  N4_15 
REMARK    5  A    between atoms: N4_15  and  C11_16 
REMARK       I    between atoms: N4_15  and  C18_25 
REMARK    6  A    between atoms: C11_16  and  C12_17 
REMARK    7  A    between atoms: C12_17  and  C13_18 
REMARK    8  A    between atoms: C13_18  and  N5_19 
REMARK    9  A    between atoms: C18_25  and  C19_27 
REMARK   10  A    between atoms: C19_27  and  O3_28 
ROOT
HETATM    1  C5  UNL     1      25.603   1.632  52.403  1.00  0.00     0.301 A 
HETATM    2  N2  UNL     1      25.911   0.350  51.862  1.00  0.00    -0.234 NA
HETATM    3  C6  UNL     1      27.002  -0.389  52.155  1.00  0.00     0.229 C 
HETATM    4  N3  UNL     1      28.006   0.065  53.089  1.00  0.00    -0.255 NA
HETATM    5  C7  UNL     1      27.851   0.743  54.212  1.00  0.00     0.118 C 
HETATM    6  C8  UNL     1      26.519   1.170  54.715  1.00  0.00     0.029 C 
HETATM    7  C9  UNL     1      25.539   1.554  53.878  1.00  0.00     0.012 A 
HETATM    8  C10 UNL     1      24.338   1.991  53.146  1.00  0.00     0.187 A 
ENDROOT
BRANCH   8   9
HETATM    9  N4  UNL     1      23.146   1.162  53.066  1.00  0.00    -0.337 N 
HETATM   10  C18 UNL     1      22.606  -0.032  53.695  1.00  0.00     0.244 C 
HETATM   11  O2  UNL     1      21.505  -0.522  53.223  1.00  0.00    -0.271 OA
BRANCH   9  12
HETATM   12  C11 UNL     1      22.176   1.667  52.100  1.00  0.00     0.128 C 
BRANCH  12  13
HETATM   13  C12 UNL     1      22.561   1.527  50.677  1.00  0.00     0.050 C 
BRANCH  13  14
HETATM   14  C13 UNL     1      21.507   0.854  49.870  1.00  0.00     0.274 C 
BRANCH  14  15
HETATM   15  N5  UNL     1      21.198   1.551  48.625  1.00  0.00     0.092 N 
HETATM   16  C14 UNL     1      20.013   2.324  48.827  1.00  0.00     0.298 C 
HETATM   17  C15 UNL     1      20.159   3.660  48.186  1.00  0.00     0.198 C 
HETATM   18  O1  UNL     1      20.614   3.493  46.883  1.00  0.00    -0.388 OA
HETATM   19  C16 UNL     1      21.940   3.066  46.850  1.00  0.00     0.198 C 
HETATM   20  C17 UNL     1      22.303   2.263  48.076  1.00  0.00     0.298 C 
ENDBRANCH  14  15
ENDBRANCH  13  14
ENDBRANCH  12  13
ENDBRANCH   9  12
BRANCH  10  21
HETATM   21  C19 UNL     1      22.759  -1.061  54.761  1.00  0.00     0.267 C 
BRANCH  21  22
HETATM   22  O3  UNL     1      21.535  -1.736  54.878  1.00  0.00    -0.392 OA
HETATM   23  H28 UNL     1      21.005  -1.506  54.074  1.00  0.00     0.210 HD
ENDBRANCH  21  22
ENDBRANCH  10  21
ENDBRANCH   8   9
BRANCH   1  24
HETATM   24  N1  UNL     1      26.133   2.814  51.729  1.00  0.00     0.124 NA
HETATM   25  H7  UNL     1      25.782   3.627  52.281  1.00  0.00     0.320 HD
BRANCH  24  26
HETATM   26  C4  UNL     1      25.810   2.986  50.368  1.00  0.00     0.302 C 
BRANCH  26  27
HETATM   27  C3  UNL     1      26.882   3.770  49.634  1.00  0.00     0.022 C 
HETATM   28  C2  UNL     1      26.751   4.940  48.977  1.00  0.00     0.006 C 
HETATM   29  C1  UNL     1      25.361   5.435  49.037  1.00  0.00     0.061 C 
HETATM   30 CL1  UNL     1      28.263   5.475  48.277  1.00  0.00    -0.090 Cl
ENDBRANCH  26  27
ENDBRANCH  24  26
ENDBRANCH   1  24
TORSDOF 10
ENDMDL
MODEL 9
REMARK VINA RESULT:      -6.4      5.800      9.043
REMARK  10 active torsions:
REMARK  status: ('A' for Active; 'I' for Inactive)
REMARK    1  A    between atoms: C3_4  and  C4_5 
REMARK    2  A    between atoms: C4_5  and  N1_6 
REMARK    3  A    between atoms: N1_6  and  C5_7 
REMARK    4  A    between atoms: C10_14  and  N4_15 
REMARK    5  A    between atoms: N4_15  and  C11_16 
REMARK       I    between atoms: N4_15  and  C18_25 
REMARK    6  A    between atoms: C11_16  and  C12_17 
REMARK    7  A    between atoms: C12_17  and  C13_18 
REMARK    8  A    between atoms: C13_18  and  N5_19 
REMARK    9  A    between atoms: C18_25  and  C19_27 
REMARK   10  A    between atoms: C19_27  and  O3_28 
ROOT
HETATM    1  C5  UNL     1      30.332   6.403  48.180  1.00  0.00     0.301 A 
HETATM    2  N2  UNL     1      30.865   7.122  49.288  1.00  0.00    -0.234 NA
HETATM    3  C6  UNL     1      31.888   8.002  49.240  1.00  0.00     0.229 C 
HETATM    4  N3  UNL     1      32.571   8.315  48.006  1.00  0.00    -0.255 NA
HETATM    5  C7  UNL     1      32.073   8.440  46.790  1.00  0.00     0.118 C 
HETATM    6  C8  UNL     1      30.628   8.263  46.491  1.00  0.00     0.029 C 
HETATM    7  C9  UNL     1      29.882   7.348  47.135  1.00  0.00     0.012 A 
HETATM    8  C10 UNL     1      28.891   6.432  47.725  1.00  0.00     0.187 A 
ENDROOT
BRANCH   8   9
HETATM    9  N4  UNL     1      27.827   6.909  48.594  1.00  0.00    -0.337 N 
HETATM   10  C18 UNL     1      27.511   8.091  49.379  1.00  0.00     0.244 C 
HETATM   11  O2  UNL     1      26.460   8.055  50.133  1.00  0.00    -0.271 OA
BRANCH   9  12
HETATM   12  C11 UNL     1      26.727   5.957  48.708  1.00  0.00     0.128 C 
BRANCH  12  13
HETATM   13  C12 UNL     1      27.121   4.559  48.991  1.00  0.00     0.050 C 
BRANCH  13  14
HETATM   14  C13 UNL     1      26.036   3.791  49.661  1.00  0.00     0.274 C 
BRANCH  14  15
HETATM   15  N5  UNL     1      24.788   4.538  49.783  1.00  0.00     0.092 N 
HETATM   16  C14 UNL     1      23.816   3.928  48.930  1.00  0.00     0.298 C 
HETATM   17  C15 UNL     1      22.498   3.868  49.619  1.00  0.00     0.198 C 
HETATM   18  O1  UNL     1      22.205   5.117  50.153  1.00  0.00    -0.388 OA
HETATM   19  C16 UNL     1      23.027   5.422  51.236  1.00  0.00     0.198 C 
HETATM   20  C17 UNL     1      24.372   4.745  51.129  1.00  0.00     0.298 C 
ENDBRANCH  14  15
ENDBRANCH  13  14
ENDBRANCH  12  13
ENDBRANCH   9  12
BRANCH  10  21
HETATM   21  C19 UNL     1      27.887   9.485  49.746  1.00  0.00     0.267 C 
BRANCH  21  22
HETATM   22  O3  UNL     1      27.647   9.642  51.119  1.00  0.00    -0.392 OA
HETATM   23  H28 UNL     1      28.524   9.817  51.544  1.00  0.00     0.210 HD
ENDBRANCH  21  22
ENDBRANCH  10  21
ENDBRANCH   8   9
BRANCH   1  24
HETATM   24  N1  UNL     1      30.935   5.120  47.831  1.00  0.00     0.124 NA
HETATM   25  H7  UNL     1      30.231   4.400  48.108  1.00  0.00     0.320 HD
BRANCH  24  26
HETATM   26  C4  UNL     1      32.184   4.812  48.407  1.00  0.00     0.302 C 
BRANCH  26  27
HETATM   27  C3  UNL     1      33.235   4.535  47.346  1.00  0.00     0.022 C 
HETATM   28  C2  UNL     1      33.760   3.346  46.989  1.00  0.00     0.006 C 
HETATM   29  C1  UNL     1      33.179   2.244  47.783  1.00  0.00     0.061 C 
HETATM   30 CL1  UNL     1      34.947   3.508  45.713  1.00  0.00    -0.090 Cl
ENDBRANCH  26  27
ENDBRANCH  24  26
ENDBRANCH   1  24
TORSDOF 10
ENDMDL
