MODEL 1
REMARK VINA RESULT:      -9.8      0.000      0.000
REMARK  6 active torsions:
REMARK  status: ('A' for Active; 'I' for Inactive)
REMARK    1  A    between atoms: O1_2  and  C2_3 
REMARK    2  A    between atoms: C4_5  and  N1_6 
REMARK    3  A    between atoms: C12_15  and  C13_16 
REMARK    4  A    between atoms: C13_16  and  C14_17 
REMARK    5  A    between atoms: C14_17  and  C15_18 
REMARK    6  A    between atoms: C16_19  and  C17_20 
ROOT
HETATM    1  C2  UNL     1      24.102   8.193  49.013  1.00  0.00     0.054 C 
HETATM    2  C3  UNL     1      22.882   7.810  49.572  1.00  0.00     0.137 C 
HETATM    3  C4  UNL     1      23.160   6.599  50.402  1.00  0.00     0.100 C 
HETATM    4  C5  UNL     1      23.104   5.514  51.213  1.00  0.00     0.014 C 
HETATM    5  C6  UNL     1      22.221   4.652  52.038  1.00  0.00     0.066 C 
HETATM    6  N2  UNL     1      24.414   4.924  51.525  1.00  0.00    -0.360 N 
HETATM    7  C7  UNL     1      25.417   4.934  50.560  1.00  0.00     0.043 A 
HETATM    8  C8  UNL     1      25.639   6.050  49.837  1.00  0.00     0.037 A 
HETATM    9  C9  UNL     1      26.154   6.882  48.913  1.00  0.00    -0.053 A 
HETATM   10  C10 UNL     1      27.018   5.939  48.402  1.00  0.00     0.008 A 
HETATM   11  C11 UNL     1      27.134   4.642  48.849  1.00  0.00     0.014 A 
HETATM   12  C12 UNL     1      26.349   4.199  49.882  1.00  0.00    -0.009 A 
HETATM   13  C26 UNL     1      25.643   8.207  48.637  1.00  0.00     0.071 C 
HETATM   14  H10 UNL     1      25.053   4.460  52.167  1.00  0.00     0.165 HD
ENDROOT
BRANCH  12  15
HETATM   15  C13 UNL     1      26.336   2.864  50.395  1.00  0.00     0.016 C 
BRANCH  15  16
HETATM   16  C14 UNL     1      26.450   1.848  51.155  1.00  0.00     0.039 C 
BRANCH  16  17
HETATM   17  C15 UNL     1      26.791   1.543  52.507  1.00  0.00     0.086 C 
HETATM   18  C16 UNL     1      25.920   1.002  53.320  1.00  0.00    -0.018 C 
HETATM   19  C23 UNL     1      26.500   0.741  54.658  1.00  0.00     0.052 C 
HETATM   20  C24 UNL     1      28.020   0.512  54.534  1.00  0.00     0.116 C 
HETATM   21  C25 UNL     1      28.645   1.725  53.970  1.00  0.00     0.264 C 
HETATM   22  O2  UNL     1      29.494   2.388  54.598  1.00  0.00    -0.265 OA
HETATM   23  O3  UNL     1      28.110   1.931  52.686  1.00  0.00    -0.278 OA
BRANCH  18  24
HETATM   24  C17 UNL     1      24.568   0.683  52.899  1.00  0.00    -0.053 C 
HETATM   25  C18 UNL     1      24.156  -0.442  53.535  1.00  0.00    -0.019 C 
HETATM   26  C19 UNL     1      22.810  -1.112  53.375  1.00  0.00     0.027 C 
HETATM   27  C20 UNL     1      21.781  -0.006  53.686  1.00  0.00     0.004 C 
HETATM   28  C21 UNL     1      22.152   1.251  52.938  1.00  0.00     0.005 C 
HETATM   29  C22 UNL     1      23.403   1.008  52.087  1.00  0.00     0.039 C 
ENDBRANCH  18  24
ENDBRANCH  16  17
ENDBRANCH  15  16
ENDBRANCH  12  15
BRANCH   3  30
HETATM   30  N1  UNL     1      21.717   6.746  50.614  1.00  0.00    -0.414 N 
HETATM   31  H5  UNL     1      20.697   6.890  50.832  1.00  0.00     0.151 HD
HETATM   32  H6  UNL     1      20.775   7.013  51.031  1.00  0.00     0.151 HD
ENDBRANCH   3  30
BRANCH   1  33
HETATM   33  O1  UNL     1      23.478   9.294  48.362  1.00  0.00    -0.389 OA
HETATM   34  C1  UNL     1      22.469   9.172  47.415  1.00  0.00     0.202 C 
ENDBRANCH   1  33
TORSDOF 6
ENDMDL
MODEL 2
REMARK VINA RESULT:      -9.8      2.754      7.541
REMARK  6 active torsions:
REMARK  status: ('A' for Active; 'I' for Inactive)
REMARK    1  A    between atoms: O1_2  and  C2_3 
REMARK    2  A    between atoms: C4_5  and  N1_6 
REMARK    3  A    between atoms: C12_15  and  C13_16 
REMARK    4  A    between atoms: C13_16  and  C14_17 
REMARK    5  A    between atoms: C14_17  and  C15_18 
REMARK    6  A    between atoms: C16_19  and  C17_20 
ROOT
HETATM    1  C2  UNL     1      23.794  -0.020  53.756  1.00  0.00     0.054 C 
HETATM    2  C3  UNL     1      25.041  -0.529  54.121  1.00  0.00     0.137 C 
HETATM    3  C4  UNL     1      26.059   0.432  53.596  1.00  0.00     0.100 C 
HETATM    4  C5  UNL     1      27.185   1.102  53.249  1.00  0.00     0.014 C 
HETATM    5  C6  UNL     1      28.667   1.108  53.308  1.00  0.00     0.066 C 
HETATM    6  N2  UNL     1      26.941   2.407  52.618  1.00  0.00    -0.360 N 
HETATM    7  C7  UNL     1      25.833   2.572  51.791  1.00  0.00     0.043 A 
HETATM    8  C8  UNL     1      24.637   2.076  52.167  1.00  0.00     0.037 A 
HETATM    9  C9  UNL     1      23.336   1.734  52.128  1.00  0.00    -0.053 A 
HETATM   10  C10 UNL     1      23.134   2.259  50.871  1.00  0.00     0.008 A 
HETATM   11  C11 UNL     1      24.095   2.877  50.103  1.00  0.00     0.014 A 
HETATM   12  C12 UNL     1      25.375   3.005  50.577  1.00  0.00    -0.009 A 
HETATM   13  C26 UNL     1      22.680   0.917  53.125  1.00  0.00     0.071 C 
HETATM   14  H10 UNL     1      27.190   3.381  52.458  1.00  0.00     0.165 HD
ENDROOT
BRANCH  12  15
HETATM   15  C13 UNL     1      26.470   3.571  49.854  1.00  0.00     0.016 C 
BRANCH  15  16
HETATM   16  C14 UNL     1      27.200   4.060  48.931  1.00  0.00     0.039 C 
BRANCH  16  17
HETATM   17  C15 UNL     1      27.802   5.305  48.574  1.00  0.00     0.086 C 
HETATM   18  C16 UNL     1      27.102   6.410  48.538  1.00  0.00    -0.018 C 
HETATM   19  C23 UNL     1      27.936   7.580  48.178  1.00  0.00     0.052 C 
HETATM   20  C24 UNL     1      29.394   7.341  48.620  1.00  0.00     0.116 C 
HETATM   21  C25 UNL     1      29.918   6.148  47.924  1.00  0.00     0.264 C 
HETATM   22  O2  UNL     1      30.891   6.207  47.147  1.00  0.00    -0.265 OA
HETATM   23  O3  UNL     1      29.138   5.044  48.310  1.00  0.00    -0.278 OA
BRANCH  18  24
HETATM   24  C17 UNL     1      25.686   6.436  48.857  1.00  0.00    -0.053 C 
HETATM   25  C18 UNL     1      25.521   6.919  50.113  1.00  0.00    -0.019 C 
HETATM   26  C19 UNL     1      24.201   7.104  50.828  1.00  0.00     0.027 C 
HETATM   27  C20 UNL     1      23.364   7.989  49.882  1.00  0.00     0.004 C 
HETATM   28  C21 UNL     1      23.453   7.448  48.476  1.00  0.00     0.005 C 
HETATM   29  C22 UNL     1      24.311   6.179  48.453  1.00  0.00     0.039 C 
ENDBRANCH  18  24
ENDBRANCH  16  17
ENDBRANCH  15  16
ENDBRANCH  12  15
BRANCH   3  30
HETATM   30  N1  UNL     1      26.929  -0.564  54.228  1.00  0.00    -0.414 N 
HETATM   31  H5  UNL     1      27.498  -1.289  54.736  1.00  0.00     0.151 HD
HETATM   32  H6  UNL     1      27.307  -1.305  54.891  1.00  0.00     0.151 HD
ENDBRANCH   3  30
BRANCH   1  33
HETATM   33  O1  UNL     1      23.141  -1.113  54.395  1.00  0.00    -0.389 OA
HETATM   34  C1  UNL     1      21.771  -1.189  54.605  1.00  0.00     0.202 C 
ENDBRANCH   1  33
TORSDOF 6
ENDMDL
MODEL 3
REMARK VINA RESULT:      -9.7      1.723      3.434
REMARK  6 active torsions:
REMARK  status: ('A' for Active; 'I' for Inactive)
REMARK    1  A    between atoms: O1_2  and  C2_3 
REMARK    2  A    between atoms: C4_5  and  N1_6 
REMARK    3  A    between atoms: C12_15  and  C13_16 
REMARK    4  A    between atoms: C13_16  and  C14_17 
REMARK    5  A    between atoms: C14_17  and  C15_18 
REMARK    6  A    between atoms: C16_19  and  C17_20 
ROOT
HETATM    1  C2  UNL     1      24.099   7.593  48.399  1.00  0.00     0.054 C 
HETATM    2  C3  UNL     1      22.846   7.198  48.868  1.00  0.00     0.137 C 
HETATM    3  C4  UNL     1      23.093   6.127  49.881  1.00  0.00     0.100 C 
HETATM    4  C5  UNL     1      23.004   5.155  50.822  1.00  0.00     0.014 C 
HETATM    5  C6  UNL     1      22.082   4.345  51.655  1.00  0.00     0.066 C 
HETATM    6  N2  UNL     1      24.301   4.707  51.352  1.00  0.00    -0.360 N 
HETATM    7  C7  UNL     1      25.408   4.666  50.510  1.00  0.00     0.043 A 
HETATM    8  C8  UNL     1      25.649   5.692  49.670  1.00  0.00     0.037 A 
HETATM    9  C9  UNL     1      26.220   6.432  48.702  1.00  0.00    -0.053 A 
HETATM   10  C10 UNL     1      27.191   5.497  48.422  1.00  0.00     0.008 A 
HETATM   11  C11 UNL     1      27.328   4.280  49.051  1.00  0.00     0.014 A 
HETATM   12  C12 UNL     1      26.454   3.918  50.044  1.00  0.00    -0.009 A 
HETATM   13  C26 UNL     1      25.670   7.670  48.194  1.00  0.00     0.071 C 
HETATM   14  H10 UNL     1      24.885   4.377  52.117  1.00  0.00     0.165 HD
ENDROOT
BRANCH  12  15
HETATM   15  C13 UNL     1      26.457   2.664  50.729  1.00  0.00     0.016 C 
BRANCH  15  16
HETATM   16  C14 UNL     1      26.266   1.742  51.588  1.00  0.00     0.039 C 
BRANCH  16  17
HETATM   17  C15 UNL     1      25.185   1.013  52.169  1.00  0.00     0.086 C 
HETATM   18  C16 UNL     1      25.383   0.182  53.160  1.00  0.00    -0.018 C 
HETATM   19  C23 UNL     1      24.119  -0.435  53.624  1.00  0.00     0.052 C 
HETATM   20  C24 UNL     1      22.938   0.517  53.346  1.00  0.00     0.116 C 
HETATM   21  C25 UNL     1      22.846   0.757  51.892  1.00  0.00     0.264 C 
HETATM   22  O2  UNL     1      21.843   0.433  51.227  1.00  0.00    -0.265 OA
HETATM   23  O3  UNL     1      24.039   1.379  51.480  1.00  0.00    -0.278 OA
BRANCH  18  24
HETATM   24  C17 UNL     1      26.701  -0.045  53.723  1.00  0.00    -0.053 C 
HETATM   25  C18 UNL     1      27.331  -1.011  53.009  1.00  0.00    -0.019 C 
HETATM   26  C19 UNL     1      28.722  -1.545  53.268  1.00  0.00     0.027 C 
HETATM   27  C20 UNL     1      29.630  -0.298  53.256  1.00  0.00     0.004 C 
HETATM   28  C21 UNL     1      29.009   0.785  54.103  1.00  0.00     0.005 C 
HETATM   29  C22 UNL     1      27.703   0.283  54.728  1.00  0.00     0.039 C 
ENDBRANCH  18  24
ENDBRANCH  16  17
ENDBRANCH  15  16
ENDBRANCH  12  15
BRANCH   3  30
HETATM   30  N1  UNL     1      21.630   6.195  49.913  1.00  0.00    -0.414 N 
HETATM   31  H5  UNL     1      20.577   6.188  49.881  1.00  0.00     0.151 HD
HETATM   32  H6  UNL     1      20.601   6.009  49.713  1.00  0.00     0.151 HD
ENDBRANCH   3  30
BRANCH   1  33
HETATM   33  O1  UNL     1      23.494   8.553  47.539  1.00  0.00    -0.389 OA
HETATM   34  C1  UNL     1      22.652   9.570  47.972  1.00  0.00     0.202 C 
ENDBRANCH   1  33
TORSDOF 6
ENDMDL
MODEL 4
REMARK VINA RESULT:      -9.6      3.718      7.296
REMARK  6 active torsions:
REMARK  status: ('A' for Active; 'I' for Inactive)
REMARK    1  A    between atoms: O1_2  and  C2_3 
REMARK    2  A    between atoms: C4_5  and  N1_6 
REMARK    3  A    between atoms: C12_15  and  C13_16 
REMARK    4  A    between atoms: C13_16  and  C14_17 
REMARK    5  A    between atoms: C14_17  and  C15_18 
REMARK    6  A    between atoms: C16_19  and  C17_20 
ROOT
HETATM    1  C2  UNL     1      17.804  -0.132  51.336  1.00  0.00     0.054 C 
HETATM    2  C3  UNL     1      17.947   0.675  50.207  1.00  0.00     0.137 C 
HETATM    3  C4  UNL     1      19.409   0.953  50.069  1.00  0.00     0.100 C 
HETATM    4  C5  UNL     1      20.643   1.371  49.694  1.00  0.00     0.014 C 
HETATM    5  C6  UNL     1      21.413   2.167  48.707  1.00  0.00     0.066 C 
HETATM    6  N2  UNL     1      21.742   0.788  50.478  1.00  0.00    -0.360 N 
HETATM    7  C7  UNL     1      21.554   0.526  51.832  1.00  0.00     0.043 A 
HETATM    8  C8  UNL     1      20.410  -0.053  52.248  1.00  0.00     0.037 A 
HETATM    9  C9  UNL     1      19.467  -0.554  53.067  1.00  0.00    -0.053 A 
HETATM   10  C10 UNL     1      20.180  -0.288  54.214  1.00  0.00     0.008 A 
HETATM   11  C11 UNL     1      21.422   0.304  54.260  1.00  0.00     0.014 A 
HETATM   12  C12 UNL     1      22.046   0.681  53.098  1.00  0.00    -0.009 A 
HETATM   13  C26 UNL     1      18.155  -0.979  52.631  1.00  0.00     0.071 C 
HETATM   14  H10 UNL     1      22.689   0.422  50.551  1.00  0.00     0.165 HD
ENDROOT
BRANCH  12  15
HETATM   15  C13 UNL     1      23.305   1.353  53.018  1.00  0.00     0.016 C 
BRANCH  15  16
HETATM   16  C14 UNL     1      24.208   2.234  52.842  1.00  0.00     0.039 C 
BRANCH  16  17
HETATM   17  C15 UNL     1      24.880   2.894  51.769  1.00  0.00     0.086 C 
HETATM   18  C16 UNL     1      26.055   2.494  51.357  1.00  0.00    -0.018 C 
HETATM   19  C23 UNL     1      26.544   3.299  50.214  1.00  0.00     0.052 C 
HETATM   20  C24 UNL     1      25.349   3.857  49.416  1.00  0.00     0.116 C 
HETATM   21  C25 UNL     1      24.541   4.721  50.300  1.00  0.00     0.264 C 
HETATM   22  O2  UNL     1      24.374   5.935  50.069  1.00  0.00    -0.265 OA
HETATM   23  O3  UNL     1      24.055   3.929  51.355  1.00  0.00    -0.278 OA
BRANCH  18  24
HETATM   24  C17 UNL     1      26.740   1.365  51.961  1.00  0.00    -0.053 C 
HETATM   25  C18 UNL     1      27.735   1.824  52.761  1.00  0.00    -0.019 C 
HETATM   26  C19 UNL     1      28.687   0.973  53.572  1.00  0.00     0.027 C 
HETATM   27  C20 UNL     1      27.776   0.081  54.438  1.00  0.00     0.004 C 
HETATM   28  C21 UNL     1      26.691  -0.518  53.577  1.00  0.00     0.005 C 
HETATM   29  C22 UNL     1      26.871  -0.077  52.121  1.00  0.00     0.039 C 
ENDBRANCH  18  24
ENDBRANCH  16  17
ENDBRANCH  15  16
ENDBRANCH  12  15
BRANCH   3  30
HETATM   30  N1  UNL     1      18.884   1.698  48.922  1.00  0.00    -0.414 N 
HETATM   31  H5  UNL     1      18.551   2.189  48.052  1.00  0.00     0.151 HD
HETATM   32  H6  UNL     1      18.700   2.035  47.929  1.00  0.00     0.151 HD
ENDBRANCH   3  30
BRANCH   1  33
HETATM   33  O1  UNL     1      16.395  -0.188  51.140  1.00  0.00    -0.389 OA
HETATM   34  C1  UNL     1      15.558  -1.112  51.752  1.00  0.00     0.202 C 
ENDBRANCH   1  33
TORSDOF 6
ENDMDL
MODEL 5
REMARK VINA RESULT:      -9.5      2.406      4.106
REMARK  6 active torsions:
REMARK  status: ('A' for Active; 'I' for Inactive)
REMARK    1  A    between atoms: O1_2  and  C2_3 
REMARK    2  A    between atoms: C4_5  and  N1_6 
REMARK    3  A    between atoms: C12_15  and  C13_16 
REMARK    4  A    between atoms: C13_16  and  C14_17 
REMARK    5  A    between atoms: C14_17  and  C15_18 
REMARK    6  A    between atoms: C16_19  and  C17_20 
ROOT
HETATM    1  C2  UNL     1      25.942   6.968  48.218  1.00  0.00     0.054 C 
HETATM    2  C3  UNL     1      24.705   7.590  48.383  1.00  0.00     0.137 C 
HETATM    3  C4  UNL     1      24.052   6.928  49.553  1.00  0.00     0.100 C 
HETATM    4  C5  UNL     1      23.227   6.529  50.553  1.00  0.00     0.014 C 
HETATM    5  C6  UNL     1      21.913   6.740  51.207  1.00  0.00     0.066 C 
HETATM    6  N2  UNL     1      23.818   5.535  51.462  1.00  0.00    -0.360 N 
HETATM    7  C7  UNL     1      24.699   4.583  50.958  1.00  0.00     0.043 A 
HETATM    8  C8  UNL     1      25.660   4.955  50.088  1.00  0.00     0.037 A 
HETATM    9  C9  UNL     1      26.686   4.875  49.221  1.00  0.00    -0.053 A 
HETATM   10  C10 UNL     1      26.803   3.508  49.332  1.00  0.00     0.008 A 
HETATM   11  C11 UNL     1      26.017   2.703  50.126  1.00  0.00     0.014 A 
HETATM   12  C12 UNL     1      25.019   3.256  50.887  1.00  0.00    -0.009 A 
HETATM   13  C26 UNL     1      27.170   5.986  48.432  1.00  0.00     0.071 C 
HETATM   14  H10 UNL     1      23.937   5.137  52.391  1.00  0.00     0.165 HD
ENDROOT
BRANCH  12  15
HETATM   15  C13 UNL     1      24.102   2.522  51.703  1.00  0.00     0.016 C 
BRANCH  15  16
HETATM   16  C14 UNL     1      23.429   2.088  52.694  1.00  0.00     0.039 C 
BRANCH  16  17
HETATM   17  C15 UNL     1      22.789   0.886  53.121  1.00  0.00     0.086 C 
HETATM   18  C16 UNL     1      23.474  -0.095  53.650  1.00  0.00    -0.018 C 
HETATM   19  C23 UNL     1      22.603  -1.224  54.051  1.00  0.00     0.052 C 
HETATM   20  C24 UNL     1      21.192  -0.704  54.388  1.00  0.00     0.116 C 
HETATM   21  C25 UNL     1      20.617  -0.058  53.191  1.00  0.00     0.264 C 
HETATM   22  O2  UNL     1      19.579  -0.479  52.643  1.00  0.00    -0.265 OA
HETATM   23  O3  UNL     1      21.437   1.033  52.851  1.00  0.00    -0.278 OA
BRANCH  18  24
HETATM   24  C17 UNL     1      24.913  -0.020  53.831  1.00  0.00    -0.053 C 
HETATM   25  C18 UNL     1      25.524  -0.689  52.821  1.00  0.00    -0.019 C 
HETATM   26  C19 UNL     1      27.016  -0.852  52.638  1.00  0.00     0.027 C 
HETATM   27  C20 UNL     1      27.572   0.587  52.640  1.00  0.00     0.004 C 
HETATM   28  C21 UNL     1      26.978   1.354  53.796  1.00  0.00     0.005 C 
HETATM   29  C22 UNL     1      26.051   0.447  54.610  1.00  0.00     0.039 C 
ENDBRANCH  18  24
ENDBRANCH  16  17
ENDBRANCH  15  16
ENDBRANCH  12  15
BRANCH   3  30
HETATM   30  N1  UNL     1      23.021   7.901  49.185  1.00  0.00    -0.414 N 
HETATM   31  H5  UNL     1      22.228   8.556  48.958  1.00  0.00     0.151 HD
HETATM   32  H6  UNL     1      22.086   8.400  49.085  1.00  0.00     0.151 HD
ENDBRANCH   3  30
BRANCH   1  33
HETATM   33  O1  UNL     1      26.241   7.814  47.112  1.00  0.00    -0.389 OA
HETATM   34  C1  UNL     1      27.528   8.132  46.698  1.00  0.00     0.202 C 
ENDBRANCH   1  33
TORSDOF 6
ENDMDL
MODEL 6
REMARK VINA RESULT:      -9.5      2.713      4.316
REMARK  6 active torsions:
REMARK  status: ('A' for Active; 'I' for Inactive)
REMARK    1  A    between atoms: O1_2  and  C2_3 
REMARK    2  A    between atoms: C4_5  and  N1_6 
REMARK    3  A    between atoms: C12_15  and  C13_16 
REMARK    4  A    between atoms: C13_16  and  C14_17 
REMARK    5  A    between atoms: C14_17  and  C15_18 
REMARK    6  A    between atoms: C16_19  and  C17_20 
ROOT
HETATM    1  C2  UNL     1      27.817   9.382  47.594  1.00  0.00     0.054 C 
HETATM    2  C3  UNL     1      29.152   9.226  47.969  1.00  0.00     0.137 C 
HETATM    3  C4  UNL     1      29.355   7.765  48.208  1.00  0.00     0.100 C 
HETATM    4  C5  UNL     1      29.833   6.528  48.493  1.00  0.00     0.014 C 
HETATM    5  C6  UNL     1      31.021   5.747  48.916  1.00  0.00     0.066 C 
HETATM    6  N2  UNL     1      28.880   5.438  48.233  1.00  0.00    -0.360 N 
HETATM    7  C7  UNL     1      27.521   5.650  48.447  1.00  0.00     0.043 A 
HETATM    8  C8  UNL     1      26.948   6.796  48.026  1.00  0.00     0.037 A 
HETATM    9  C9  UNL     1      26.022   7.750  47.820  1.00  0.00    -0.053 A 
HETATM   10  C10 UNL     1      25.025   7.062  48.475  1.00  0.00     0.008 A 
HETATM   11  C11 UNL     1      25.166   5.828  49.068  1.00  0.00     0.014 A 
HETATM   12  C12 UNL     1      26.377   5.186  49.035  1.00  0.00    -0.009 A 
HETATM   13  C26 UNL     1      26.305   9.047  47.248  1.00  0.00     0.071 C 
HETATM   14  H10 UNL     1      28.672   4.489  47.931  1.00  0.00     0.165 HD
ENDROOT
BRANCH  12  15
HETATM   15  C13 UNL     1      26.664   3.933  49.661  1.00  0.00     0.016 C 
BRANCH  15  16
HETATM   16  C14 UNL     1      26.586   2.878  50.370  1.00  0.00     0.039 C 
BRANCH  16  17
HETATM   17  C15 UNL     1      26.602   2.496  51.746  1.00  0.00     0.086 C 
HETATM   18  C16 UNL     1      25.493   2.230  52.388  1.00  0.00    -0.018 C 
HETATM   19  C23 UNL     1      25.751   1.823  53.789  1.00  0.00     0.052 C 
HETATM   20  C24 UNL     1      27.144   1.171  53.899  1.00  0.00     0.116 C 
HETATM   21  C25 UNL     1      28.168   2.153  53.490  1.00  0.00     0.264 C 
HETATM   22  O2  UNL     1      29.055   2.552  54.270  1.00  0.00    -0.265 OA
HETATM   23  O3  UNL     1      27.929   2.495  52.147  1.00  0.00    -0.278 OA
BRANCH  18  24
HETATM   24  C17 UNL     1      24.194   2.305  51.746  1.00  0.00    -0.053 C 
HETATM   25  C18 UNL     1      23.581   3.458  52.115  1.00  0.00    -0.019 C 
HETATM   26  C19 UNL     1      22.211   3.918  51.669  1.00  0.00     0.027 C 
HETATM   27  C20 UNL     1      22.274   3.904  50.129  1.00  0.00     0.004 C 
HETATM   28  C21 UNL     1      22.881   2.604  49.661  1.00  0.00     0.005 C 
HETATM   29  C22 UNL     1      23.200   1.709  50.864  1.00  0.00     0.039 C 
ENDBRANCH  18  24
ENDBRANCH  16  17
ENDBRANCH  15  16
ENDBRANCH  12  15
BRANCH   3  30
HETATM   30  N1  UNL     1      30.696   8.275  48.506  1.00  0.00    -0.414 N 
HETATM   31  H5  UNL     1      31.666   8.585  48.772  1.00  0.00     0.151 HD
HETATM   32  H6  UNL     1      31.665   8.394  48.929  1.00  0.00     0.151 HD
ENDBRANCH   3  30
BRANCH   1  33
HETATM   33  O1  UNL     1      28.003  10.786  47.450  1.00  0.00    -0.389 OA
HETATM   34  C1  UNL     1      28.996  11.513  48.095  1.00  0.00     0.202 C 
ENDBRANCH   1  33
TORSDOF 6
ENDMDL
MODEL 7
REMARK VINA RESULT:      -9.4      1.698      2.001
REMARK  6 active torsions:
REMARK  status: ('A' for Active; 'I' for Inactive)
REMARK    1  A    between atoms: O1_2  and  C2_3 
REMARK    2  A    between atoms: C4_5  and  N1_6 
REMARK    3  A    between atoms: C12_15  and  C13_16 
REMARK    4  A    between atoms: C13_16  and  C14_17 
REMARK    5  A    between atoms: C14_17  and  C15_18 
REMARK    6  A    between atoms: C16_19  and  C17_20 
ROOT
HETATM    1  C2  UNL     1      25.458   8.410  46.813  1.00  0.00     0.054 C 
HETATM    2  C3  UNL     1      24.117   8.028  46.757  1.00  0.00     0.137 C 
HETATM    3  C4  UNL     1      23.948   6.933  47.759  1.00  0.00     0.100 C 
HETATM    4  C5  UNL     1      23.497   5.943  48.569  1.00  0.00     0.014 C 
HETATM    5  C6  UNL     1      22.318   5.134  48.965  1.00  0.00     0.066 C 
HETATM    6  N2  UNL     1      24.487   5.462  49.544  1.00  0.00    -0.360 N 
HETATM    7  C7  UNL     1      25.832   5.417  49.188  1.00  0.00     0.043 A 
HETATM    8  C8  UNL     1      26.385   6.455  48.531  1.00  0.00     0.037 A 
HETATM    9  C9  UNL     1      27.291   7.204  47.875  1.00  0.00    -0.053 A 
HETATM   10  C10 UNL     1      28.286   6.257  47.964  1.00  0.00     0.008 A 
HETATM   11  C11 UNL     1      28.161   5.026  48.566  1.00  0.00     0.014 A 
HETATM   12  C12 UNL     1      26.970   4.660  49.139  1.00  0.00    -0.009 A 
HETATM   13  C26 UNL     1      26.989   8.462  47.227  1.00  0.00     0.071 C 
HETATM   14  H10 UNL     1      24.731   5.105  50.465  1.00  0.00     0.165 HD
ENDROOT
BRANCH  12  15
HETATM   15  C13 UNL     1      26.699   3.392  49.741  1.00  0.00     0.016 C 
BRANCH  15  16
HETATM   16  C14 UNL     1      26.371   2.478  50.566  1.00  0.00     0.039 C 
BRANCH  16  17
HETATM   17  C15 UNL     1      26.525   2.167  51.951  1.00  0.00     0.086 C 
HETATM   18  C16 UNL     1      25.499   1.820  52.686  1.00  0.00    -0.018 C 
HETATM   19  C23 UNL     1      25.897   1.510  54.078  1.00  0.00     0.052 C 
HETATM   20  C24 UNL     1      27.355   1.009  54.108  1.00  0.00     0.116 C 
HETATM   21  C25 UNL     1      28.239   2.069  53.583  1.00  0.00     0.264 C 
HETATM   22  O2  UNL     1      29.133   2.592  54.278  1.00  0.00    -0.265 OA
HETATM   23  O3  UNL     1      27.871   2.320  52.250  1.00  0.00    -0.278 OA
BRANCH  18  24
HETATM   24  C17 UNL     1      24.157   1.733  52.141  1.00  0.00    -0.053 C 
HETATM   25  C18 UNL     1      23.557   0.610  52.612  1.00  0.00    -0.019 C 
HETATM   26  C19 UNL     1      22.155   0.148  52.285  1.00  0.00     0.027 C 
HETATM   27  C20 UNL     1      21.251   1.342  52.655  1.00  0.00     0.004 C 
HETATM   28  C21 UNL     1      21.836   2.611  52.087  1.00  0.00     0.005 C 
HETATM   29  C22 UNL     1      23.112   2.297  51.298  1.00  0.00     0.039 C 
ENDBRANCH  18  24
ENDBRANCH  16  17
ENDBRANCH  15  16
ENDBRANCH  12  15
BRANCH   3  30
HETATM   30  N1  UNL     1      22.584   7.027  47.230  1.00  0.00    -0.414 N 
HETATM   31  H5  UNL     1      21.635   7.085  46.778  1.00  0.00     0.151 HD
HETATM   32  H6  UNL     1      21.754   7.054  46.565  1.00  0.00     0.151 HD
ENDBRANCH   3  30
BRANCH   1  33
HETATM   33  O1  UNL     1      25.237   9.398  45.812  1.00  0.00    -0.389 OA
HETATM   34  C1  UNL     1      25.762   9.338  44.527  1.00  0.00     0.202 C 
ENDBRANCH   1  33
TORSDOF 6
ENDMDL
MODEL 8
REMARK VINA RESULT:      -9.1      2.984      8.405
REMARK  6 active torsions:
REMARK  status: ('A' for Active; 'I' for Inactive)
REMARK    1  A    between atoms: O1_2  and  C2_3 
REMARK    2  A    between atoms: C4_5  and  N1_6 
REMARK    3  A    between atoms: C12_15  and  C13_16 
REMARK    4  A    between atoms: C13_16  and  C14_17 
REMARK    5  A    between atoms: C14_17  and  C15_18 
REMARK    6  A    between atoms: C16_19  and  C17_20 
ROOT
HETATM    1  C2  UNL     1      23.704   0.194  52.943  1.00  0.00     0.054 C 
HETATM    2  C3  UNL     1      24.900  -0.299  53.464  1.00  0.00     0.137 C 
HETATM    3  C4  UNL     1      25.960   0.687  53.096  1.00  0.00     0.100 C 
HETATM    4  C5  UNL     1      27.110   1.383  52.914  1.00  0.00     0.014 C 
HETATM    5  C6  UNL     1      28.570   1.413  53.172  1.00  0.00     0.066 C 
HETATM    6  N2  UNL     1      26.927   2.695  52.276  1.00  0.00    -0.360 N 
HETATM    7  C7  UNL     1      25.938   2.856  51.311  1.00  0.00     0.043 A 
HETATM    8  C8  UNL     1      24.712   2.334  51.516  1.00  0.00     0.037 A 
HETATM    9  C9  UNL     1      23.435   1.971  51.297  1.00  0.00    -0.053 A 
HETATM   10  C10 UNL     1      23.393   2.516  50.033  1.00  0.00     0.008 A 
HETATM   11  C11 UNL     1      24.435   3.163  49.410  1.00  0.00     0.014 A 
HETATM   12  C12 UNL     1      25.638   3.304  50.054  1.00  0.00    -0.009 A 
HETATM   13  C26 UNL     1      22.667   1.125  52.184  1.00  0.00     0.071 C 
HETATM   14  H10 UNL     1      27.177   3.675  52.167  1.00  0.00     0.165 HD
ENDROOT
BRANCH  12  15
HETATM   15  C13 UNL     1      26.809   3.902  49.493  1.00  0.00     0.016 C 
BRANCH  15  16
HETATM   16  C14 UNL     1      27.602   4.677  48.865  1.00  0.00     0.039 C 
BRANCH  16  17
HETATM   17  C15 UNL     1      27.637   6.014  48.366  1.00  0.00     0.086 C 
HETATM   18  C16 UNL     1      28.771   6.643  48.194  1.00  0.00    -0.018 C 
HETATM   19  C23 UNL     1      28.570   8.001  47.636  1.00  0.00     0.052 C 
HETATM   20  C24 UNL     1      27.277   8.037  46.798  1.00  0.00     0.116 C 
HETATM   21  C25 UNL     1      26.130   7.703  47.667  1.00  0.00     0.264 C 
HETATM   22  O2  UNL     1      25.198   8.505  47.874  1.00  0.00    -0.265 OA
HETATM   23  O3  UNL     1      26.322   6.397  48.154  1.00  0.00    -0.278 OA
BRANCH  18  24
HETATM   24  C17 UNL     1      30.049   6.025  48.497  1.00  0.00    -0.053 C 
HETATM   25  C18 UNL     1      30.424   5.242  47.455  1.00  0.00    -0.019 C 
HETATM   26  C19 UNL     1      31.691   4.421  47.370  1.00  0.00     0.027 C 
HETATM   27  C20 UNL     1      32.830   5.431  47.620  1.00  0.00     0.004 C 
HETATM   28  C21 UNL     1      32.496   6.280  48.822  1.00  0.00     0.005 C 
HETATM   29  C22 UNL     1      31.158   5.838  49.423  1.00  0.00     0.039 C 
ENDBRANCH  18  24
ENDBRANCH  16  17
ENDBRANCH  15  16
ENDBRANCH  12  15
BRANCH   3  30
HETATM   30  N1  UNL     1      26.756  -0.305  53.823  1.00  0.00    -0.414 N 
HETATM   31  H5  UNL     1      27.269  -1.024  54.396  1.00  0.00     0.151 HD
HETATM   32  H6  UNL     1      27.069  -1.027  54.540  1.00  0.00     0.151 HD
ENDBRANCH   3  30
BRANCH   1  33
HETATM   33  O1  UNL     1      22.992  -0.920  53.471  1.00  0.00    -0.389 OA
HETATM   34  C1  UNL     1      22.586  -1.032  54.795  1.00  0.00     0.202 C 
ENDBRANCH   1  33
TORSDOF 6
ENDMDL
MODEL 9
REMARK VINA RESULT:      -8.9      4.291      7.784
REMARK  6 active torsions:
REMARK  status: ('A' for Active; 'I' for Inactive)
REMARK    1  A    between atoms: O1_2  and  C2_3 
REMARK    2  A    between atoms: C4_5  and  N1_6 
REMARK    3  A    between atoms: C12_15  and  C13_16 
REMARK    4  A    between atoms: C13_16  and  C14_17 
REMARK    5  A    between atoms: C14_17  and  C15_18 
REMARK    6  A    between atoms: C16_19  and  C17_20 
ROOT
HETATM    1  C2  UNL     1      16.150   0.447  51.899  1.00  0.00     0.054 C 
HETATM    2  C3  UNL     1      16.250   1.818  51.660  1.00  0.00     0.137 C 
HETATM    3  C4  UNL     1      17.710   2.130  51.590  1.00  0.00     0.100 C 
HETATM    4  C5  UNL     1      18.933   2.705  51.478  1.00  0.00     0.014 C 
HETATM    5  C6  UNL     1      19.667   3.975  51.258  1.00  0.00     0.066 C 
HETATM    6  N2  UNL     1      20.052   1.752  51.489  1.00  0.00    -0.360 N 
HETATM    7  C7  UNL     1      19.968   0.606  52.275  1.00  0.00     0.043 A 
HETATM    8  C8  UNL     1      18.827  -0.112  52.292  1.00  0.00     0.037 A 
HETATM    9  C9  UNL     1      17.927  -1.056  52.623  1.00  0.00    -0.053 A 
HETATM   10  C10 UNL     1      18.758  -1.671  53.531  1.00  0.00     0.008 A 
HETATM   11  C11 UNL     1      20.040  -1.271  53.836  1.00  0.00     0.014 A 
HETATM   12  C12 UNL     1      20.582  -0.175  53.215  1.00  0.00    -0.009 A 
HETATM   13  C26 UNL     1      16.553  -1.063  52.169  1.00  0.00     0.071 C 
HETATM   14  H10 UNL     1      20.972   1.453  51.174  1.00  0.00     0.165 HD
ENDROOT
BRANCH  12  15
HETATM   15  C13 UNL     1      21.874   0.371  53.487  1.00  0.00     0.016 C 
BRANCH  15  16
HETATM   16  C14 UNL     1      23.048   0.852  53.359  1.00  0.00     0.039 C 
BRANCH  16  17
HETATM   17  C15 UNL     1      23.782   1.685  52.462  1.00  0.00     0.086 C 
HETATM   18  C16 UNL     1      25.083   1.588  52.359  1.00  0.00    -0.018 C 
HETATM   19  C23 UNL     1      25.628   2.523  51.347  1.00  0.00     0.052 C 
HETATM   20  C24 UNL     1      24.564   2.805  50.267  1.00  0.00     0.116 C 
HETATM   21  C25 UNL     1      23.385   3.424  50.904  1.00  0.00     0.264 C 
HETATM   22  O2  UNL     1      22.994   4.570  50.605  1.00  0.00    -0.265 OA
HETATM   23  O3  UNL     1      22.860   2.507  51.831  1.00  0.00    -0.278 OA
BRANCH  18  24
HETATM   24  C17 UNL     1      25.849   0.637  53.143  1.00  0.00    -0.053 C 
HETATM   25  C18 UNL     1      26.375  -0.301  52.316  1.00  0.00    -0.019 C 
HETATM   26  C19 UNL     1      27.236  -1.472  52.733  1.00  0.00     0.027 C 
HETATM   27  C20 UNL     1      28.406  -0.840  53.514  1.00  0.00     0.004 C 
HETATM   28  C21 UNL     1      27.867   0.160  54.506  1.00  0.00     0.005 C 
HETATM   29  C22 UNL     1      26.337   0.194  54.442  1.00  0.00     0.039 C 
ENDBRANCH  18  24
ENDBRANCH  16  17
ENDBRANCH  15  16
ENDBRANCH  12  15
BRANCH   3  30
HETATM   30  N1  UNL     1      17.140   3.462  51.371  1.00  0.00    -0.414 N 
HETATM   31  H5  UNL     1      16.695   4.412  51.284  1.00  0.00     0.151 HD
HETATM   32  H6  UNL     1      16.601   4.369  51.507  1.00  0.00     0.151 HD
ENDBRANCH   3  30
BRANCH   1  33
HETATM   33  O1  UNL     1      14.729   0.530  51.885  1.00  0.00    -0.389 OA
HETATM   34  C1  UNL     1      13.904  -0.055  52.838  1.00  0.00     0.202 C 
ENDBRANCH   1  33
TORSDOF 6
ENDMDL
