MODEL 1
REMARK VINA RESULT:      -8.3      0.000      0.000
REMARK  5 active torsions:
REMARK  status: ('A' for Active; 'I' for Inactive)
REMARK    1  A    between atoms: S1_2  and  C1_4 
REMARK    2  A    between atoms: S1_2  and  C3_7 
REMARK    3  A    between atoms: C1_4  and  C2_5 
REMARK    4  A    between atoms: C2_5  and  O3_6 
REMARK    5  A    between atoms: N4_17  and  C10_18 
ROOT
HETATM    1  C3  UNL     1      26.599   0.382  53.141  1.00  0.00     0.153 C 
HETATM    2  C4  UNL     1      26.622   0.713  51.800  1.00  0.00     0.077 C 
HETATM    3  C5  UNL     1      26.138   1.931  51.369  1.00  0.00     0.091 A 
HETATM    4  C6  UNL     1      24.956   2.512  51.694  1.00  0.00     0.164 A 
HETATM    5  N1  UNL     1      24.133   1.876  52.518  1.00  0.00    -0.222 NA
HETATM    6  C7  UNL     1      23.062   1.247  52.067  1.00  0.00     0.235 C 
HETATM    7  N2  UNL     1      22.645   0.354  52.944  1.00  0.00    -0.253 NA
HETATM    8  C8  UNL     1      23.406  -0.400  53.755  1.00  0.00     0.137 C 
HETATM    9  C9  UNL     1      24.742  -0.816  53.682  1.00  0.00     0.137 C 
HETATM   10  N3  UNL     1      25.609   0.175  54.043  1.00  0.00    -0.248 NA
HETATM   11  N4  UNL     1      25.856   3.211  50.793  1.00  0.00    -0.289 N 
ENDROOT
BRANCH   1  12
HETATM   12  S1  UNL     1      28.159   0.175  53.884  1.00  0.00     0.195 S 
HETATM   13  O1  UNL     1      29.033   1.369  53.820  1.00  0.00    -0.221 OA
HETATM   14  O2  UNL     1      27.880  -0.174  55.339  1.00  0.00    -0.221 OA
BRANCH  12  15
HETATM   15  C1  UNL     1      29.072  -1.189  53.198  1.00  0.00     0.173 C 
BRANCH  15  16
HETATM   16  C2  UNL     1      28.142  -2.369  52.904  1.00  0.00     0.179 C 
BRANCH  16  17
HETATM   17  O3  UNL     1      28.653  -3.542  53.445  1.00  0.00    -0.400 OA
HETATM   18  H5  UNL     1      27.868  -4.061  53.755  1.00  0.00     0.209 HD
ENDBRANCH  16  17
ENDBRANCH  15  16
ENDBRANCH  12  15
ENDBRANCH   1  12
BRANCH  11  19
HETATM   19  C10 UNL     1      26.251   4.290  49.952  1.00  0.00     0.055 A 
HETATM   20  C11 UNL     1      25.570   5.429  49.982  1.00  0.00     0.019 A 
HETATM   21 BR1  UNL     1      24.062   6.142  50.906  1.00  0.00    -0.053 Br
HETATM   22  C12 UNL     1      26.166   6.416  49.017  1.00  0.00     0.076 A 
HETATM   23  C13 UNL     1      27.282   5.618  48.461  1.00  0.00    -0.019 A 
HETATM   24  C14 UNL     1      27.336   4.401  48.992  1.00  0.00     0.027 A 
ENDBRANCH  11  19
TORSDOF 5
ENDMDL
MODEL 2
REMARK VINA RESULT:      -8.2      1.085      1.914
REMARK  5 active torsions:
REMARK  status: ('A' for Active; 'I' for Inactive)
REMARK    1  A    between atoms: S1_2  and  C1_4 
REMARK    2  A    between atoms: S1_2  and  C3_7 
REMARK    3  A    between atoms: C1_4  and  C2_5 
REMARK    4  A    between atoms: C2_5  and  O3_6 
REMARK    5  A    between atoms: N4_17  and  C10_18 
ROOT
HETATM    1  C3  UNL     1      26.103   0.268  53.138  1.00  0.00     0.153 C 
HETATM    2  C4  UNL     1      26.126   0.623  51.803  1.00  0.00     0.077 C 
HETATM    3  C5  UNL     1      25.758   1.893  51.409  1.00  0.00     0.091 A 
HETATM    4  C6  UNL     1      24.650   2.584  51.776  1.00  0.00     0.164 A 
HETATM    5  N1  UNL     1      23.786   2.016  52.609  1.00  0.00    -0.222 NA
HETATM    6  C7  UNL     1      22.646   1.509  52.174  1.00  0.00     0.235 C 
HETATM    7  N2  UNL     1      22.163   0.643  53.045  1.00  0.00    -0.253 NA
HETATM    8  C8  UNL     1      22.863  -0.201  53.820  1.00  0.00     0.137 C 
HETATM    9  C9  UNL     1      24.147  -0.748  53.705  1.00  0.00     0.137 C 
HETATM   10  N3  UNL     1      25.119   0.142  54.062  1.00  0.00    -0.248 NA
HETATM   11  N4  UNL     1      25.593   3.207  50.865  1.00  0.00    -0.289 N 
ENDROOT
BRANCH   1  12
HETATM   12  S1  UNL     1      27.652  -0.112  53.835  1.00  0.00     0.195 S 
HETATM   13  O1  UNL     1      27.688  -0.059  55.315  1.00  0.00    -0.221 OA
HETATM   14  O2  UNL     1      27.979  -1.523  53.369  1.00  0.00    -0.221 OA
BRANCH  12  15
HETATM   15  C1  UNL     1      28.953   0.940  53.234  1.00  0.00     0.173 C 
BRANCH  15  16
HETATM   16  C2  UNL     1      29.045   2.219  54.071  1.00  0.00     0.179 C 
BRANCH  16  17
HETATM   17  O3  UNL     1      27.795   2.815  54.192  1.00  0.00    -0.400 OA
HETATM   18  H5  UNL     1      27.959   3.792  54.168  1.00  0.00     0.209 HD
ENDBRANCH  16  17
ENDBRANCH  15  16
ENDBRANCH  12  15
ENDBRANCH   1  12
BRANCH  11  19
HETATM   19  C10 UNL     1      26.076   4.259  50.034  1.00  0.00     0.055 A 
HETATM   20  C11 UNL     1      25.490   5.449  50.076  1.00  0.00     0.019 A 
HETATM   21 BR1  UNL     1      24.044   6.273  51.008  1.00  0.00    -0.053 Br
HETATM   22  C12 UNL     1      26.164   6.394  49.122  1.00  0.00     0.076 A 
HETATM   23  C13 UNL     1      27.212   5.514  48.556  1.00  0.00    -0.019 A 
HETATM   24  C14 UNL     1      27.167   4.291  49.075  1.00  0.00     0.027 A 
ENDBRANCH  11  19
TORSDOF 5
ENDMDL
MODEL 3
REMARK VINA RESULT:      -8.1      2.836      5.469
REMARK  5 active torsions:
REMARK  status: ('A' for Active; 'I' for Inactive)
REMARK    1  A    between atoms: S1_2  and  C1_4 
REMARK    2  A    between atoms: S1_2  and  C3_7 
REMARK    3  A    between atoms: C1_4  and  C2_5 
REMARK    4  A    between atoms: C2_5  and  O3_6 
REMARK    5  A    between atoms: N4_17  and  C10_18 
ROOT
HETATM    1  C3  UNL     1      25.737   0.753  52.836  1.00  0.00     0.153 C 
HETATM    2  C4  UNL     1      24.534   1.198  53.351  1.00  0.00     0.077 C 
HETATM    3  C5  UNL     1      23.368   1.063  52.625  1.00  0.00     0.091 A 
HETATM    4  C6  UNL     1      23.160   1.395  51.327  1.00  0.00     0.164 A 
HETATM    5  N1  UNL     1      24.162   1.914  50.628  1.00  0.00    -0.222 NA
HETATM    6  C7  UNL     1      24.219   3.209  50.370  1.00  0.00     0.235 C 
HETATM    7  N2  UNL     1      25.453   3.566  50.065  1.00  0.00    -0.253 NA
HETATM    8  C8  UNL     1      26.589   3.073  50.584  1.00  0.00     0.137 C 
HETATM    9  C9  UNL     1      26.875   2.424  51.792  1.00  0.00     0.137 C 
HETATM   10  N3  UNL     1      26.496   1.112  51.773  1.00  0.00    -0.248 NA
HETATM   11  N4  UNL     1      22.062   0.827  52.089  1.00  0.00    -0.289 N 
ENDROOT
BRANCH   1  12
HETATM   12  S1  UNL     1      26.483  -0.555  53.709  1.00  0.00     0.195 S 
HETATM   13  O1  UNL     1      27.624  -0.151  54.561  1.00  0.00    -0.221 OA
HETATM   14  O2  UNL     1      25.384  -1.150  54.578  1.00  0.00    -0.221 OA
BRANCH  12  15
HETATM   15  C1  UNL     1      27.052  -1.858  52.641  1.00  0.00     0.173 C 
BRANCH  15  16
HETATM   16  C2  UNL     1      28.502  -2.228  52.965  1.00  0.00     0.179 C 
BRANCH  16  17
HETATM   17  O3  UNL     1      28.589  -3.553  53.376  1.00  0.00    -0.400 OA
HETATM   18  H5  UNL     1      29.492  -3.860  53.105  1.00  0.00     0.209 HD
ENDBRANCH  16  17
ENDBRANCH  15  16
ENDBRANCH  12  15
ENDBRANCH   1  12
BRANCH  11  19
HETATM   19  C10 UNL     1      20.727   0.364  52.271  1.00  0.00     0.055 A 
HETATM   20  C11 UNL     1      20.460  -0.502  53.240  1.00  0.00     0.019 A 
HETATM   21 BR1  UNL     1      21.417  -1.416  54.613  1.00  0.00    -0.053 Br
HETATM   22  C12 UNL     1      18.997  -0.845  53.242  1.00  0.00     0.076 A 
HETATM   23  C13 UNL     1      18.519  -0.019  52.110  1.00  0.00    -0.019 A 
HETATM   24  C14 UNL     1      19.504   0.675  51.550  1.00  0.00     0.027 A 
ENDBRANCH  11  19
TORSDOF 5
ENDMDL
MODEL 4
REMARK VINA RESULT:      -8.0      4.102      6.163
REMARK  5 active torsions:
REMARK  status: ('A' for Active; 'I' for Inactive)
REMARK    1  A    between atoms: S1_2  and  C1_4 
REMARK    2  A    between atoms: S1_2  and  C3_7 
REMARK    3  A    between atoms: C1_4  and  C2_5 
REMARK    4  A    between atoms: C2_5  and  O3_6 
REMARK    5  A    between atoms: N4_17  and  C10_18 
ROOT
HETATM    1  C3  UNL     1      23.286   1.845  52.137  1.00  0.00     0.153 C 
HETATM    2  C4  UNL     1      24.349   1.867  53.018  1.00  0.00     0.077 C 
HETATM    3  C5  UNL     1      25.151   0.756  53.177  1.00  0.00     0.091 A 
HETATM    4  C6  UNL     1      24.757  -0.526  53.379  1.00  0.00     0.164 A 
HETATM    5  N1  UNL     1      23.459  -0.797  53.438  1.00  0.00    -0.222 NA
HETATM    6  C7  UNL     1      22.857  -1.018  54.594  1.00  0.00     0.235 C 
HETATM    7  N2  UNL     1      21.554  -0.836  54.479  1.00  0.00    -0.253 NA
HETATM    8  C8  UNL     1      20.929   0.074  53.715  1.00  0.00     0.137 C 
HETATM    9  C9  UNL     1      21.338   1.303  53.180  1.00  0.00     0.137 C 
HETATM   10  N3  UNL     1      22.127   1.145  52.076  1.00  0.00    -0.248 NA
HETATM   11  N4  UNL     1      26.178  -0.233  53.314  1.00  0.00    -0.289 N 
ENDROOT
BRANCH   1  12
HETATM   12  S1  UNL     1      23.413   2.938  50.788  1.00  0.00     0.195 S 
HETATM   13  O1  UNL     1      24.785   3.427  50.522  1.00  0.00    -0.221 OA
HETATM   14  O2  UNL     1      22.905   2.163  49.580  1.00  0.00    -0.221 OA
BRANCH  12  15
HETATM   15  C1  UNL     1      22.364   4.364  50.957  1.00  0.00     0.173 C 
BRANCH  15  16
HETATM   16  C2  UNL     1      22.525   4.993  52.344  1.00  0.00     0.179 C 
BRANCH  16  17
HETATM   17  O3  UNL     1      23.806   5.510  52.501  1.00  0.00    -0.400 OA
HETATM   18  H5  UNL     1      24.357   4.763  52.849  1.00  0.00     0.209 HD
ENDBRANCH  16  17
ENDBRANCH  15  16
ENDBRANCH  12  15
ENDBRANCH   1  12
BRANCH  11  19
HETATM   19  C10 UNL     1      27.563  -0.565  53.346  1.00  0.00     0.055 A 
HETATM   20  C11 UNL     1      28.465   0.397  53.487  1.00  0.00     0.019 A 
HETATM   21 BR1  UNL     1      28.480   2.294  53.682  1.00  0.00    -0.053 Br
HETATM   22  C12 UNL     1      29.850  -0.187  53.493  1.00  0.00     0.076 A 
HETATM   23  C13 UNL     1      29.543  -1.626  53.330  1.00  0.00    -0.019 A 
HETATM   24  C14 UNL     1      28.236  -1.849  53.245  1.00  0.00     0.027 A 
ENDBRANCH  11  19
TORSDOF 5
ENDMDL
MODEL 5
REMARK VINA RESULT:      -7.7      1.906      2.483
REMARK  5 active torsions:
REMARK  status: ('A' for Active; 'I' for Inactive)
REMARK    1  A    between atoms: S1_2  and  C1_4 
REMARK    2  A    between atoms: S1_2  and  C3_7 
REMARK    3  A    between atoms: C1_4  and  C2_5 
REMARK    4  A    between atoms: C2_5  and  O3_6 
REMARK    5  A    between atoms: N4_17  and  C10_18 
ROOT
HETATM    1  C3  UNL     1      24.525   0.554  53.108  1.00  0.00     0.153 C 
HETATM    2  C4  UNL     1      24.690   1.211  51.905  1.00  0.00     0.077 C 
HETATM    3  C5  UNL     1      24.197   2.488  51.730  1.00  0.00     0.091 A 
HETATM    4  C6  UNL     1      22.956   2.944  52.034  1.00  0.00     0.164 A 
HETATM    5  N1  UNL     1      22.075   2.104  52.563  1.00  0.00    -0.222 NA
HETATM    6  C7  UNL     1      21.100   1.586  51.837  1.00  0.00     0.235 C 
HETATM    7  N2  UNL     1      20.629   0.492  52.406  1.00  0.00    -0.253 NA
HETATM    8  C8  UNL     1      21.327  -0.425  53.096  1.00  0.00     0.137 C 
HETATM    9  C9  UNL     1      22.682  -0.781  53.095  1.00  0.00     0.137 C 
HETATM   10  N3  UNL     1      23.448   0.105  53.797  1.00  0.00    -0.248 NA
HETATM   11  N4  UNL     1      23.918   3.866  51.456  1.00  0.00    -0.289 N 
ENDROOT
BRANCH   1  12
HETATM   12  S1  UNL     1      25.995   0.199  53.970  1.00  0.00     0.195 S 
HETATM   13  O1  UNL     1      26.574   1.353  54.696  1.00  0.00    -0.221 OA
HETATM   14  O2  UNL     1      25.637  -0.898  54.963  1.00  0.00    -0.221 OA
BRANCH  12  15
HETATM   15  C1  UNL     1      27.268  -0.461  52.918  1.00  0.00     0.173 C 
BRANCH  15  16
HETATM   16  C2  UNL     1      28.654  -0.200  53.517  1.00  0.00     0.179 C 
BRANCH  16  17
HETATM   17  O3  UNL     1      28.656  -0.469  54.880  1.00  0.00    -0.400 OA
HETATM   18  H5  UNL     1      27.955   0.113  55.270  1.00  0.00     0.209 HD
ENDBRANCH  16  17
ENDBRANCH  15  16
ENDBRANCH  12  15
ENDBRANCH   1  12
BRANCH  11  19
HETATM   19  C10 UNL     1      24.354   5.130  50.966  1.00  0.00     0.055 A 
HETATM   20  C11 UNL     1      25.417   5.196  50.175  1.00  0.00     0.019 A 
HETATM   21 BR1  UNL     1      26.678   3.988  49.409  1.00  0.00    -0.053 Br
HETATM   22  C12 UNL     1      25.687   6.623  49.786  1.00  0.00     0.076 A 
HETATM   23  C13 UNL     1      24.591   7.316  50.500  1.00  0.00    -0.019 A 
HETATM   24  C14 UNL     1      23.824   6.467  51.177  1.00  0.00     0.027 A 
ENDBRANCH  11  19
TORSDOF 5
ENDMDL
MODEL 6
REMARK VINA RESULT:      -7.5      2.677      5.545
REMARK  5 active torsions:
REMARK  status: ('A' for Active; 'I' for Inactive)
REMARK    1  A    between atoms: S1_2  and  C1_4 
REMARK    2  A    between atoms: S1_2  and  C3_7 
REMARK    3  A    between atoms: C1_4  and  C2_5 
REMARK    4  A    between atoms: C2_5  and  O3_6 
REMARK    5  A    between atoms: N4_17  and  C10_18 
ROOT
HETATM    1  C3  UNL     1      25.688   0.802  52.869  1.00  0.00     0.153 C 
HETATM    2  C4  UNL     1      24.478   1.203  53.402  1.00  0.00     0.077 C 
HETATM    3  C5  UNL     1      23.304   1.002  52.706  1.00  0.00     0.091 A 
HETATM    4  C6  UNL     1      23.052   1.297  51.407  1.00  0.00     0.164 A 
HETATM    5  N1  UNL     1      24.015   1.846  50.675  1.00  0.00    -0.222 NA
HETATM    6  C7  UNL     1      24.008   3.136  50.390  1.00  0.00     0.235 C 
HETATM    7  N2  UNL     1      25.217   3.541  50.049  1.00  0.00    -0.253 NA
HETATM    8  C8  UNL     1      26.386   3.110  50.552  1.00  0.00     0.137 C 
HETATM    9  C9  UNL     1      26.727   2.499  51.766  1.00  0.00     0.137 C 
HETATM   10  N3  UNL     1      26.407   1.172  51.781  1.00  0.00    -0.248 NA
HETATM   11  N4  UNL     1      21.998   0.697  52.205  1.00  0.00    -0.289 N 
ENDROOT
BRANCH   1  12
HETATM   12  S1  UNL     1      26.511  -0.453  53.750  1.00  0.00     0.195 S 
HETATM   13  O1  UNL     1      25.678  -1.137  54.766  1.00  0.00    -0.221 OA
HETATM   14  O2  UNL     1      26.967  -1.460  52.705  1.00  0.00    -0.221 OA
BRANCH  12  15
HETATM   15  C1  UNL     1      27.977   0.131  54.571  1.00  0.00     0.173 C 
BRANCH  15  16
HETATM   16  C2  UNL     1      29.234  -0.383  53.863  1.00  0.00     0.179 C 
BRANCH  16  17
HETATM   17  O3  UNL     1      30.026   0.678  53.441  1.00  0.00    -0.400 OA
HETATM   18  H5  UNL     1      29.492   1.158  52.758  1.00  0.00     0.209 HD
ENDBRANCH  16  17
ENDBRANCH  15  16
ENDBRANCH  12  15
ENDBRANCH   1  12
BRANCH  11  19
HETATM   19  C10 UNL     1      20.690   0.179  52.427  1.00  0.00     0.055 A 
HETATM   20  C11 UNL     1      19.732   0.414  51.539  1.00  0.00     0.019 A 
HETATM   21 BR1  UNL     1      19.549   1.329  49.876  1.00  0.00    -0.053 Br
HETATM   22  C12 UNL     1      18.446  -0.226  51.982  1.00  0.00     0.076 A 
HETATM   23  C13 UNL     1      18.870  -0.844  53.258  1.00  0.00    -0.019 A 
HETATM   24  C14 UNL     1      20.153  -0.616  53.519  1.00  0.00     0.027 A 
ENDBRANCH  11  19
TORSDOF 5
ENDMDL
MODEL 7
REMARK VINA RESULT:      -7.3      3.507      4.778
REMARK  5 active torsions:
REMARK  status: ('A' for Active; 'I' for Inactive)
REMARK    1  A    between atoms: S1_2  and  C1_4 
REMARK    2  A    between atoms: S1_2  and  C3_7 
REMARK    3  A    between atoms: C1_4  and  C2_5 
REMARK    4  A    between atoms: C2_5  and  O3_6 
REMARK    5  A    between atoms: N4_17  and  C10_18 
ROOT
HETATM    1  C3  UNL     1      24.093   0.439  53.455  1.00  0.00     0.153 C 
HETATM    2  C4  UNL     1      23.864   1.763  53.136  1.00  0.00     0.077 C 
HETATM    3  C5  UNL     1      24.208   2.255  51.893  1.00  0.00     0.091 A 
HETATM    4  C6  UNL     1      25.386   2.096  51.239  1.00  0.00     0.164 A 
HETATM    5  N1  UNL     1      26.353   1.396  51.819  1.00  0.00    -0.222 NA
HETATM    6  C7  UNL     1      27.387   1.993  52.384  1.00  0.00     0.235 C 
HETATM    7  N2  UNL     1      27.976   1.184  53.245  1.00  0.00    -0.253 NA
HETATM    8  C8  UNL     1      27.382   0.277  54.038  1.00  0.00     0.137 C 
HETATM    9  C9  UNL     1      26.077   0.164  54.535  1.00  0.00     0.137 C 
HETATM   10  N3  UNL     1      25.210  -0.317  53.596  1.00  0.00    -0.248 NA
HETATM   11  N4  UNL     1      24.329   2.862  50.602  1.00  0.00    -0.289 N 
ENDROOT
BRANCH   1  12
HETATM   12  S1  UNL     1      22.667  -0.514  53.752  1.00  0.00     0.195 S 
HETATM   13  O1  UNL     1      22.470  -1.635  52.805  1.00  0.00    -0.221 OA
HETATM   14  O2  UNL     1      22.823  -1.061  55.163  1.00  0.00    -0.221 OA
BRANCH  12  15
HETATM   15  C1  UNL     1      21.177   0.457  53.742  1.00  0.00     0.173 C 
BRANCH  15  16
HETATM   16  C2  UNL     1      19.947  -0.441  53.582  1.00  0.00     0.179 C 
BRANCH  16  17
HETATM   17  O3  UNL     1      20.098  -1.613  54.315  1.00  0.00    -0.400 OA
HETATM   18  H5  UNL     1      19.700  -1.428  55.203  1.00  0.00     0.209 HD
ENDBRANCH  16  17
ENDBRANCH  15  16
ENDBRANCH  12  15
ENDBRANCH   1  12
BRANCH  11  19
HETATM   19  C10 UNL     1      23.755   3.638  49.554  1.00  0.00     0.055 A 
HETATM   20  C11 UNL     1      22.768   3.130  48.828  1.00  0.00     0.019 A 
HETATM   21 BR1  UNL     1      21.773   1.505  48.747  1.00  0.00    -0.053 Br
HETATM   22  C12 UNL     1      22.325   4.121  47.789  1.00  0.00     0.076 A 
HETATM   23  C13 UNL     1      23.240   5.250  48.076  1.00  0.00    -0.019 A 
HETATM   24  C14 UNL     1      24.061   4.979  49.085  1.00  0.00     0.027 A 
ENDBRANCH  11  19
TORSDOF 5
ENDMDL
MODEL 8
REMARK VINA RESULT:      -7.3      4.372      6.235
REMARK  5 active torsions:
REMARK  status: ('A' for Active; 'I' for Inactive)
REMARK    1  A    between atoms: S1_2  and  C1_4 
REMARK    2  A    between atoms: S1_2  and  C3_7 
REMARK    3  A    between atoms: C1_4  and  C2_5 
REMARK    4  A    between atoms: C2_5  and  O3_6 
REMARK    5  A    between atoms: N4_17  and  C10_18 
ROOT
HETATM    1  C3  UNL     1      21.819   1.015  51.845  1.00  0.00     0.153 C 
HETATM    2  C4  UNL     1      22.683   1.618  52.739  1.00  0.00     0.077 C 
HETATM    3  C5  UNL     1      23.806   0.952  53.185  1.00  0.00     0.091 A 
HETATM    4  C6  UNL     1      23.880  -0.315  53.664  1.00  0.00     0.164 A 
HETATM    5  N1  UNL     1      22.771  -1.041  53.733  1.00  0.00    -0.222 NA
HETATM    6  C7  UNL     1      22.150  -1.237  54.883  1.00  0.00     0.235 C 
HETATM    7  N2  UNL     1      20.896  -1.591  54.678  1.00  0.00    -0.253 NA
HETATM    8  C8  UNL     1      20.084  -1.162  53.698  1.00  0.00     0.137 C 
HETATM    9  C9  UNL     1      20.085  -0.005  52.907  1.00  0.00     0.137 C 
HETATM   10  N3  UNL     1      21.009  -0.069  51.903  1.00  0.00    -0.248 NA
HETATM   11  N4  UNL     1      25.095   0.477  53.590  1.00  0.00    -0.289 N 
ENDROOT
BRANCH   1  12
HETATM   12  S1  UNL     1      21.710   1.779  50.284  1.00  0.00     0.195 S 
HETATM   13  O1  UNL     1      21.567   0.838  49.150  1.00  0.00    -0.221 OA
HETATM   14  O2  UNL     1      20.488   2.683  50.352  1.00  0.00    -0.221 OA
BRANCH  12  15
HETATM   15  C1  UNL     1      23.102   2.827  49.932  1.00  0.00     0.173 C 
BRANCH  15  16
HETATM   16  C2  UNL     1      22.676   4.298  49.892  1.00  0.00     0.179 C 
BRANCH  16  17
HETATM   17  O3  UNL     1      22.351   4.748  51.167  1.00  0.00    -0.400 OA
HETATM   18  H5  UNL     1      22.798   4.125  51.794  1.00  0.00     0.209 HD
ENDBRANCH  16  17
ENDBRANCH  15  16
ENDBRANCH  12  15
ENDBRANCH   1  12
BRANCH  11  19
HETATM   19  C10 UNL     1      26.491   0.710  53.754  1.00  0.00     0.055 A 
HETATM   20  C11 UNL     1      27.134   1.478  52.885  1.00  0.00     0.019 A 
HETATM   21 BR1  UNL     1      26.720   2.476  51.313  1.00  0.00    -0.053 Br
HETATM   22  C12 UNL     1      28.587   1.580  53.257  1.00  0.00     0.076 A 
HETATM   23  C13 UNL     1      28.619   0.736  54.473  1.00  0.00    -0.019 A 
HETATM   24  C14 UNL     1      27.423   0.235  54.763  1.00  0.00     0.027 A 
ENDBRANCH  11  19
TORSDOF 5
ENDMDL
MODEL 9
REMARK VINA RESULT:      -7.2      3.582      4.744
REMARK  5 active torsions:
REMARK  status: ('A' for Active; 'I' for Inactive)
REMARK    1  A    between atoms: S1_2  and  C1_4 
REMARK    2  A    between atoms: S1_2  and  C3_7 
REMARK    3  A    between atoms: C1_4  and  C2_5 
REMARK    4  A    between atoms: C2_5  and  O3_6 
REMARK    5  A    between atoms: N4_17  and  C10_18 
ROOT
HETATM    1  C3  UNL     1      22.854   1.401  52.599  1.00  0.00     0.153 C 
HETATM    2  C4  UNL     1      23.568   2.580  52.694  1.00  0.00     0.077 C 
HETATM    3  C5  UNL     1      24.596   2.850  51.815  1.00  0.00     0.091 A 
HETATM    4  C6  UNL     1      25.617   2.031  51.461  1.00  0.00     0.164 A 
HETATM    5  N1  UNL     1      25.682   0.818  51.995  1.00  0.00    -0.222 NA
HETATM    6  C7  UNL     1      26.533   0.540  52.967  1.00  0.00     0.235 C 
HETATM    7  N2  UNL     1      26.150  -0.537  53.625  1.00  0.00    -0.253 NA
HETATM    8  C8  UNL     1      24.889  -0.914  53.895  1.00  0.00     0.137 C 
HETATM    9  C9  UNL     1      23.686  -0.202  53.983  1.00  0.00     0.137 C 
HETATM   10  N3  UNL     1      23.171   0.093  52.753  1.00  0.00    -0.248 NA
HETATM   11  N4  UNL     1      25.549   3.358  50.875  1.00  0.00    -0.289 N 
ENDROOT
BRANCH   1  12
HETATM   12  S1  UNL     1      21.170   1.580  52.195  1.00  0.00     0.195 S 
HETATM   13  O1  UNL     1      20.392   2.397  53.154  1.00  0.00    -0.221 OA
HETATM   14  O2  UNL     1      21.143   2.241  50.824  1.00  0.00    -0.221 OA
BRANCH  12  15
HETATM   15  C1  UNL     1      20.334   0.020  52.025  1.00  0.00     0.173 C 
BRANCH  15  16
HETATM   16  C2  UNL     1      19.534  -0.306  53.290  1.00  0.00     0.179 C 
BRANCH  16  17
HETATM   17  O3  UNL     1      20.309  -0.100  54.425  1.00  0.00    -0.400 OA
HETATM   18  H5  UNL     1      21.192  -0.504  54.225  1.00  0.00     0.209 HD
ENDBRANCH  16  17
ENDBRANCH  15  16
ENDBRANCH  12  15
ENDBRANCH   1  12
BRANCH  11  19
HETATM   19  C10 UNL     1      26.000   4.420  50.039  1.00  0.00     0.055 A 
HETATM   20  C11 UNL     1      25.402   5.602  50.100  1.00  0.00     0.019 A 
HETATM   21 BR1  UNL     1      23.969   6.405  51.069  1.00  0.00    -0.053 Br
HETATM   22  C12 UNL     1      26.042   6.559  49.134  1.00  0.00     0.076 A 
HETATM   23  C13 UNL     1      27.087   5.694  48.540  1.00  0.00    -0.019 A 
HETATM   24  C14 UNL     1      27.068   4.468  49.054  1.00  0.00     0.027 A 
ENDBRANCH  11  19
TORSDOF 5
ENDMDL
