MODEL 1
REMARK VINA RESULT:      -7.3      0.000      0.000
REMARK  6 active torsions:
REMARK  status: ('A' for Active; 'I' for Inactive)
REMARK    1  A    between atoms: C1_2  and  C2_3 
REMARK    2  A    between atoms: C5_7  and  C6_8 
REMARK    3  A    between atoms: C11_13  and  C12_14 
REMARK    4  A    between atoms: C12_14  and  C13_15 
REMARK    5  A    between atoms: C13_15  and  C14_16 
REMARK    6  A    between atoms: C14_16  and  C15_17 
ROOT
HETATM    1  C6  UNL     1      23.015   0.781  52.942  1.00  0.00    -0.044 A 
HETATM    2  C7  UNL     1      21.705   1.042  53.282  1.00  0.00     0.008 A 
HETATM    3  C8  UNL     1      21.063   0.241  54.202  1.00  0.00     0.001 A 
HETATM    4  C9  UNL     1      21.764  -0.807  54.758  1.00  0.00     0.001 A 
HETATM    5  C10 UNL     1      23.064  -1.031  54.393  1.00  0.00     0.008 A 
HETATM    6  C11 UNL     1      23.755  -0.246  53.466  1.00  0.00    -0.048 A 
ENDROOT
BRANCH   1   7
HETATM    7  C5  UNL     1      23.610   1.681  51.955  1.00  0.00     0.061 C 
HETATM    8  C4  UNL     1      22.650   2.059  50.876  1.00  0.00     0.179 C 
HETATM    9  O2  UNL     1      23.277   2.287  49.650  1.00  0.00    -0.384 OA
HETATM   10  C3  UNL     1      23.747   3.615  49.569  1.00  0.00     0.228 C 
HETATM   11  C2  UNL     1      24.990   3.686  50.390  1.00  0.00     0.084 C 
HETATM   12  N1  UNL     1      25.189   3.433  51.797  1.00  0.00    -0.387 N 
HETATM   13  C16 UNL     1      24.164   2.892  52.684  1.00  0.00     0.131 C 
HETATM   14  H18 UNL     1      26.117   3.642  52.225  1.00  0.00     0.159 HD
BRANCH  11  15
HETATM   15  C1  UNL     1      26.089   4.032  49.753  1.00  0.00     0.247 C 
HETATM   16  O1  UNL     1      27.251   3.903  49.295  1.00  0.00    -0.282 OA
ENDBRANCH  11  15
ENDBRANCH   1   7
BRANCH   6  17
HETATM   17  C12 UNL     1      25.142  -0.566  53.146  1.00  0.00     0.066 C 
BRANCH  17  18
HETATM   18  C13 UNL     1      26.072  -0.146  54.220  1.00  0.00    -0.025 C 
BRANCH  18  19
HETATM   19  C14 UNL     1      27.160   0.261  54.846  1.00  0.00    -0.020 C 
BRANCH  19  20
HETATM   20  C15 UNL     1      28.637   0.243  54.837  1.00  0.00     0.112 C 
HETATM   21 BR1  UNL     1      29.201  -1.035  53.501  1.00  0.00    -0.092 Br
ENDBRANCH  19  20
ENDBRANCH  18  19
ENDBRANCH  17  18
ENDBRANCH   6  17
TORSDOF 6
ENDMDL
MODEL 2
REMARK VINA RESULT:      -6.9      3.740      6.197
REMARK  6 active torsions:
REMARK  status: ('A' for Active; 'I' for Inactive)
REMARK    1  A    between atoms: C1_2  and  C2_3 
REMARK    2  A    between atoms: C5_7  and  C6_8 
REMARK    3  A    between atoms: C11_13  and  C12_14 
REMARK    4  A    between atoms: C12_14  and  C13_15 
REMARK    5  A    between atoms: C13_15  and  C14_16 
REMARK    6  A    between atoms: C14_16  and  C15_17 
ROOT
HETATM    1  C6  UNL     1      25.442   2.464  52.146  1.00  0.00    -0.044 A 
HETATM    2  C7  UNL     1      24.420   2.673  53.048  1.00  0.00     0.008 A 
HETATM    3  C8  UNL     1      23.362   3.489  52.709  1.00  0.00     0.001 A 
HETATM    4  C9  UNL     1      23.362   4.076  51.462  1.00  0.00     0.001 A 
HETATM    5  C10 UNL     1      24.396   3.843  50.597  1.00  0.00     0.008 A 
HETATM    6  C11 UNL     1      25.488   3.023  50.896  1.00  0.00    -0.048 A 
ENDROOT
BRANCH   1   7
HETATM    7  C5  UNL     1      26.522   1.588  52.595  1.00  0.00     0.061 C 
HETATM    8  C4  UNL     1      27.649   2.345  53.217  1.00  0.00     0.179 C 
HETATM    9  O2  UNL     1      28.886   1.730  53.021  1.00  0.00    -0.384 OA
HETATM   10  C3  UNL     1      29.120   0.752  54.011  1.00  0.00     0.228 C 
HETATM   11  C2  UNL     1      28.299  -0.439  53.646  1.00  0.00     0.084 C 
HETATM   12  N1  UNL     1      26.870  -0.570  53.493  1.00  0.00    -0.387 N 
HETATM   13  C16 UNL     1      25.936   0.551  53.536  1.00  0.00     0.131 C 
HETATM   14  H18 UNL     1      26.460  -1.517  53.341  1.00  0.00     0.159 HD
BRANCH  11  15
HETATM   15  C1  UNL     1      28.961  -1.556  53.425  1.00  0.00     0.247 C 
HETATM   16  O1  UNL     1      29.152  -2.795  53.363  1.00  0.00    -0.282 OA
ENDBRANCH  11  15
ENDBRANCH   1   7
BRANCH   6  17
HETATM   17  C12 UNL     1      26.539   2.836  49.902  1.00  0.00     0.066 C 
BRANCH  17  18
HETATM   18  C13 UNL     1      26.968   4.117  49.295  1.00  0.00    -0.025 C 
BRANCH  18  19
HETATM   19  C14 UNL     1      27.625   5.000  48.567  1.00  0.00    -0.020 C 
BRANCH  19  20
HETATM   20  C15 UNL     1      28.956   5.560  48.258  1.00  0.00     0.112 C 
HETATM   21 BR1  UNL     1      28.707   7.395  47.703  1.00  0.00    -0.092 Br
ENDBRANCH  19  20
ENDBRANCH  18  19
ENDBRANCH  17  18
ENDBRANCH   6  17
TORSDOF 6
ENDMDL
MODEL 3
REMARK VINA RESULT:      -6.7      3.256      5.236
REMARK  6 active torsions:
REMARK  status: ('A' for Active; 'I' for Inactive)
REMARK    1  A    between atoms: C1_2  and  C2_3 
REMARK    2  A    between atoms: C5_7  and  C6_8 
REMARK    3  A    between atoms: C11_13  and  C12_14 
REMARK    4  A    between atoms: C12_14  and  C13_15 
REMARK    5  A    between atoms: C13_15  and  C14_16 
REMARK    6  A    between atoms: C14_16  and  C15_17 
ROOT
HETATM    1  C6  UNL     1      23.733   0.521  53.202  1.00  0.00    -0.044 A 
HETATM    2  C7  UNL     1      23.191  -0.739  53.339  1.00  0.00     0.008 A 
HETATM    3  C8  UNL     1      21.865  -0.952  53.026  1.00  0.00     0.001 A 
HETATM    4  C9  UNL     1      21.118   0.117  52.581  1.00  0.00     0.001 A 
HETATM    5  C10 UNL     1      21.696   1.351  52.460  1.00  0.00     0.008 A 
HETATM    6  C11 UNL     1      23.034   1.615  52.764  1.00  0.00    -0.048 A 
ENDROOT
BRANCH   1   7
HETATM    7  C5  UNL     1      25.144   0.651  53.562  1.00  0.00     0.061 C 
HETATM    8  C4  UNL     1      25.623  -0.481  54.409  1.00  0.00     0.179 C 
HETATM    9  O2  UNL     1      26.628  -0.102  55.300  1.00  0.00    -0.384 OA
HETATM   10  C3  UNL     1      27.894  -0.154  54.677  1.00  0.00     0.228 C 
HETATM   11  C2  UNL     1      27.999   1.053  53.807  1.00  0.00     0.084 C 
HETATM   12  N1  UNL     1      27.184   1.466  52.690  1.00  0.00    -0.387 N 
HETATM   13  C16 UNL     1      25.951   0.797  52.285  1.00  0.00     0.131 C 
HETATM   14  H18 UNL     1      27.477   2.292  52.125  1.00  0.00     0.159 HD
BRANCH  11  15
HETATM   15  C1  UNL     1      28.982   1.885  54.083  1.00  0.00     0.247 C 
HETATM   16  O1  UNL     1      29.817   2.496  54.794  1.00  0.00    -0.282 OA
ENDBRANCH  11  15
ENDBRANCH   1   7
BRANCH   6  17
HETATM   17  C12 UNL     1      23.556   2.967  52.598  1.00  0.00     0.066 C 
BRANCH  17  18
HETATM   18  C13 UNL     1      23.501   3.416  51.188  1.00  0.00    -0.025 C 
BRANCH  18  19
HETATM   19  C14 UNL     1      23.060   3.669  49.970  1.00  0.00    -0.020 C 
BRANCH  19  20
HETATM   20  C15 UNL     1      22.931   3.139  48.597  1.00  0.00     0.112 C 
HETATM   21 BR1  UNL     1      21.718   1.635  48.660  1.00  0.00    -0.092 Br
ENDBRANCH  19  20
ENDBRANCH  18  19
ENDBRANCH  17  18
ENDBRANCH   6  17
TORSDOF 6
ENDMDL
MODEL 4
REMARK VINA RESULT:      -6.6      1.759      1.875
REMARK  6 active torsions:
REMARK  status: ('A' for Active; 'I' for Inactive)
REMARK    1  A    between atoms: C1_2  and  C2_3 
REMARK    2  A    between atoms: C5_7  and  C6_8 
REMARK    3  A    between atoms: C11_13  and  C12_14 
REMARK    4  A    between atoms: C12_14  and  C13_15 
REMARK    5  A    between atoms: C13_15  and  C14_16 
REMARK    6  A    between atoms: C14_16  and  C15_17 
ROOT
HETATM    1  C6  UNL     1      23.230   1.972  52.388  1.00  0.00    -0.044 A 
HETATM    2  C7  UNL     1      21.902   1.767  52.694  1.00  0.00     0.008 A 
HETATM    3  C8  UNL     1      21.516   0.606  53.327  1.00  0.00     0.001 A 
HETATM    4  C9  UNL     1      22.485  -0.324  53.638  1.00  0.00     0.001 A 
HETATM    5  C10 UNL     1      23.792  -0.081  53.317  1.00  0.00     0.008 A 
HETATM    6  C11 UNL     1      24.231   1.081  52.676  1.00  0.00    -0.048 A 
ENDROOT
BRANCH   1   7
HETATM    7  C5  UNL     1      23.544   3.230  51.712  1.00  0.00     0.061 C 
HETATM    8  C4  UNL     1      23.001   3.281  50.322  1.00  0.00     0.179 C 
HETATM    9  O2  UNL     1      23.792   4.042  49.461  1.00  0.00    -0.384 OA
HETATM   10  C3  UNL     1      23.450   5.409  49.545  1.00  0.00     0.228 C 
HETATM   11  C2  UNL     1      24.054   5.930  50.806  1.00  0.00     0.084 C 
HETATM   12  N1  UNL     1      23.835   5.529  52.175  1.00  0.00    -0.387 N 
HETATM   13  C16 UNL     1      23.036   4.373  52.571  1.00  0.00     0.131 C 
HETATM   14  H18 UNL     1      24.267   6.087  52.943  1.00  0.00     0.159 HD
BRANCH  11  15
HETATM   15  C1  UNL     1      24.925   6.909  50.673  1.00  0.00     0.247 C 
HETATM   16  O1  UNL     1      26.024   7.451  50.404  1.00  0.00    -0.282 OA
ENDBRANCH  11  15
ENDBRANCH   1   7
BRANCH   6  17
HETATM   17  C12 UNL     1      25.650   1.246  52.380  1.00  0.00     0.066 C 
BRANCH  17  18
HETATM   18  C13 UNL     1      26.505   0.442  53.282  1.00  0.00    -0.025 C 
BRANCH  18  19
HETATM   19  C14 UNL     1      27.369   0.111  54.223  1.00  0.00    -0.020 C 
BRANCH  19  20
HETATM   20  C15 UNL     1      28.763   0.258  54.689  1.00  0.00     0.112 C 
HETATM   21 BR1  UNL     1      29.868  -0.907  53.612  1.00  0.00    -0.092 Br
ENDBRANCH  19  20
ENDBRANCH  18  19
ENDBRANCH  17  18
ENDBRANCH   6  17
TORSDOF 6
ENDMDL
MODEL 5
REMARK VINA RESULT:      -6.5      2.110      2.263
REMARK  6 active torsions:
REMARK  status: ('A' for Active; 'I' for Inactive)
REMARK    1  A    between atoms: C1_2  and  C2_3 
REMARK    2  A    between atoms: C5_7  and  C6_8 
REMARK    3  A    between atoms: C11_13  and  C12_14 
REMARK    4  A    between atoms: C12_14  and  C13_15 
REMARK    5  A    between atoms: C13_15  and  C14_16 
REMARK    6  A    between atoms: C14_16  and  C15_17 
ROOT
HETATM    1  C6  UNL     1      22.623   0.299  52.778  1.00  0.00    -0.044 A 
HETATM    2  C7  UNL     1      21.474  -0.129  53.409  1.00  0.00     0.008 A 
HETATM    3  C8  UNL     1      21.565  -0.874  54.566  1.00  0.00     0.001 A 
HETATM    4  C9  UNL     1      22.818  -1.168  55.058  1.00  0.00     0.001 A 
HETATM    5  C10 UNL     1      23.932  -0.723  54.401  1.00  0.00     0.008 A 
HETATM    6  C11 UNL     1      23.890   0.034  53.227  1.00  0.00    -0.048 A 
ENDROOT
BRANCH   1   7
HETATM    7  C5  UNL     1      22.428   1.078  51.556  1.00  0.00     0.061 C 
HETATM    8  C4  UNL     1      21.334   0.530  50.700  1.00  0.00     0.179 C 
HETATM    9  O2  UNL     1      21.553   0.746  49.339  1.00  0.00    -0.384 OA
HETATM   10  C3  UNL     1      21.091   2.022  48.954  1.00  0.00     0.228 C 
HETATM   11  C2  UNL     1      22.101   3.011  49.429  1.00  0.00     0.084 C 
HETATM   12  N1  UNL     1      22.559   3.301  50.766  1.00  0.00    -0.387 N 
HETATM   13  C16 UNL     1      22.187   2.525  51.945  1.00  0.00     0.131 C 
HETATM   14  H18 UNL     1      23.197   4.112  50.921  1.00  0.00     0.159 HD
BRANCH  11  15
HETATM   15  C1  UNL     1      22.677   3.746  48.500  1.00  0.00     0.247 C 
HETATM   16  O1  UNL     1      22.868   4.750  47.771  1.00  0.00    -0.282 OA
ENDBRANCH  11  15
ENDBRANCH   1   7
BRANCH   6  17
HETATM   17  C12 UNL     1      25.137   0.463  52.603  1.00  0.00     0.066 C 
BRANCH  17  18
HETATM   18  C13 UNL     1      26.188  -0.576  52.686  1.00  0.00    -0.025 C 
BRANCH  18  19
HETATM   19  C14 UNL     1      27.363  -1.162  52.829  1.00  0.00    -0.020 C 
BRANCH  19  20
HETATM   20  C15 UNL     1      28.717  -1.028  53.403  1.00  0.00     0.112 C 
HETATM   21 BR1  UNL     1      29.021   0.847  53.763  1.00  0.00    -0.092 Br
ENDBRANCH  19  20
ENDBRANCH  18  19
ENDBRANCH  17  18
ENDBRANCH   6  17
TORSDOF 6
ENDMDL
MODEL 6
REMARK VINA RESULT:      -6.5      3.434      5.522
REMARK  6 active torsions:
REMARK  status: ('A' for Active; 'I' for Inactive)
REMARK    1  A    between atoms: C1_2  and  C2_3 
REMARK    2  A    between atoms: C5_7  and  C6_8 
REMARK    3  A    between atoms: C11_13  and  C12_14 
REMARK    4  A    between atoms: C12_14  and  C13_15 
REMARK    5  A    between atoms: C13_15  and  C14_16 
REMARK    6  A    between atoms: C14_16  and  C15_17 
ROOT
HETATM    1  C6  UNL     1      24.544   1.701  51.611  1.00  0.00    -0.044 A 
HETATM    2  C7  UNL     1      24.630   2.491  50.484  1.00  0.00     0.008 A 
HETATM    3  C8  UNL     1      23.490   2.791  49.770  1.00  0.00     0.001 A 
HETATM    4  C9  UNL     1      22.287   2.285  50.213  1.00  0.00     0.001 A 
HETATM    5  C10 UNL     1      22.247   1.505  51.336  1.00  0.00     0.008 A 
HETATM    6  C11 UNL     1      23.374   1.175  52.093  1.00  0.00    -0.048 A 
ENDROOT
BRANCH   1   7
HETATM    7  C5  UNL     1      25.805   1.432  52.300  1.00  0.00     0.061 C 
HETATM    8  C4  UNL     1      26.239   0.011  52.161  1.00  0.00     0.179 C 
HETATM    9  O2  UNL     1      26.954  -0.447  53.268  1.00  0.00    -0.384 OA
HETATM   10  C3  UNL     1      28.321  -0.116  53.153  1.00  0.00     0.228 C 
HETATM   11  C2  UNL     1      28.445   1.334  53.481  1.00  0.00     0.084 C 
HETATM   12  N1  UNL     1      27.851   2.484  52.844  1.00  0.00    -0.387 N 
HETATM   13  C16 UNL     1      26.849   2.406  51.785  1.00  0.00     0.131 C 
HETATM   14  H18 UNL     1      28.142   3.440  53.145  1.00  0.00     0.159 HD
BRANCH  11  15
HETATM   15  C1  UNL     1      29.211   1.634  54.509  1.00  0.00     0.247 C 
HETATM   16  O1  UNL     1      29.828   2.371  55.317  1.00  0.00    -0.282 OA
ENDBRANCH  11  15
ENDBRANCH   1   7
BRANCH   6  17
HETATM   17  C12 UNL     1      23.225   0.338  53.278  1.00  0.00     0.066 C 
BRANCH  17  18
HETATM   18  C13 UNL     1      21.815  -0.049  53.512  1.00  0.00    -0.025 C 
BRANCH  18  19
HETATM   19  C14 UNL     1      20.710  -0.767  53.597  1.00  0.00    -0.020 C 
BRANCH  19  20
HETATM   20  C15 UNL     1      19.242  -0.748  53.437  1.00  0.00     0.112 C 
HETATM   21 BR1  UNL     1      18.848   0.040  51.717  1.00  0.00    -0.092 Br
ENDBRANCH  19  20
ENDBRANCH  18  19
ENDBRANCH  17  18
ENDBRANCH   6  17
TORSDOF 6
ENDMDL
MODEL 7
REMARK VINA RESULT:      -6.3      3.449      5.450
REMARK  6 active torsions:
REMARK  status: ('A' for Active; 'I' for Inactive)
REMARK    1  A    between atoms: C1_2  and  C2_3 
REMARK    2  A    between atoms: C5_7  and  C6_8 
REMARK    3  A    between atoms: C11_13  and  C12_14 
REMARK    4  A    between atoms: C12_14  and  C13_15 
REMARK    5  A    between atoms: C13_15  and  C14_16 
REMARK    6  A    between atoms: C14_16  and  C15_17 
ROOT
HETATM    1  C6  UNL     1      23.154  -0.044  53.338  1.00  0.00    -0.044 A 
HETATM    2  C7  UNL     1      22.612  -0.772  54.376  1.00  0.00     0.008 A 
HETATM    3  C8  UNL     1      21.249  -0.971  54.434  1.00  0.00     0.001 A 
HETATM    4  C9  UNL     1      20.465  -0.429  53.439  1.00  0.00     0.001 A 
HETATM    5  C10 UNL     1      21.045   0.287  52.427  1.00  0.00     0.008 A 
HETATM    6  C11 UNL     1      22.419   0.515  52.326  1.00  0.00    -0.048 A 
ENDROOT
BRANCH   1   7
HETATM    7  C5  UNL     1      24.607   0.119  53.363  1.00  0.00     0.061 C 
HETATM    8  C4  UNL     1      25.019   1.553  53.410  1.00  0.00     0.179 C 
HETATM    9  O2  UNL     1      26.234   1.788  52.766  1.00  0.00    -0.384 OA
HETATM   10  C3  UNL     1      27.317   1.544  53.637  1.00  0.00     0.228 C 
HETATM   11  C2  UNL     1      27.477   0.064  53.728  1.00  0.00     0.084 C 
HETATM   12  N1  UNL     1      26.551  -0.943  54.186  1.00  0.00    -0.387 N 
HETATM   13  C16 UNL     1      25.157  -0.678  54.531  1.00  0.00     0.131 C 
HETATM   14  H18 UNL     1      26.878  -1.929  54.284  1.00  0.00     0.159 HD
BRANCH  11  15
HETATM   15  C1  UNL     1      28.635  -0.422  53.332  1.00  0.00     0.247 C 
HETATM   16  O1  UNL     1      29.884  -0.521  53.259  1.00  0.00    -0.282 OA
ENDBRANCH  11  15
ENDBRANCH   1   7
BRANCH   6  17
HETATM   17  C12 UNL     1      22.939   1.289  51.204  1.00  0.00     0.066 C 
BRANCH  17  18
HETATM   18  C13 UNL     1      22.094   1.156  49.995  1.00  0.00    -0.025 C 
BRANCH  18  19
HETATM   19  C14 UNL     1      21.507   1.416  48.842  1.00  0.00    -0.020 C 
BRANCH  19  20
HETATM   20  C15 UNL     1      20.704   2.403  48.091  1.00  0.00     0.112 C 
HETATM   21 BR1  UNL     1      21.929   3.622  47.227  1.00  0.00    -0.092 Br
ENDBRANCH  19  20
ENDBRANCH  18  19
ENDBRANCH  17  18
ENDBRANCH   6  17
TORSDOF 6
ENDMDL
MODEL 8
REMARK VINA RESULT:      -6.3      2.879      4.974
REMARK  6 active torsions:
REMARK  status: ('A' for Active; 'I' for Inactive)
REMARK    1  A    between atoms: C1_2  and  C2_3 
REMARK    2  A    between atoms: C5_7  and  C6_8 
REMARK    3  A    between atoms: C11_13  and  C12_14 
REMARK    4  A    between atoms: C12_14  and  C13_15 
REMARK    5  A    between atoms: C13_15  and  C14_16 
REMARK    6  A    between atoms: C14_16  and  C15_17 
ROOT
HETATM    1  C6  UNL     1      24.007   2.206  51.050  1.00  0.00    -0.044 A 
HETATM    2  C7  UNL     1      24.194   3.150  50.063  1.00  0.00     0.008 A 
HETATM    3  C8  UNL     1      25.471   3.537  49.719  1.00  0.00     0.001 A 
HETATM    4  C9  UNL     1      26.532   2.958  50.381  1.00  0.00     0.001 A 
HETATM    5  C10 UNL     1      26.302   2.024  51.354  1.00  0.00     0.008 A 
HETATM    6  C11 UNL     1      25.026   1.601  51.737  1.00  0.00    -0.048 A 
ENDROOT
BRANCH   1   7
HETATM    7  C5  UNL     1      22.618   1.863  51.351  1.00  0.00     0.061 C 
HETATM    8  C4  UNL     1      21.816   3.050  51.771  1.00  0.00     0.179 C 
HETATM    9  O2  UNL     1      20.805   2.725  52.676  1.00  0.00    -0.384 OA
HETATM   10  C3  UNL     1      19.644   2.297  51.997  1.00  0.00     0.228 C 
HETATM   11  C2  UNL     1      19.897   0.899  51.545  1.00  0.00     0.084 C 
HETATM   12  N1  UNL     1      20.913   0.378  50.663  1.00  0.00    -0.387 N 
HETATM   13  C16 UNL     1      22.025   1.166  50.140  1.00  0.00     0.131 C 
HETATM   14  H18 UNL     1      20.868  -0.622  50.369  1.00  0.00     0.159 HD
BRANCH  11  15
HETATM   15  C1  UNL     1      19.077  -0.021  52.010  1.00  0.00     0.247 C 
HETATM   16  O1  UNL     1      18.092  -0.485  52.635  1.00  0.00    -0.282 OA
ENDBRANCH  11  15
ENDBRANCH   1   7
BRANCH   6  17
HETATM   17  C12 UNL     1      24.887   0.595  52.785  1.00  0.00     0.066 C 
BRANCH  17  18
HETATM   18  C13 UNL     1      25.953  -0.431  52.718  1.00  0.00    -0.025 C 
BRANCH  18  19
HETATM   19  C14 UNL     1      27.063  -1.102  52.961  1.00  0.00    -0.020 C 
BRANCH  19  20
HETATM   20  C15 UNL     1      28.508  -0.984  53.243  1.00  0.00     0.112 C 
HETATM   21 BR1  UNL     1      28.816   0.759  54.019  1.00  0.00    -0.092 Br
ENDBRANCH  19  20
ENDBRANCH  18  19
ENDBRANCH  17  18
ENDBRANCH   6  17
TORSDOF 6
ENDMDL
MODEL 9
REMARK VINA RESULT:      -6.2      3.515      5.389
REMARK  6 active torsions:
REMARK  status: ('A' for Active; 'I' for Inactive)
REMARK    1  A    between atoms: C1_2  and  C2_3 
REMARK    2  A    between atoms: C5_7  and  C6_8 
REMARK    3  A    between atoms: C11_13  and  C12_14 
REMARK    4  A    between atoms: C12_14  and  C13_15 
REMARK    5  A    between atoms: C13_15  and  C14_16 
REMARK    6  A    between atoms: C14_16  and  C15_17 
ROOT
HETATM    1  C6  UNL     1      24.058   0.490  52.957  1.00  0.00    -0.044 A 
HETATM    2  C7  UNL     1      23.328  -0.296  53.824  1.00  0.00     0.008 A 
HETATM    3  C8  UNL     1      21.966  -0.419  53.657  1.00  0.00     0.001 A 
HETATM    4  C9  UNL     1      21.371   0.257  52.613  1.00  0.00     0.001 A 
HETATM    5  C10 UNL     1      22.132   1.026  51.775  1.00  0.00     0.008 A 
HETATM    6  C11 UNL     1      23.515   1.180  51.905  1.00  0.00    -0.048 A 
ENDROOT
BRANCH   1   7
HETATM    7  C5  UNL     1      25.494   0.563  53.216  1.00  0.00     0.061 C 
HETATM    8  C4  UNL     1      25.940   1.945  53.563  1.00  0.00     0.179 C 
HETATM    9  O2  UNL     1      27.246   2.211  53.148  1.00  0.00    -0.384 OA
HETATM   10  C3  UNL     1      28.177   1.768  54.112  1.00  0.00     0.228 C 
HETATM   11  C2  UNL     1      28.273   0.287  53.973  1.00  0.00     0.084 C 
HETATM   12  N1  UNL     1      27.257  -0.727  54.118  1.00  0.00    -0.387 N 
HETATM   13  C16 UNL     1      25.837  -0.442  54.300  1.00  0.00     0.131 C 
HETATM   14  H18 UNL     1      27.534  -1.733  54.094  1.00  0.00     0.159 HD
BRANCH  11  15
HETATM   15  C1  UNL     1      29.462  -0.194  53.672  1.00  0.00     0.247 C 
HETATM   16  O1  UNL     1      30.431  -0.990  53.707  1.00  0.00    -0.282 OA
ENDBRANCH  11  15
ENDBRANCH   1   7
BRANCH   6  17
HETATM   17  C12 UNL     1      24.237   2.020  50.956  1.00  0.00     0.066 C 
BRANCH  17  18
HETATM   18  C13 UNL     1      23.834   3.442  51.052  1.00  0.00    -0.025 C 
BRANCH  18  19
HETATM   19  C14 UNL     1      23.099   4.528  51.201  1.00  0.00    -0.020 C 
BRANCH  19  20
HETATM   20  C15 UNL     1      21.908   5.100  51.863  1.00  0.00     0.112 C 
HETATM   21 BR1  UNL     1      20.348   4.259  51.093  1.00  0.00    -0.092 Br
ENDBRANCH  19  20
ENDBRANCH  18  19
ENDBRANCH  17  18
ENDBRANCH   6  17
TORSDOF 6
ENDMDL
