MODEL 1
REMARK VINA RESULT:      -7.9      0.000      0.000
REMARK  4 active torsions:
REMARK  status: ('A' for Active; 'I' for Inactive)
REMARK    1  A    between atoms: C3_5  and  C4_6 
REMARK    2  A    between atoms: C4_6  and  N2_7 
REMARK    3  A    between atoms: C4_6  and  S2_14 
REMARK    4  A    between atoms: N2_7  and  C5_8 
ROOT
HETATM    1  C1  UNL     1      28.550   2.481  53.466  1.00  0.00     0.157 C 
HETATM    2  N1  UNL     1      27.794   1.284  53.153  1.00  0.00    -0.344 N 
HETATM    3  C2  UNL     1      26.426   1.284  52.767  1.00  0.00     0.095 A 
HETATM    4  S1  UNL     1      25.510   2.617  52.591  1.00  0.00    -0.064 SA
HETATM    5  C3  UNL     1      25.847  -0.059  52.521  1.00  0.00     0.141 A 
HETATM    6  C11 UNL     1      27.081  -0.889  52.773  1.00  0.00    -0.014 A 
HETATM    7  C12 UNL     1      27.371  -2.233  52.726  1.00  0.00     0.011 A 
HETATM    8  C13 UNL     1      28.590  -2.810  53.005  1.00  0.00     0.001 A 
HETATM    9  C14 UNL     1      29.629  -1.967  53.368  1.00  0.00     0.002 A 
HETATM   10  C15 UNL     1      29.403  -0.610  53.433  1.00  0.00     0.030 A 
HETATM   11  C16 UNL     1      28.160  -0.089  53.142  1.00  0.00     0.042 A 
ENDROOT
BRANCH   5  12
HETATM   12  C4  UNL     1      24.864  -0.514  53.506  1.00  0.00     0.093 C 
BRANCH  12  13
HETATM   13  N2  UNL     1      23.557  -1.044  53.542  1.00  0.00    -0.351 N 
HETATM   14  H5  UNL     1      23.285  -1.981  53.890  1.00  0.00     0.166 HD
BRANCH  13  15
HETATM   15  C5  UNL     1      22.250  -0.671  53.208  1.00  0.00     0.032 A 
HETATM   16  C6  UNL     1      22.080   0.146  52.083  1.00  0.00     0.029 A 
HETATM   17  C7  UNL     1      20.861   0.602  51.622  1.00  0.00     0.002 A 
HETATM   18  C8  UNL     1      19.734   0.203  52.349  1.00  0.00     0.000 A 
HETATM   19  C9  UNL     1      19.874  -0.599  53.456  1.00  0.00     0.002 A 
HETATM   20  C10 UNL     1      21.122  -1.050  53.907  1.00  0.00     0.029 A 
ENDBRANCH  13  15
ENDBRANCH  12  13
BRANCH  12  21
HETATM   21  S2  UNL     1      25.457  -0.340  55.058  1.00  0.00     0.084 SA
HETATM   22  O1  UNL     1      24.830  -1.507  55.906  1.00  0.00    -0.143 OA
ENDBRANCH  12  21
ENDBRANCH   5  12
TORSDOF 4
ENDMDL
MODEL 2
REMARK VINA RESULT:      -7.7      2.625      6.375
REMARK  4 active torsions:
REMARK  status: ('A' for Active; 'I' for Inactive)
REMARK    1  A    between atoms: C3_5  and  C4_6 
REMARK    2  A    between atoms: C4_6  and  N2_7 
REMARK    3  A    between atoms: C4_6  and  S2_14 
REMARK    4  A    between atoms: N2_7  and  C5_8 
ROOT
HETATM    1  C1  UNL     1      21.036   3.321  51.018  1.00  0.00     0.157 C 
HETATM    2  N1  UNL     1      22.146   2.831  51.812  1.00  0.00    -0.344 N 
HETATM    3  C2  UNL     1      23.246   3.633  52.224  1.00  0.00     0.095 A 
HETATM    4  S1  UNL     1      23.415   5.218  51.896  1.00  0.00    -0.064 SA
HETATM    5  C3  UNL     1      24.281   2.916  53.007  1.00  0.00     0.141 A 
HETATM    6  C11 UNL     1      23.633   1.556  53.052  1.00  0.00    -0.014 A 
HETATM    7  C12 UNL     1      23.961   0.344  53.615  1.00  0.00     0.011 A 
HETATM    8  C13 UNL     1      23.220  -0.814  53.536  1.00  0.00     0.001 A 
HETATM    9  C14 UNL     1      22.031  -0.767  52.824  1.00  0.00     0.002 A 
HETATM   10  C15 UNL     1      21.647   0.418  52.237  1.00  0.00     0.030 A 
HETATM   11  C16 UNL     1      22.430   1.547  52.350  1.00  0.00     0.042 A 
ENDROOT
BRANCH   5  12
HETATM   12  C4  UNL     1      25.561   2.715  52.325  1.00  0.00     0.093 C 
BRANCH  12  13
HETATM   13  N2  UNL     1      26.896   2.381  52.640  1.00  0.00    -0.351 N 
HETATM   14  H5  UNL     1      27.689   3.042  52.728  1.00  0.00     0.166 HD
BRANCH  13  15
HETATM   15  C5  UNL     1      27.667   1.250  52.932  1.00  0.00     0.032 A 
HETATM   16  C6  UNL     1      27.126  -0.001  52.611  1.00  0.00     0.029 A 
HETATM   17  C7  UNL     1      27.755  -1.209  52.836  1.00  0.00     0.002 A 
HETATM   18  C8  UNL     1      29.022  -1.149  53.425  1.00  0.00     0.000 A 
HETATM   19  C9  UNL     1      29.576   0.066  53.749  1.00  0.00     0.002 A 
HETATM   20  C10 UNL     1      28.919   1.282  53.513  1.00  0.00     0.029 A 
ENDBRANCH  13  15
ENDBRANCH  12  13
BRANCH  12  21
HETATM   21  S2  UNL     1      25.405   2.974  50.683  1.00  0.00     0.084 SA
HETATM   22  O1  UNL     1      26.865   3.138  50.118  1.00  0.00    -0.143 OA
ENDBRANCH  12  21
ENDBRANCH   5  12
TORSDOF 4
ENDMDL
MODEL 3
REMARK VINA RESULT:      -7.6      3.677      6.230
REMARK  4 active torsions:
REMARK  status: ('A' for Active; 'I' for Inactive)
REMARK    1  A    between atoms: C3_5  and  C4_6 
REMARK    2  A    between atoms: C4_6  and  N2_7 
REMARK    3  A    between atoms: C4_6  and  S2_14 
REMARK    4  A    between atoms: N2_7  and  C5_8 
ROOT
HETATM    1  C1  UNL     1      22.521   6.282  51.175  1.00  0.00     0.157 C 
HETATM    2  N1  UNL     1      23.163   4.994  50.996  1.00  0.00    -0.344 N 
HETATM    3  C2  UNL     1      22.591   3.757  51.401  1.00  0.00     0.095 A 
HETATM    4  S1  UNL     1      21.131   3.591  52.098  1.00  0.00    -0.064 SA
HETATM    5  C3  UNL     1      23.437   2.566  51.144  1.00  0.00     0.141 A 
HETATM    6  C11 UNL     1      24.602   3.253  50.478  1.00  0.00    -0.014 A 
HETATM    7  C12 UNL     1      25.790   2.830  49.927  1.00  0.00     0.011 A 
HETATM    8  C13 UNL     1      26.752   3.635  49.358  1.00  0.00     0.001 A 
HETATM    9  C14 UNL     1      26.512   5.001  49.334  1.00  0.00     0.002 A 
HETATM   10  C15 UNL     1      25.340   5.486  49.871  1.00  0.00     0.030 A 
HETATM   11  C16 UNL     1      24.413   4.632  50.427  1.00  0.00     0.042 A 
ENDROOT
BRANCH   5  12
HETATM   12  C4  UNL     1      23.994   1.918  52.333  1.00  0.00     0.093 C 
BRANCH  12  13
HETATM   13  N2  UNL     1      24.966   2.165  53.326  1.00  0.00    -0.351 N 
HETATM   14  H5  UNL     1      24.899   2.864  54.088  1.00  0.00     0.166 HD
BRANCH  13  15
HETATM   15  C5  UNL     1      26.230   1.706  53.713  1.00  0.00     0.032 A 
HETATM   16  C6  UNL     1      27.345   2.419  53.252  1.00  0.00     0.029 A 
HETATM   17  C7  UNL     1      28.656   2.096  53.541  1.00  0.00     0.002 A 
HETATM   18  C8  UNL     1      28.855   0.976  54.354  1.00  0.00     0.000 A 
HETATM   19  C9  UNL     1      27.778   0.261  54.820  1.00  0.00     0.002 A 
HETATM   20  C10 UNL     1      26.454   0.605  54.514  1.00  0.00     0.029 A 
ENDBRANCH  13  15
ENDBRANCH  12  13
BRANCH  12  21
HETATM   21  S2  UNL     1      23.280   0.430  52.585  1.00  0.00     0.084 SA
HETATM   22  O1  UNL     1      22.302   0.608  53.806  1.00  0.00    -0.143 OA
ENDBRANCH  12  21
ENDBRANCH   5  12
TORSDOF 4
ENDMDL
MODEL 4
REMARK VINA RESULT:      -7.4      4.724      7.303
REMARK  4 active torsions:
REMARK  status: ('A' for Active; 'I' for Inactive)
REMARK    1  A    between atoms: C3_5  and  C4_6 
REMARK    2  A    between atoms: C4_6  and  N2_7 
REMARK    3  A    between atoms: C4_6  and  S2_14 
REMARK    4  A    between atoms: N2_7  and  C5_8 
ROOT
HETATM    1  C1  UNL     1      20.476   0.397  51.669  1.00  0.00     0.157 C 
HETATM    2  N1  UNL     1      21.292   1.563  51.949  1.00  0.00    -0.344 N 
HETATM    3  C2  UNL     1      20.848   2.903  51.783  1.00  0.00     0.095 A 
HETATM    4  S1  UNL     1      19.361   3.336  51.285  1.00  0.00    -0.064 SA
HETATM    5  C3  UNL     1      21.860   3.939  52.104  1.00  0.00     0.141 A 
HETATM    6  C11 UNL     1      22.985   3.032  52.535  1.00  0.00    -0.014 A 
HETATM    7  C12 UNL     1      24.265   3.231  53.001  1.00  0.00     0.011 A 
HETATM    8  C13 UNL     1      25.164   2.246  53.343  1.00  0.00     0.001 A 
HETATM    9  C14 UNL     1      24.755   0.928  53.207  1.00  0.00     0.002 A 
HETATM   10  C15 UNL     1      23.485   0.664  52.745  1.00  0.00     0.030 A 
HETATM   11  C16 UNL     1      22.626   1.692  52.418  1.00  0.00     0.042 A 
ENDROOT
BRANCH   5  12
HETATM   12  C4  UNL     1      22.380   4.689  50.960  1.00  0.00     0.093 C 
BRANCH  12  13
HETATM   13  N2  UNL     1      23.225   4.488  49.847  1.00  0.00    -0.351 N 
HETATM   14  H5  UNL     1      22.939   4.128  48.918  1.00  0.00     0.166 HD
BRANCH  13  15
HETATM   15  C5  UNL     1      24.571   4.634  49.495  1.00  0.00     0.032 A 
HETATM   16  C6  UNL     1      25.405   3.520  49.655  1.00  0.00     0.029 A 
HETATM   17  C7  UNL     1      26.753   3.500  49.357  1.00  0.00     0.002 A 
HETATM   18  C8  UNL     1      27.296   4.690  48.861  1.00  0.00     0.000 A 
HETATM   19  C9  UNL     1      26.499   5.796  48.693  1.00  0.00     0.002 A 
HETATM   20  C10 UNL     1      25.132   5.795  49.003  1.00  0.00     0.029 A 
ENDBRANCH  13  15
ENDBRANCH  12  13
BRANCH  12  21
HETATM   21  S2  UNL     1      21.823   6.263  50.981  1.00  0.00     0.084 SA
HETATM   22  O1  UNL     1      21.303   6.570  49.528  1.00  0.00    -0.143 OA
ENDBRANCH  12  21
ENDBRANCH   5  12
TORSDOF 4
ENDMDL
MODEL 5
REMARK VINA RESULT:      -7.3      2.652      5.933
REMARK  4 active torsions:
REMARK  status: ('A' for Active; 'I' for Inactive)
REMARK    1  A    between atoms: C3_5  and  C4_6 
REMARK    2  A    between atoms: C4_6  and  N2_7 
REMARK    3  A    between atoms: C4_6  and  S2_14 
REMARK    4  A    between atoms: N2_7  and  C5_8 
ROOT
HETATM    1  C1  UNL     1      25.095   4.193  50.426  1.00  0.00     0.157 C 
HETATM    2  N1  UNL     1      24.044   3.278  50.826  1.00  0.00    -0.344 N 
HETATM    3  C2  UNL     1      23.729   2.969  52.178  1.00  0.00     0.095 A 
HETATM    4  S1  UNL     1      24.473   3.609  53.476  1.00  0.00    -0.064 SA
HETATM    5  C3  UNL     1      22.633   1.986  52.353  1.00  0.00     0.141 A 
HETATM    6  C11 UNL     1      22.289   1.766  50.902  1.00  0.00    -0.014 A 
HETATM    7  C12 UNL     1      21.359   1.006  50.230  1.00  0.00     0.011 A 
HETATM    8  C13 UNL     1      21.204   0.933  48.864  1.00  0.00     0.001 A 
HETATM    9  C14 UNL     1      22.062   1.692  48.081  1.00  0.00     0.002 A 
HETATM   10  C15 UNL     1      23.015   2.474  48.694  1.00  0.00     0.030 A 
HETATM   11  C16 UNL     1      23.123   2.507  50.068  1.00  0.00     0.042 A 
ENDROOT
BRANCH   5  12
HETATM   12  C4  UNL     1      23.037   0.674  52.861  1.00  0.00     0.093 C 
BRANCH  12  13
HETATM   13  N2  UNL     1      24.146  -0.198  52.803  1.00  0.00    -0.351 N 
HETATM   14  H5  UNL     1      24.153  -1.154  52.403  1.00  0.00     0.166 HD
BRANCH  13  15
HETATM   15  C5  UNL     1      25.497  -0.223  53.165  1.00  0.00     0.032 A 
HETATM   16  C6  UNL     1      25.827   0.208  54.457  1.00  0.00     0.029 A 
HETATM   17  C7  UNL     1      27.110   0.247  54.966  1.00  0.00     0.002 A 
HETATM   18  C8  UNL     1      28.131  -0.182  54.111  1.00  0.00     0.000 A 
HETATM   19  C9  UNL     1      27.832  -0.610  52.840  1.00  0.00     0.002 A 
HETATM   20  C10 UNL     1      26.523  -0.640  52.341  1.00  0.00     0.029 A 
ENDBRANCH  13  15
ENDBRANCH  12  13
BRANCH  12  21
HETATM   21  S2  UNL     1      21.815  -0.010  53.772  1.00  0.00     0.084 SA
HETATM   22  O1  UNL     1      22.511  -1.001  54.777  1.00  0.00    -0.143 OA
ENDBRANCH  12  21
ENDBRANCH   5  12
TORSDOF 4
ENDMDL
MODEL 6
REMARK VINA RESULT:      -7.3      3.996      6.172
REMARK  4 active torsions:
REMARK  status: ('A' for Active; 'I' for Inactive)
REMARK    1  A    between atoms: C3_5  and  C4_6 
REMARK    2  A    between atoms: C4_6  and  N2_7 
REMARK    3  A    between atoms: C4_6  and  S2_14 
REMARK    4  A    between atoms: N2_7  and  C5_8 
ROOT
HETATM    1  C1  UNL     1      22.541  -1.142  52.762  1.00  0.00     0.157 C 
HETATM    2  N1  UNL     1      23.234   0.128  52.853  1.00  0.00    -0.344 N 
HETATM    3  C2  UNL     1      22.581   1.389  52.911  1.00  0.00     0.095 A 
HETATM    4  S1  UNL     1      20.968   1.602  52.912  1.00  0.00    -0.064 SA
HETATM    5  C3  UNL     1      23.490   2.559  52.975  1.00  0.00     0.141 A 
HETATM    6  C11 UNL     1      24.807   1.826  52.989  1.00  0.00    -0.014 A 
HETATM    7  C12 UNL     1      26.127   2.206  53.060  1.00  0.00     0.011 A 
HETATM    8  C13 UNL     1      27.215   1.362  53.053  1.00  0.00     0.001 A 
HETATM    9  C14 UNL     1      26.970   0.000  52.967  1.00  0.00     0.002 A 
HETATM   10  C15 UNL     1      25.668  -0.444  52.894  1.00  0.00     0.030 A 
HETATM   11  C16 UNL     1      24.618   0.448  52.905  1.00  0.00     0.042 A 
ENDROOT
BRANCH   5  12
HETATM   12  C4  UNL     1      23.524   3.398  51.775  1.00  0.00     0.093 C 
BRANCH  12  13
HETATM   13  N2  UNL     1      24.153   3.427  50.511  1.00  0.00    -0.351 N 
HETATM   14  H5  UNL     1      23.906   2.844  49.691  1.00  0.00     0.166 HD
BRANCH  13  15
HETATM   15  C5  UNL     1      25.192   4.098  49.857  1.00  0.00     0.032 A 
HETATM   16  C6  UNL     1      24.930   5.393  49.390  1.00  0.00     0.029 A 
HETATM   17  C7  UNL     1      25.843   6.186  48.725  1.00  0.00     0.002 A 
HETATM   18  C8  UNL     1      27.110   5.633  48.517  1.00  0.00     0.000 A 
HETATM   19  C9  UNL     1      27.392   4.365  48.965  1.00  0.00     0.002 A 
HETATM   20  C10 UNL     1      26.450   3.576  49.638  1.00  0.00     0.029 A 
ENDBRANCH  13  15
ENDBRANCH  12  13
BRANCH  12  21
HETATM   21  S2  UNL     1      22.537   4.732  51.956  1.00  0.00     0.084 SA
HETATM   22  O1  UNL     1      21.518   4.697  50.757  1.00  0.00    -0.143 OA
ENDBRANCH  12  21
ENDBRANCH   5  12
TORSDOF 4
ENDMDL
MODEL 7
REMARK VINA RESULT:      -7.2      4.333      7.236
REMARK  4 active torsions:
REMARK  status: ('A' for Active; 'I' for Inactive)
REMARK    1  A    between atoms: C3_5  and  C4_6 
REMARK    2  A    between atoms: C4_6  and  N2_7 
REMARK    3  A    between atoms: C4_6  and  S2_14 
REMARK    4  A    between atoms: N2_7  and  C5_8 
ROOT
HETATM    1  C1  UNL     1      21.604   4.661  48.897  1.00  0.00     0.157 C 
HETATM    2  N1  UNL     1      23.003   4.352  49.125  1.00  0.00    -0.344 N 
HETATM    3  C2  UNL     1      23.469   3.122  49.663  1.00  0.00     0.095 A 
HETATM    4  S1  UNL     1      22.518   1.869  50.079  1.00  0.00    -0.064 SA
HETATM    5  C3  UNL     1      24.939   3.034  49.835  1.00  0.00     0.141 A 
HETATM    6  C11 UNL     1      25.315   4.385  49.280  1.00  0.00    -0.014 A 
HETATM    7  C12 UNL     1      26.501   5.052  49.075  1.00  0.00     0.011 A 
HETATM    8  C13 UNL     1      26.638   6.317  48.548  1.00  0.00     0.001 A 
HETATM    9  C14 UNL     1      25.481   6.991  48.189  1.00  0.00     0.002 A 
HETATM   10  C15 UNL     1      24.262   6.376  48.369  1.00  0.00     0.030 A 
HETATM   11  C16 UNL     1      24.186   5.106  48.901  1.00  0.00     0.042 A 
ENDROOT
BRANCH   5  12
HETATM   12  C4  UNL     1      25.415   3.036  51.220  1.00  0.00     0.093 C 
BRANCH  12  13
HETATM   13  N2  UNL     1      26.584   2.724  51.946  1.00  0.00    -0.351 N 
HETATM   14  H5  UNL     1      27.299   3.398  52.275  1.00  0.00     0.166 HD
BRANCH  13  15
HETATM   15  C5  UNL     1      27.237   1.608  52.481  1.00  0.00     0.032 A 
HETATM   16  C6  UNL     1      28.367   1.840  53.275  1.00  0.00     0.029 A 
HETATM   17  C7  UNL     1      29.122   0.851  53.873  1.00  0.00     0.002 A 
HETATM   18  C8  UNL     1      28.705  -0.466  53.654  1.00  0.00     0.000 A 
HETATM   19  C9  UNL     1      27.599  -0.720  52.879  1.00  0.00     0.002 A 
HETATM   20  C10 UNL     1      26.847   0.299  52.280  1.00  0.00     0.029 A 
ENDBRANCH  13  15
ENDBRANCH  12  13
BRANCH  12  21
HETATM   21  S2  UNL     1      24.210   3.542  52.259  1.00  0.00     0.084 SA
HETATM   22  O1  UNL     1      23.992   2.374  53.290  1.00  0.00    -0.143 OA
ENDBRANCH  12  21
ENDBRANCH   5  12
TORSDOF 4
ENDMDL
MODEL 8
REMARK VINA RESULT:      -7.1      4.183      5.758
REMARK  4 active torsions:
REMARK  status: ('A' for Active; 'I' for Inactive)
REMARK    1  A    between atoms: C3_5  and  C4_6 
REMARK    2  A    between atoms: C4_6  and  N2_7 
REMARK    3  A    between atoms: C4_6  and  S2_14 
REMARK    4  A    between atoms: N2_7  and  C5_8 
ROOT
HETATM    1  C1  UNL     1      21.964   5.943  48.653  1.00  0.00     0.157 C 
HETATM    2  N1  UNL     1      22.831   4.837  49.010  1.00  0.00    -0.344 N 
HETATM    3  C2  UNL     1      22.364   3.546  49.379  1.00  0.00     0.095 A 
HETATM    4  S1  UNL     1      20.800   3.102  49.431  1.00  0.00    -0.064 SA
HETATM    5  C3  UNL     1      23.429   2.575  49.731  1.00  0.00     0.141 A 
HETATM    6  C11 UNL     1      24.630   3.453  49.483  1.00  0.00    -0.014 A 
HETATM    7  C12 UNL     1      25.992   3.277  49.563  1.00  0.00     0.011 A 
HETATM    8  C13 UNL     1      26.950   4.229  49.294  1.00  0.00     0.001 A 
HETATM    9  C14 UNL     1      26.512   5.486  48.906  1.00  0.00     0.002 A 
HETATM   10  C15 UNL     1      25.160   5.726  48.806  1.00  0.00     0.030 A 
HETATM   11  C16 UNL     1      24.246   4.732  49.088  1.00  0.00     0.042 A 
ENDROOT
BRANCH   5  12
HETATM   12  C4  UNL     1      23.503   2.205  51.146  1.00  0.00     0.093 C 
BRANCH  12  13
HETATM   13  N2  UNL     1      23.675   1.050  51.938  1.00  0.00    -0.351 N 
HETATM   14  H5  UNL     1      24.528   0.464  51.990  1.00  0.00     0.166 HD
BRANCH  13  15
HETATM   15  C5  UNL     1      22.957   0.273  52.855  1.00  0.00     0.032 A 
HETATM   16  C6  UNL     1      21.568   0.201  52.689  1.00  0.00     0.029 A 
HETATM   17  C7  UNL     1      20.717  -0.518  53.506  1.00  0.00     0.002 A 
HETATM   18  C8  UNL     1      21.313  -1.213  54.563  1.00  0.00     0.000 A 
HETATM   19  C9  UNL     1      22.674  -1.158  54.746  1.00  0.00     0.002 A 
HETATM   20  C10 UNL     1      23.519  -0.421  53.906  1.00  0.00     0.029 A 
ENDBRANCH  13  15
ENDBRANCH  12  13
BRANCH  12  21
HETATM   21  S2  UNL     1      23.311   3.548  52.120  1.00  0.00     0.084 SA
HETATM   22  O1  UNL     1      24.335   3.387  53.305  1.00  0.00    -0.143 OA
ENDBRANCH  12  21
ENDBRANCH   5  12
TORSDOF 4
ENDMDL
MODEL 9
REMARK VINA RESULT:      -7.1      9.493     11.118
REMARK  4 active torsions:
REMARK  status: ('A' for Active; 'I' for Inactive)
REMARK    1  A    between atoms: C3_5  and  C4_6 
REMARK    2  A    between atoms: C4_6  and  N2_7 
REMARK    3  A    between atoms: C4_6  and  S2_14 
REMARK    4  A    between atoms: N2_7  and  C5_8 
ROOT
HETATM    1  C1  UNL     1      35.732   6.091  48.924  1.00  0.00     0.157 C 
HETATM    2  N1  UNL     1      34.666   5.941  47.953  1.00  0.00    -0.344 N 
HETATM    3  C2  UNL     1      34.141   7.010  47.176  1.00  0.00     0.095 A 
HETATM    4  S1  UNL     1      34.667   8.548  47.233  1.00  0.00    -0.064 SA
HETATM    5  C3  UNL     1      33.034   6.632  46.264  1.00  0.00     0.141 A 
HETATM    6  C11 UNL     1      32.983   5.156  46.566  1.00  0.00    -0.014 A 
HETATM    7  C12 UNL     1      32.231   4.098  46.108  1.00  0.00     0.011 A 
HETATM    8  C13 UNL     1      32.333   2.790  46.525  1.00  0.00     0.001 A 
HETATM    9  C14 UNL     1      33.279   2.499  47.497  1.00  0.00     0.002 A 
HETATM   10  C15 UNL     1      34.063   3.515  47.996  1.00  0.00     0.030 A 
HETATM   11  C16 UNL     1      33.916   4.807  47.540  1.00  0.00     0.042 A 
ENDROOT
BRANCH   5  12
HETATM   12  C4  UNL     1      31.713   7.149  46.626  1.00  0.00     0.093 C 
BRANCH  12  13
HETATM   13  N2  UNL     1      30.816   7.115  47.716  1.00  0.00    -0.351 N 
HETATM   14  H5  UNL     1      31.022   7.405  48.688  1.00  0.00     0.166 HD
BRANCH  13  15
HETATM   15  C5  UNL     1      29.490   6.759  47.990  1.00  0.00     0.032 A 
HETATM   16  C6  UNL     1      29.229   5.412  48.273  1.00  0.00     0.029 A 
HETATM   17  C7  UNL     1      27.980   4.899  48.561  1.00  0.00     0.002 A 
HETATM   18  C8  UNL     1      26.920   5.812  48.564  1.00  0.00     0.000 A 
HETATM   19  C9  UNL     1      27.151   7.139  48.290  1.00  0.00     0.002 A 
HETATM   20  C10 UNL     1      28.427   7.639  47.999  1.00  0.00     0.029 A 
ENDBRANCH  13  15
ENDBRANCH  12  13
BRANCH  12  21
HETATM   21  S2  UNL     1      31.059   8.033  45.370  1.00  0.00     0.084 SA
HETATM   22  O1  UNL     1      31.368   9.545  45.682  1.00  0.00    -0.143 OA
ENDBRANCH  12  21
ENDBRANCH   5  12
TORSDOF 4
ENDMDL
