MODEL 1
REMARK VINA RESULT:      -7.7      0.000      0.000
REMARK  8 active torsions:
REMARK  status: ('A' for Active; 'I' for Inactive)
REMARK    1  A    between atoms: C2_2  and  C3_3 
REMARK    2  A    between atoms: C3_3  and  O1_4 
REMARK    3  A    between atoms: O1_4  and  C4_5 
REMARK    4  A    between atoms: C5_6  and  C6_7 
REMARK    5  A    between atoms: C7_8  and  C8_9 
REMARK    6  A    between atoms: C8_9  and  O2_10 
REMARK    7  A    between atoms: C10_14  and  N3_15 
REMARK    8  A    between atoms: N3_15  and  C11_16 
ROOT
HETATM    1  C6  UNL     1      22.143  -0.008  52.924  1.00  0.00     0.046 A 
HETATM    2  C7  UNL     1      21.137  -0.439  53.770  1.00  0.00     0.073 A 
HETATM    3  N1  UNL     1      21.450  -1.110  54.898  1.00  0.00    -0.243 NA
HETATM    4  C9  UNL     1      22.680  -1.404  55.280  1.00  0.00     0.235 A 
HETATM    5  N2  UNL     1      23.638  -0.988  54.471  1.00  0.00    -0.224 NA
HETATM    6  C10 UNL     1      23.415  -0.326  53.351  1.00  0.00     0.142 A 
ENDROOT
BRANCH   1   7
HETATM    7  C5  UNL     1      21.868   0.717  51.699  1.00  0.00    -0.009 C 
HETATM    8  C4  UNL     1      21.984   2.052  51.536  1.00  0.00     0.077 C 
HETATM    9  C19 UNL     1      21.755   2.973  50.401  1.00  0.00     0.232 C 
HETATM   10  O3  UNL     1      21.355   2.279  49.292  1.00  0.00    -0.384 OA
HETATM   11  C18 UNL     1      20.537   1.224  49.681  1.00  0.00     0.172 C 
HETATM   12  C17 UNL     1      21.403   0.165  50.385  1.00  0.00     0.068 C 
BRANCH   8  13
HETATM   13  O1  UNL     1      22.405   2.903  52.589  1.00  0.00    -0.353 OA
BRANCH  13  14
HETATM   14  C3  UNL     1      23.615   3.604  52.371  1.00  0.00     0.175 C 
BRANCH  14  15
HETATM   15  C2  UNL     1      23.483   5.066  52.734  1.00  0.00     0.022 C 
HETATM   16  C1  UNL     1      23.847   5.866  51.501  1.00  0.00     0.007 C 
ENDBRANCH  14  15
ENDBRANCH  13  14
ENDBRANCH   8  13
ENDBRANCH   1   7
BRANCH   2  17
HETATM   17  C8  UNL     1      19.720  -0.152  53.433  1.00  0.00     0.224 C 
BRANCH  17  18
HETATM   18  O2  UNL     1      18.863  -1.191  53.804  1.00  0.00    -0.395 OA
HETATM   19  H10 UNL     1      19.269  -1.828  54.435  1.00  0.00     0.209 HD
ENDBRANCH  17  18
ENDBRANCH   2  17
BRANCH   6  20
HETATM   20  N3  UNL     1      24.573   0.109  52.655  1.00  0.00    -0.340 N 
HETATM   21  H12 UNL     1      24.377   0.668  51.780  1.00  0.00     0.167 HD
BRANCH  20  22
HETATM   22  C11 UNL     1      25.976   0.008  52.863  1.00  0.00     0.035 A 
HETATM   23  C12 UNL     1      26.694  -1.191  52.787  1.00  0.00     0.032 A 
HETATM   24  C13 UNL     1      28.047  -1.137  53.023  1.00  0.00     0.046 A 
HETATM   25  C14 UNL     1      28.737   0.004  53.326  1.00  0.00     0.138 A 
HETATM   26  F1  UNL     1      30.061  -0.150  53.522  1.00  0.00    -0.204 F 
HETATM   27  C15 UNL     1      28.025   1.183  53.398  1.00  0.00     0.074 A 
HETATM   28 CL1  UNL     1      28.980   2.605  53.792  1.00  0.00    -0.081 Cl
HETATM   29  C16 UNL     1      26.665   1.163  53.167  1.00  0.00     0.056 A 
ENDBRANCH  20  22
ENDBRANCH   6  20
TORSDOF 8
ENDMDL
MODEL 2
REMARK VINA RESULT:      -7.5      3.999      6.408
REMARK  8 active torsions:
REMARK  status: ('A' for Active; 'I' for Inactive)
REMARK    1  A    between atoms: C2_2  and  C3_3 
REMARK    2  A    between atoms: C3_3  and  O1_4 
REMARK    3  A    between atoms: O1_4  and  C4_5 
REMARK    4  A    between atoms: C5_6  and  C6_7 
REMARK    5  A    between atoms: C7_8  and  C8_9 
REMARK    6  A    between atoms: C8_9  and  O2_10 
REMARK    7  A    between atoms: C10_14  and  N3_15 
REMARK    8  A    between atoms: N3_15  and  C11_16 
ROOT
HETATM    1  C6  UNL     1      24.418   1.664  52.359  1.00  0.00     0.046 A 
HETATM    2  C7  UNL     1      25.709   1.317  52.002  1.00  0.00     0.073 A 
HETATM    3  N1  UNL     1      26.207   0.118  52.368  1.00  0.00    -0.243 NA
HETATM    4  C9  UNL     1      25.544  -0.790  53.064  1.00  0.00     0.235 A 
HETATM    5  N2  UNL     1      24.312  -0.455  53.401  1.00  0.00    -0.224 NA
HETATM    6  C10 UNL     1      23.752   0.697  53.081  1.00  0.00     0.142 A 
ENDROOT
BRANCH   1   7
HETATM    7  C5  UNL     1      23.831   2.939  51.995  1.00  0.00    -0.009 C 
HETATM    8  C4  UNL     1      23.319   3.249  50.784  1.00  0.00     0.077 C 
HETATM    9  C19 UNL     1      22.691   4.459  50.213  1.00  0.00     0.232 C 
HETATM   10  O3  UNL     1      22.618   5.452  51.151  1.00  0.00    -0.384 OA
HETATM   11  C18 UNL     1      23.751   5.407  51.956  1.00  0.00     0.172 C 
HETATM   12  C17 UNL     1      23.669   4.159  52.851  1.00  0.00     0.068 C 
BRANCH   8  13
HETATM   13  O1  UNL     1      23.307   2.318  49.715  1.00  0.00    -0.353 OA
BRANCH  13  14
HETATM   14  C3  UNL     1      22.595   2.715  48.558  1.00  0.00     0.175 C 
BRANCH  14  15
HETATM   15  C2  UNL     1      21.507   1.724  48.208  1.00  0.00     0.022 C 
HETATM   16  C1  UNL     1      20.197   2.483  48.205  1.00  0.00     0.007 C 
ENDBRANCH  14  15
ENDBRANCH  13  14
ENDBRANCH   8  13
ENDBRANCH   1   7
BRANCH   2  17
HETATM   17  C8  UNL     1      26.534   2.266  51.212  1.00  0.00     0.224 C 
BRANCH  17  18
HETATM   18  O2  UNL     1      27.543   2.858  51.975  1.00  0.00    -0.395 OA
HETATM   19  H10 UNL     1      27.203   3.389  52.731  1.00  0.00     0.209 HD
ENDBRANCH  17  18
ENDBRANCH   2  17
BRANCH   6  20
HETATM   20  N3  UNL     1      22.392   0.844  53.459  1.00  0.00    -0.340 N 
HETATM   21  H12 UNL     1      22.240   1.371  54.362  1.00  0.00     0.167 HD
BRANCH  20  22
HETATM   22  C11 UNL     1      21.140   0.479  52.894  1.00  0.00     0.035 A 
HETATM   23  C12 UNL     1      20.606   1.056  51.735  1.00  0.00     0.032 A 
HETATM   24  C13 UNL     1      19.378   0.608  51.310  1.00  0.00     0.046 A 
HETATM   25  C14 UNL     1      18.644  -0.358  51.940  1.00  0.00     0.138 A 
HETATM   26  F1  UNL     1      17.463  -0.659  51.367  1.00  0.00    -0.204 F 
HETATM   27  C15 UNL     1      19.174  -0.925  53.080  1.00  0.00     0.074 A 
HETATM   28 CL1  UNL     1      18.174  -2.158  53.833  1.00  0.00    -0.081 Cl
HETATM   29  C16 UNL     1      20.406  -0.497  53.533  1.00  0.00     0.056 A 
ENDBRANCH  20  22
ENDBRANCH   6  20
TORSDOF 8
ENDMDL
MODEL 3
REMARK VINA RESULT:      -7.5      2.167      4.060
REMARK  8 active torsions:
REMARK  status: ('A' for Active; 'I' for Inactive)
REMARK    1  A    between atoms: C2_2  and  C3_3 
REMARK    2  A    between atoms: C3_3  and  O1_4 
REMARK    3  A    between atoms: O1_4  and  C4_5 
REMARK    4  A    between atoms: C5_6  and  C6_7 
REMARK    5  A    between atoms: C7_8  and  C8_9 
REMARK    6  A    between atoms: C8_9  and  O2_10 
REMARK    7  A    between atoms: C10_14  and  N3_15 
REMARK    8  A    between atoms: N3_15  and  C11_16 
ROOT
HETATM    1  C6  UNL     1      22.825   1.549  51.013  1.00  0.00     0.046 A 
HETATM    2  C7  UNL     1      22.295   1.693  49.743  1.00  0.00     0.073 A 
HETATM    3  N1  UNL     1      22.923   2.473  48.839  1.00  0.00    -0.243 NA
HETATM    4  C9  UNL     1      24.043   3.136  49.067  1.00  0.00     0.235 A 
HETATM    5  N2  UNL     1      24.547   2.994  50.280  1.00  0.00    -0.224 NA
HETATM    6  C10 UNL     1      23.994   2.250  51.220  1.00  0.00     0.142 A 
ENDROOT
BRANCH   1   7
HETATM    7  C5  UNL     1      22.195   0.726  52.026  1.00  0.00    -0.009 C 
HETATM    8  C4  UNL     1      21.223   1.131  52.872  1.00  0.00     0.077 C 
HETATM    9  C19 UNL     1      20.463   0.472  53.957  1.00  0.00     0.232 C 
HETATM   10  O3  UNL     1      20.849  -0.834  54.089  1.00  0.00    -0.384 OA
HETATM   11  C18 UNL     1      22.216  -0.936  53.854  1.00  0.00     0.172 C 
HETATM   12  C17 UNL     1      22.475  -0.710  52.354  1.00  0.00     0.068 C 
BRANCH   8  13
HETATM   13  O1  UNL     1      20.707   2.451  52.844  1.00  0.00    -0.353 OA
BRANCH  13  14
HETATM   14  C3  UNL     1      19.504   2.629  52.119  1.00  0.00     0.175 C 
BRANCH  14  15
HETATM   15  C2  UNL     1      19.537   3.895  51.292  1.00  0.00     0.022 C 
HETATM   16  C1  UNL     1      20.888   4.541  51.519  1.00  0.00     0.007 C 
ENDBRANCH  14  15
ENDBRANCH  13  14
ENDBRANCH   8  13
ENDBRANCH   1   7
BRANCH   2  17
HETATM   17  C8  UNL     1      21.042   0.982  49.384  1.00  0.00     0.224 C 
BRANCH  17  18
HETATM   18  O2  UNL     1      20.245   1.718  48.505  1.00  0.00    -0.395 OA
HETATM   19  H10 UNL     1      20.526   1.644  47.564  1.00  0.00     0.209 HD
ENDBRANCH  17  18
ENDBRANCH   2  17
BRANCH   6  20
HETATM   20  N3  UNL     1      24.724   2.153  52.434  1.00  0.00    -0.340 N 
HETATM   21  H12 UNL     1      24.321   2.710  53.236  1.00  0.00     0.167 HD
BRANCH  20  22
HETATM   22  C11 UNL     1      25.879   1.447  52.865  1.00  0.00     0.035 A 
HETATM   23  C12 UNL     1      26.934   2.031  53.578  1.00  0.00     0.032 A 
HETATM   24  C13 UNL     1      27.993   1.224  53.920  1.00  0.00     0.046 A 
HETATM   25  C14 UNL     1      28.087  -0.105  53.613  1.00  0.00     0.138 A 
HETATM   26  F1  UNL     1      29.206  -0.723  54.037  1.00  0.00    -0.204 F 
HETATM   27  C15 UNL     1      27.046  -0.676  52.912  1.00  0.00     0.074 A 
HETATM   28 CL1  UNL     1      27.240  -2.386  52.554  1.00  0.00    -0.081 Cl
HETATM   29  C16 UNL     1      25.967   0.107  52.553  1.00  0.00     0.056 A 
ENDBRANCH  20  22
ENDBRANCH   6  20
TORSDOF 8
ENDMDL
MODEL 4
REMARK VINA RESULT:      -7.5      1.918      2.288
REMARK  8 active torsions:
REMARK  status: ('A' for Active; 'I' for Inactive)
REMARK    1  A    between atoms: C2_2  and  C3_3 
REMARK    2  A    between atoms: C3_3  and  O1_4 
REMARK    3  A    between atoms: O1_4  and  C4_5 
REMARK    4  A    between atoms: C5_6  and  C6_7 
REMARK    5  A    between atoms: C7_8  and  C8_9 
REMARK    6  A    between atoms: C8_9  and  O2_10 
REMARK    7  A    between atoms: C10_14  and  N3_15 
REMARK    8  A    between atoms: N3_15  and  C11_16 
ROOT
HETATM    1  C6  UNL     1      21.920   0.844  52.095  1.00  0.00     0.046 A 
HETATM    2  C7  UNL     1      20.720   0.966  52.772  1.00  0.00     0.073 A 
HETATM    3  N1  UNL     1      20.617   0.517  54.040  1.00  0.00    -0.243 NA
HETATM    4  C9  UNL     1      21.598  -0.051  54.718  1.00  0.00     0.235 A 
HETATM    5  N2  UNL     1      22.743  -0.164  54.069  1.00  0.00    -0.224 NA
HETATM    6  C10 UNL     1      22.926   0.250  52.828  1.00  0.00     0.142 A 
ENDROOT
BRANCH   1   7
HETATM    7  C5  UNL     1      22.091   1.307  50.732  1.00  0.00    -0.009 C 
HETATM    8  C4  UNL     1      22.869   2.341  50.346  1.00  0.00     0.077 C 
HETATM    9  C19 UNL     1      23.175   2.968  49.042  1.00  0.00     0.232 C 
HETATM   10  O3  UNL     1      22.519   2.320  48.032  1.00  0.00    -0.384 OA
HETATM   11  C18 UNL     1      21.269   1.913  48.482  1.00  0.00     0.172 C 
HETATM   12  C17 UNL     1      21.458   0.763  49.486  1.00  0.00     0.068 C 
BRANCH   8  13
HETATM   13  O1  UNL     1      23.624   3.099  51.277  1.00  0.00    -0.353 OA
BRANCH  13  14
HETATM   14  C3  UNL     1      24.619   3.941  50.726  1.00  0.00     0.175 C 
BRANCH  14  15
HETATM   15  C2  UNL     1      25.976   3.272  50.730  1.00  0.00     0.022 C 
HETATM   16  C1  UNL     1      26.738   3.804  49.535  1.00  0.00     0.007 C 
ENDBRANCH  14  15
ENDBRANCH  13  14
ENDBRANCH   8  13
ENDBRANCH   1   7
BRANCH   2  17
HETATM   17  C8  UNL     1      19.557   1.598  52.099  1.00  0.00     0.224 C 
BRANCH  17  18
HETATM   18  O2  UNL     1      19.431   2.953  52.415  1.00  0.00    -0.395 OA
HETATM   19  H10 UNL     1      19.874   3.549  51.769  1.00  0.00     0.209 HD
ENDBRANCH  17  18
ENDBRANCH   2  17
BRANCH   6  20
HETATM   20  N3  UNL     1      24.247   0.119  52.326  1.00  0.00    -0.340 N 
HETATM   21  H12 UNL     1      24.310   0.001  51.278  1.00  0.00     0.167 HD
BRANCH  20  22
HETATM   22  C11 UNL     1      25.550   0.142  52.892  1.00  0.00     0.035 A 
HETATM   23  C12 UNL     1      26.057   1.206  53.649  1.00  0.00     0.032 A 
HETATM   24  C13 UNL     1      27.342   1.091  54.124  1.00  0.00     0.046 A 
HETATM   25  C14 UNL     1      28.156   0.014  53.909  1.00  0.00     0.138 A 
HETATM   26  F1  UNL     1      29.383   0.092  54.460  1.00  0.00    -0.204 F 
HETATM   27  C15 UNL     1      27.652  -1.031  53.164  1.00  0.00     0.074 A 
HETATM   28 CL1  UNL     1      28.757  -2.378  52.930  1.00  0.00    -0.081 Cl
HETATM   29  C16 UNL     1      26.365  -0.948  52.671  1.00  0.00     0.056 A 
ENDBRANCH  20  22
ENDBRANCH   6  20
TORSDOF 8
ENDMDL
MODEL 5
REMARK VINA RESULT:      -7.4      3.422      5.211
REMARK  8 active torsions:
REMARK  status: ('A' for Active; 'I' for Inactive)
REMARK    1  A    between atoms: C2_2  and  C3_3 
REMARK    2  A    between atoms: C3_3  and  O1_4 
REMARK    3  A    between atoms: O1_4  and  C4_5 
REMARK    4  A    between atoms: C5_6  and  C6_7 
REMARK    5  A    between atoms: C7_8  and  C8_9 
REMARK    6  A    between atoms: C8_9  and  O2_10 
REMARK    7  A    between atoms: C10_14  and  N3_15 
REMARK    8  A    between atoms: N3_15  and  C11_16 
ROOT
HETATM    1  C6  UNL     1      24.587   3.823  50.017  1.00  0.00     0.046 A 
HETATM    2  C7  UNL     1      23.410   3.637  49.315  1.00  0.00     0.073 A 
HETATM    3  N1  UNL     1      22.616   2.586  49.603  1.00  0.00    -0.243 NA
HETATM    4  C9  UNL     1      22.872   1.683  50.533  1.00  0.00     0.235 A 
HETATM    5  N2  UNL     1      23.996   1.865  51.203  1.00  0.00    -0.224 NA
HETATM    6  C10 UNL     1      24.826   2.868  50.982  1.00  0.00     0.142 A 
ENDROOT
BRANCH   1   7
HETATM    7  C5  UNL     1      25.481   4.933  49.752  1.00  0.00    -0.009 C 
HETATM    8  C4  UNL     1      25.333   6.190  50.225  1.00  0.00     0.077 C 
HETATM    9  C19 UNL     1      26.106   7.442  50.077  1.00  0.00     0.232 C 
HETATM   10  O3  UNL     1      27.210   7.236  49.297  1.00  0.00    -0.384 OA
HETATM   11  C18 UNL     1      26.899   6.331  48.288  1.00  0.00     0.172 C 
HETATM   12  C17 UNL     1      26.726   4.936  48.915  1.00  0.00     0.068 C 
BRANCH   8  13
HETATM   13  O1  UNL     1      24.247   6.553  51.061  1.00  0.00    -0.353 OA
BRANCH  13  14
HETATM   14  C3  UNL     1      23.588   7.760  50.728  1.00  0.00     0.175 C 
BRANCH  14  15
HETATM   15  C2  UNL     1      22.132   7.523  50.392  1.00  0.00     0.022 C 
HETATM   16  C1  UNL     1      21.684   6.310  51.181  1.00  0.00     0.007 C 
ENDBRANCH  14  15
ENDBRANCH  13  14
ENDBRANCH   8  13
ENDBRANCH   1   7
BRANCH   2  17
HETATM   17  C8  UNL     1      23.027   4.603  48.253  1.00  0.00     0.224 C 
BRANCH  17  18
HETATM   18  O2  UNL     1      22.074   4.080  47.377  1.00  0.00    -0.395 OA
HETATM   19  H10 UNL     1      22.218   3.130  47.161  1.00  0.00     0.209 HD
ENDBRANCH  17  18
ENDBRANCH   2  17
BRANCH   6  20
HETATM   20  N3  UNL     1      25.942   2.945  51.857  1.00  0.00    -0.340 N 
HETATM   21  H12 UNL     1      26.166   3.918  52.200  1.00  0.00     0.167 HD
BRANCH  20  22
HETATM   22  C11 UNL     1      26.841   2.007  52.434  1.00  0.00     0.035 A 
HETATM   23  C12 UNL     1      27.987   2.363  53.156  1.00  0.00     0.032 A 
HETATM   24  C13 UNL     1      28.770   1.345  53.646  1.00  0.00     0.046 A 
HETATM   25  C14 UNL     1      28.507   0.014  53.478  1.00  0.00     0.138 A 
HETATM   26  F1  UNL     1      29.396  -0.830  54.037  1.00  0.00    -0.204 F 
HETATM   27  C15 UNL     1      27.377  -0.332  52.768  1.00  0.00     0.074 A 
HETATM   28 CL1  UNL     1      27.107  -2.060  52.595  1.00  0.00    -0.081 Cl
HETATM   29  C16 UNL     1      26.569   0.666  52.261  1.00  0.00     0.056 A 
ENDBRANCH  20  22
ENDBRANCH   6  20
TORSDOF 8
ENDMDL
MODEL 6
REMARK VINA RESULT:      -7.2      3.895      5.908
REMARK  8 active torsions:
REMARK  status: ('A' for Active; 'I' for Inactive)
REMARK    1  A    between atoms: C2_2  and  C3_3 
REMARK    2  A    between atoms: C3_3  and  O1_4 
REMARK    3  A    between atoms: O1_4  and  C4_5 
REMARK    4  A    between atoms: C5_6  and  C6_7 
REMARK    5  A    between atoms: C7_8  and  C8_9 
REMARK    6  A    between atoms: C8_9  and  O2_10 
REMARK    7  A    between atoms: C10_14  and  N3_15 
REMARK    8  A    between atoms: N3_15  and  C11_16 
ROOT
HETATM    1  C6  UNL     1      24.962   2.995  51.153  1.00  0.00     0.046 A 
HETATM    2  C7  UNL     1      26.283   3.002  50.745  1.00  0.00     0.073 A 
HETATM    3  N1  UNL     1      27.238   2.497  51.553  1.00  0.00    -0.243 NA
HETATM    4  C9  UNL     1      27.014   1.976  52.746  1.00  0.00     0.235 A 
HETATM    5  N2  UNL     1      25.750   1.969  53.132  1.00  0.00    -0.224 NA
HETATM    6  C10 UNL     1      24.758   2.443  52.400  1.00  0.00     0.142 A 
ENDROOT
BRANCH   1   7
HETATM    7  C5  UNL     1      23.893   3.523  50.328  1.00  0.00    -0.009 C 
HETATM    8  C4  UNL     1      23.382   4.770  50.412  1.00  0.00     0.077 C 
HETATM    9  C19 UNL     1      22.314   5.495  49.688  1.00  0.00     0.232 C 
HETATM   10  O3  UNL     1      21.761   4.698  48.724  1.00  0.00    -0.384 OA
HETATM   11  C18 UNL     1      21.707   3.388  49.185  1.00  0.00     0.172 C 
HETATM   12  C17 UNL     1      23.138   2.825  49.237  1.00  0.00     0.068 C 
BRANCH   8  13
HETATM   13  O1  UNL     1      23.863   5.717  51.351  1.00  0.00    -0.353 OA
BRANCH  13  14
HETATM   14  C3  UNL     1      24.179   6.996  50.833  1.00  0.00     0.175 C 
BRANCH  14  15
HETATM   15  C2  UNL     1      25.566   7.023  50.230  1.00  0.00     0.022 C 
HETATM   16  C1  UNL     1      26.013   8.470  50.205  1.00  0.00     0.007 C 
ENDBRANCH  14  15
ENDBRANCH  13  14
ENDBRANCH   8  13
ENDBRANCH   1   7
BRANCH   2  17
HETATM   17  C8  UNL     1      26.639   3.559  49.415  1.00  0.00     0.224 C 
BRANCH  17  18
HETATM   18  O2  UNL     1      27.700   4.464  49.483  1.00  0.00    -0.395 OA
HETATM   19  H10 UNL     1      28.342   4.373  48.742  1.00  0.00     0.209 HD
ENDBRANCH  17  18
ENDBRANCH   2  17
BRANCH   6  20
HETATM   20  N3  UNL     1      23.459   2.274  52.945  1.00  0.00    -0.340 N 
HETATM   21  H12 UNL     1      22.966   3.173  53.197  1.00  0.00     0.167 HD
BRANCH  20  22
HETATM   22  C11 UNL     1      22.612   1.164  53.216  1.00  0.00     0.035 A 
HETATM   23  C12 UNL     1      22.981   0.074  54.013  1.00  0.00     0.032 A 
HETATM   24  C13 UNL     1      22.060  -0.933  54.178  1.00  0.00     0.046 A 
HETATM   25  C14 UNL     1      20.813  -0.944  53.617  1.00  0.00     0.138 A 
HETATM   26  F1  UNL     1      20.057  -2.022  53.899  1.00  0.00    -0.204 F 
HETATM   27  C15 UNL     1      20.454   0.133  52.834  1.00  0.00     0.074 A 
HETATM   28 CL1  UNL     1      18.837   0.048  52.149  1.00  0.00    -0.081 Cl
HETATM   29  C16 UNL     1      21.356   1.161  52.648  1.00  0.00     0.056 A 
ENDBRANCH  20  22
ENDBRANCH   6  20
TORSDOF 8
ENDMDL
MODEL 7
REMARK VINA RESULT:      -7.2      2.374      4.446
REMARK  8 active torsions:
REMARK  status: ('A' for Active; 'I' for Inactive)
REMARK    1  A    between atoms: C2_2  and  C3_3 
REMARK    2  A    between atoms: C3_3  and  O1_4 
REMARK    3  A    between atoms: O1_4  and  C4_5 
REMARK    4  A    between atoms: C5_6  and  C6_7 
REMARK    5  A    between atoms: C7_8  and  C8_9 
REMARK    6  A    between atoms: C8_9  and  O2_10 
REMARK    7  A    between atoms: C10_14  and  N3_15 
REMARK    8  A    between atoms: N3_15  and  C11_16 
ROOT
HETATM    1  C6  UNL     1      23.743   3.276  51.255  1.00  0.00     0.046 A 
HETATM    2  C7  UNL     1      23.077   4.484  51.152  1.00  0.00     0.073 A 
HETATM    3  N1  UNL     1      23.727   5.572  50.691  1.00  0.00    -0.243 NA
HETATM    4  C9  UNL     1      24.993   5.587  50.314  1.00  0.00     0.235 A 
HETATM    5  N2  UNL     1      25.626   4.431  50.411  1.00  0.00    -0.224 NA
HETATM    6  C10 UNL     1      25.061   3.322  50.852  1.00  0.00     0.142 A 
ENDROOT
BRANCH   1   7
HETATM    7  C5  UNL     1      23.096   2.074  51.743  1.00  0.00    -0.009 C 
HETATM    8  C4  UNL     1      22.376   1.211  50.994  1.00  0.00     0.077 C 
HETATM    9  C19 UNL     1      21.647  -0.042  51.285  1.00  0.00     0.232 C 
HETATM   10  O3  UNL     1      21.764  -0.371  52.608  1.00  0.00    -0.384 OA
HETATM   11  C18 UNL     1      21.755   0.790  53.373  1.00  0.00     0.172 C 
HETATM   12  C17 UNL     1      23.079   1.541  53.144  1.00  0.00     0.068 C 
BRANCH   8  13
HETATM   13  O1  UNL     1      22.181   1.408  49.604  1.00  0.00    -0.353 OA
BRANCH  13  14
HETATM   14  C3  UNL     1      20.834   1.494  49.176  1.00  0.00     0.175 C 
BRANCH  14  15
HETATM   15  C2  UNL     1      20.678   2.466  48.028  1.00  0.00     0.022 C 
HETATM   16  C1  UNL     1      22.070   2.828  47.557  1.00  0.00     0.007 C 
ENDBRANCH  14  15
ENDBRANCH  13  14
ENDBRANCH   8  13
ENDBRANCH   1   7
BRANCH   2  17
HETATM   17  C8  UNL     1      21.647   4.571  51.543  1.00  0.00     0.224 C 
BRANCH  17  18
HETATM   18  O2  UNL     1      20.839   5.045  50.507  1.00  0.00    -0.395 OA
HETATM   19  H10 UNL     1      19.935   4.654  50.504  1.00  0.00     0.209 HD
ENDBRANCH  17  18
ENDBRANCH   2  17
BRANCH   6  20
HETATM   20  N3  UNL     1      25.874   2.159  50.808  1.00  0.00    -0.340 N 
HETATM   21  H12 UNL     1      25.991   1.740  49.845  1.00  0.00     0.167 HD
BRANCH  20  22
HETATM   22  C11 UNL     1      26.623   1.413  51.758  1.00  0.00     0.035 A 
HETATM   23  C12 UNL     1      26.463   0.039  51.976  1.00  0.00     0.032 A 
HETATM   24  C13 UNL     1      27.252  -0.548  52.936  1.00  0.00     0.046 A 
HETATM   25  C14 UNL     1      28.178   0.116  53.692  1.00  0.00     0.138 A 
HETATM   26  F1  UNL     1      28.852  -0.637  54.582  1.00  0.00    -0.204 F 
HETATM   27  C15 UNL     1      28.333   1.469  53.473  1.00  0.00     0.074 A 
HETATM   28 CL1  UNL     1      29.541   2.252  54.481  1.00  0.00    -0.081 Cl
HETATM   29  C16 UNL     1      27.556   2.089  52.515  1.00  0.00     0.056 A 
ENDBRANCH  20  22
ENDBRANCH   6  20
TORSDOF 8
ENDMDL
MODEL 8
REMARK VINA RESULT:      -7.2      3.793      6.245
REMARK  8 active torsions:
REMARK  status: ('A' for Active; 'I' for Inactive)
REMARK    1  A    between atoms: C2_2  and  C3_3 
REMARK    2  A    between atoms: C3_3  and  O1_4 
REMARK    3  A    between atoms: O1_4  and  C4_5 
REMARK    4  A    between atoms: C5_6  and  C6_7 
REMARK    5  A    between atoms: C7_8  and  C8_9 
REMARK    6  A    between atoms: C8_9  and  O2_10 
REMARK    7  A    between atoms: C10_14  and  N3_15 
REMARK    8  A    between atoms: N3_15  and  C11_16 
ROOT
HETATM    1  C6  UNL     1      24.845   3.395  50.939  1.00  0.00     0.046 A 
HETATM    2  C7  UNL     1      26.153   3.464  50.494  1.00  0.00     0.073 A 
HETATM    3  N1  UNL     1      27.094   2.673  51.049  1.00  0.00    -0.243 NA
HETATM    4  C9  UNL     1      26.867   1.803  52.018  1.00  0.00     0.235 A 
HETATM    5  N2  UNL     1      25.616   1.738  52.438  1.00  0.00    -0.224 NA
HETATM    6  C10 UNL     1      24.639   2.477  51.947  1.00  0.00     0.142 A 
ENDROOT
BRANCH   1   7
HETATM    7  C5  UNL     1      23.793   4.221  50.381  1.00  0.00    -0.009 C 
HETATM    8  C4  UNL     1      23.051   3.918  49.294  1.00  0.00     0.077 C 
HETATM    9  C19 UNL     1      21.957   4.603  48.571  1.00  0.00     0.232 C 
HETATM   10  O3  UNL     1      21.651   5.791  49.177  1.00  0.00    -0.384 OA
HETATM   11  C18 UNL     1      22.817   6.373  49.661  1.00  0.00     0.172 C 
HETATM   12  C17 UNL     1      23.311   5.556  50.867  1.00  0.00     0.068 C 
BRANCH   8  13
HETATM   13  O1  UNL     1      23.239   2.713  48.570  1.00  0.00    -0.353 OA
BRANCH  13  14
HETATM   14  C3  UNL     1      22.062   2.087  48.096  1.00  0.00     0.175 C 
BRANCH  14  15
HETATM   15  C2  UNL     1      21.564   1.035  49.064  1.00  0.00     0.022 C 
HETATM   16  C1  UNL     1      20.119   1.362  49.372  1.00  0.00     0.007 C 
ENDBRANCH  14  15
ENDBRANCH  13  14
ENDBRANCH   8  13
ENDBRANCH   1   7
BRANCH   2  17
HETATM   17  C8  UNL     1      26.510   4.406  49.402  1.00  0.00     0.224 C 
BRANCH  17  18
HETATM   18  O2  UNL     1      27.870   4.722  49.395  1.00  0.00    -0.395 OA
HETATM   19  H10 UNL     1      28.410   4.150  49.987  1.00  0.00     0.209 HD
ENDBRANCH  17  18
ENDBRANCH   2  17
BRANCH   6  20
HETATM   20  N3  UNL     1      23.346   2.209  52.467  1.00  0.00    -0.340 N 
HETATM   21  H12 UNL     1      22.677   3.026  52.429  1.00  0.00     0.167 HD
BRANCH  20  22
HETATM   22  C11 UNL     1      22.692   1.072  53.014  1.00  0.00     0.035 A 
HETATM   23  C12 UNL     1      23.329   0.108  53.805  1.00  0.00     0.032 A 
HETATM   24  C13 UNL     1      22.570  -0.945  54.257  1.00  0.00     0.046 A 
HETATM   25  C14 UNL     1      21.241  -1.116  53.987  1.00  0.00     0.138 A 
HETATM   26  F1  UNL     1      20.674  -2.215  54.523  1.00  0.00    -0.204 F 
HETATM   27  C15 UNL     1      20.617  -0.163  53.209  1.00  0.00     0.074 A 
HETATM   28 CL1  UNL     1      18.910  -0.451  52.906  1.00  0.00    -0.081 Cl
HETATM   29  C16 UNL     1      21.351   0.907  52.739  1.00  0.00     0.056 A 
ENDBRANCH  20  22
ENDBRANCH   6  20
TORSDOF 8
ENDMDL
MODEL 9
REMARK VINA RESULT:      -7.2      3.417      6.000
REMARK  8 active torsions:
REMARK  status: ('A' for Active; 'I' for Inactive)
REMARK    1  A    between atoms: C2_2  and  C3_3 
REMARK    2  A    between atoms: C3_3  and  O1_4 
REMARK    3  A    between atoms: O1_4  and  C4_5 
REMARK    4  A    between atoms: C5_6  and  C6_7 
REMARK    5  A    between atoms: C7_8  and  C8_9 
REMARK    6  A    between atoms: C8_9  and  O2_10 
REMARK    7  A    between atoms: C10_14  and  N3_15 
REMARK    8  A    between atoms: N3_15  and  C11_16 
ROOT
HETATM    1  C6  UNL     1      25.310   4.623  49.890  1.00  0.00     0.046 A 
HETATM    2  C7  UNL     1      25.442   5.834  49.235  1.00  0.00     0.073 A 
HETATM    3  N1  UNL     1      26.593   6.128  48.595  1.00  0.00    -0.243 NA
HETATM    4  C9  UNL     1      27.645   5.331  48.537  1.00  0.00     0.235 A 
HETATM    5  N2  UNL     1      27.514   4.175  49.162  1.00  0.00    -0.224 NA
HETATM    6  C10 UNL     1      26.422   3.812  49.809  1.00  0.00     0.142 A 
ENDROOT
BRANCH   1   7
HETATM    7  C5  UNL     1      24.098   4.252  50.594  1.00  0.00    -0.009 C 
HETATM    8  C4  UNL     1      23.113   3.470  50.102  1.00  0.00     0.077 C 
HETATM    9  C19 UNL     1      21.823   2.983  50.636  1.00  0.00     0.232 C 
HETATM   10  O3  UNL     1      21.631   3.432  51.914  1.00  0.00    -0.384 OA
HETATM   11  C18 UNL     1      22.143   4.719  52.030  1.00  0.00     0.172 C 
HETATM   12  C17 UNL     1      23.679   4.645  51.979  1.00  0.00     0.068 C 
BRANCH   8  13
HETATM   13  O1  UNL     1      23.177   2.915  48.799  1.00  0.00    -0.353 OA
BRANCH  13  14
HETATM   14  C3  UNL     1      22.043   3.129  47.980  1.00  0.00     0.175 C 
BRANCH  14  15
HETATM   15  C2  UNL     1      22.209   4.356  47.110  1.00  0.00     0.022 C 
HETATM   16  C1  UNL     1      21.856   3.950  45.695  1.00  0.00     0.007 C 
ENDBRANCH  14  15
ENDBRANCH  13  14
ENDBRANCH   8  13
ENDBRANCH   1   7
BRANCH   2  17
HETATM   17  C8  UNL     1      24.312   6.798  49.235  1.00  0.00     0.224 C 
BRANCH  17  18
HETATM   18  O2  UNL     1      24.443   7.771  50.227  1.00  0.00    -0.395 OA
HETATM   19  H10 UNL     1      25.015   8.527  49.963  1.00  0.00     0.209 HD
ENDBRANCH  17  18
ENDBRANCH   2  17
BRANCH   6  20
HETATM   20  N3  UNL     1      26.436   2.499  50.349  1.00  0.00    -0.340 N 
HETATM   21  H12 UNL     1      26.435   1.726  49.628  1.00  0.00     0.167 HD
BRANCH  20  22
HETATM   22  C11 UNL     1      26.487   1.944  51.656  1.00  0.00     0.035 A 
HETATM   23  C12 UNL     1      27.536   2.161  52.559  1.00  0.00     0.032 A 
HETATM   24  C13 UNL     1      27.454   1.550  53.787  1.00  0.00     0.046 A 
HETATM   25  C14 UNL     1      26.423   0.746  54.186  1.00  0.00     0.138 A 
HETATM   26  F1  UNL     1      26.527   0.239  55.430  1.00  0.00    -0.204 F 
HETATM   27  C15 UNL     1      25.392   0.535  53.294  1.00  0.00     0.074 A 
HETATM   28 CL1  UNL     1      24.104  -0.508  53.879  1.00  0.00    -0.081 Cl
HETATM   29  C16 UNL     1      25.444   1.135  52.052  1.00  0.00     0.056 A 
ENDBRANCH  20  22
ENDBRANCH   6  20
TORSDOF 8
ENDMDL
