MODEL 1
REMARK VINA RESULT:      -9.7      0.000      0.000
REMARK  3 active torsions:
REMARK  status: ('A' for Active; 'I' for Inactive)
REMARK    1  A    between atoms: C2_2  and  C3_3 
REMARK    2  A    between atoms: C9_9  and  N1_10 
REMARK    3  A    between atoms: N1_10  and  C10_11 
ROOT
HETATM    1  C3  UNL     1      27.496   7.473  48.667  1.00  0.00     0.013 C 
HETATM    2  C4  UNL     1      26.541   6.763  49.242  1.00  0.00     0.031 C 
HETATM    3  C5  UNL     1      26.283   5.376  48.879  1.00  0.00     0.014 C 
HETATM    4  C6  UNL     1      25.218   4.612  49.089  1.00  0.00    -0.011 C 
HETATM    5  C7  UNL     1      23.942   4.907  49.757  1.00  0.00     0.083 A 
HETATM    6  C8  UNL     1      23.261   3.690  50.261  1.00  0.00     0.018 A 
HETATM    7  C9  UNL     1      23.064   3.776  51.587  1.00  0.00     0.048 A 
HETATM    8  C19 UNL     1      23.589   5.042  52.092  1.00  0.00     0.056 A 
HETATM    9  C20 UNL     1      24.093   5.684  51.024  1.00  0.00     0.026 A 
HETATM   10  N5  UNL     1      24.704   6.978  51.139  1.00  0.00    -0.326 N 
HETATM   11  C21 UNL     1      25.752   7.464  50.273  1.00  0.00     0.256 C 
HETATM   12  O1  UNL     1      26.046   8.699  50.422  1.00  0.00    -0.267 OA
HETATM   13  H17 UNL     1      24.368   7.595  51.891  1.00  0.00     0.169 HD
ENDROOT
BRANCH   7  14
HETATM   14  N1  UNL     1      22.430   2.757  52.360  1.00  0.00    -0.188 N 
HETATM   15  H9  UNL     1      21.405   2.838  52.549  1.00  0.00     0.184 HD
BRANCH  14  16
HETATM   16  C10 UNL     1      23.182   1.660  52.860  1.00  0.00     0.727 A 
HETATM   17  N2  UNL     1      22.582   0.474  53.045  1.00  0.00    -0.075 NA
HETATM   18  C11 UNL     1      23.247  -0.595  53.516  1.00  0.00     0.139 A 
HETATM   19  C12 UNL     1      24.601  -0.405  53.803  1.00  0.00     0.053 A 
HETATM   20  C13 UNL     1      25.239   0.803  53.621  1.00  0.00     0.089 A 
HETATM   21  C14 UNL     1      26.642   0.986  53.923  1.00  0.00     0.011 A 
HETATM   22  N4  UNL     1      24.486   1.835  53.139  1.00  0.00    -0.062 NA
HETATM   23  C15 UNL     1      27.499   0.026  54.411  1.00  0.00     0.017 A 
HETATM   24  C18 UNL     1      27.217   2.229  53.715  1.00  0.00     0.130 A 
HETATM   25  C16 UNL     1      28.815   0.325  54.657  1.00  0.00     0.020 A 
HETATM   26  C17 UNL     1      29.340   1.590  54.432  1.00  0.00     0.116 A 
HETATM   27  N3  UNL     1      28.497   2.523  53.955  1.00  0.00    -0.272 NA
ENDBRANCH  14  16
ENDBRANCH   7  14
BRANCH   1  28
HETATM   28  C2  UNL     1      28.359   6.929  47.634  1.00  0.00    -0.025 C 
HETATM   29  C1  UNL     1      29.563   6.494  47.963  1.00  0.00     0.031 C 
ENDBRANCH   1  28
TORSDOF 3
ENDMDL
MODEL 2
REMARK VINA RESULT:      -9.1      7.093     10.553
REMARK  3 active torsions:
REMARK  status: ('A' for Active; 'I' for Inactive)
REMARK    1  A    between atoms: C2_2  and  C3_3 
REMARK    2  A    between atoms: C9_9  and  N1_10 
REMARK    3  A    between atoms: N1_10  and  C10_11 
ROOT
HETATM    1  C3  UNL     1      24.488  -0.682  54.144  1.00  0.00     0.013 C 
HETATM    2  C4  UNL     1      23.235  -0.494  53.773  1.00  0.00     0.031 C 
HETATM    3  C5  UNL     1      22.886   0.253  52.571  1.00  0.00     0.014 C 
HETATM    4  C6  UNL     1      21.739   0.810  52.202  1.00  0.00    -0.011 C 
HETATM    5  C7  UNL     1      20.436   0.862  52.881  1.00  0.00     0.083 A 
HETATM    6  C8  UNL     1      19.308   1.079  51.943  1.00  0.00     0.018 A 
HETATM    7  C9  UNL     1      18.422   0.074  52.032  1.00  0.00     0.048 A 
HETATM    8  C19 UNL     1      18.867  -0.902  53.023  1.00  0.00     0.056 A 
HETATM    9  C20 UNL     1      20.031  -0.433  53.504  1.00  0.00     0.026 A 
HETATM   10  N5  UNL     1      20.773  -1.140  54.510  1.00  0.00    -0.326 N 
HETATM   11  C21 UNL     1      22.208  -1.087  54.652  1.00  0.00     0.256 C 
HETATM   12  O1  UNL     1      22.668  -1.643  55.708  1.00  0.00    -0.267 OA
HETATM   13  H17 UNL     1      20.239  -1.721  55.170  1.00  0.00     0.169 HD
ENDROOT
BRANCH   7  14
HETATM   14  N1  UNL     1      17.228   0.000  51.253  1.00  0.00    -0.188 N 
HETATM   15  H9  UNL     1      17.304   0.073  50.213  1.00  0.00     0.184 HD
BRANCH  14  16
HETATM   16  C10 UNL     1      15.966  -0.168  51.884  1.00  0.00     0.727 A 
HETATM   17  N2  UNL     1      15.443  -1.398  52.006  1.00  0.00    -0.075 NA
HETATM   18  C11 UNL     1      14.253  -1.612  52.593  1.00  0.00     0.139 A 
HETATM   19  C12 UNL     1      13.587  -0.480  53.071  1.00  0.00     0.053 A 
HETATM   20  C13 UNL     1      14.103   0.793  52.958  1.00  0.00     0.089 A 
HETATM   21  C14 UNL     1      13.401   1.955  53.458  1.00  0.00     0.011 A 
HETATM   22  N4  UNL     1      15.317   0.916  52.347  1.00  0.00    -0.062 NA
HETATM   23  C15 UNL     1      12.178   1.955  54.087  1.00  0.00     0.017 A 
HETATM   24  C18 UNL     1      13.981   3.204  53.308  1.00  0.00     0.130 A 
HETATM   25  C16 UNL     1      11.615   3.130  54.517  1.00  0.00     0.020 A 
HETATM   26  C17 UNL     1      12.239   4.357  54.341  1.00  0.00     0.116 A 
HETATM   27  N3  UNL     1      13.435   4.349  53.724  1.00  0.00    -0.272 NA
ENDBRANCH  14  16
ENDBRANCH   7  14
BRANCH   1  28
HETATM   28  C2  UNL     1      25.613  -0.162  53.387  1.00  0.00    -0.025 C 
HETATM   29  C1  UNL     1      26.419  -1.006  52.767  1.00  0.00     0.031 C 
ENDBRANCH   1  28
TORSDOF 3
ENDMDL
MODEL 3
REMARK VINA RESULT:      -9.1      2.081      3.947
REMARK  3 active torsions:
REMARK  status: ('A' for Active; 'I' for Inactive)
REMARK    1  A    between atoms: C2_2  and  C3_3 
REMARK    2  A    between atoms: C9_9  and  N1_10 
REMARK    3  A    between atoms: N1_10  and  C10_11 
ROOT
HETATM    1  C3  UNL     1      30.687   6.033  47.685  1.00  0.00     0.013 C 
HETATM    2  C4  UNL     1      29.485   6.235  48.195  1.00  0.00     0.031 C 
HETATM    3  C5  UNL     1      28.569   5.138  48.478  1.00  0.00     0.014 C 
HETATM    4  C6  UNL     1      27.257   5.138  48.680  1.00  0.00    -0.011 C 
HETATM    5  C7  UNL     1      26.288   6.244  48.687  1.00  0.00     0.083 A 
HETATM    6  C8  UNL     1      25.066   5.933  49.467  1.00  0.00     0.018 A 
HETATM    7  C9  UNL     1      24.895   6.829  50.453  1.00  0.00     0.048 A 
HETATM    8  C19 UNL     1      25.974   7.813  50.428  1.00  0.00     0.056 A 
HETATM    9  C20 UNL     1      26.770   7.461  49.404  1.00  0.00     0.026 A 
HETATM   10  N5  UNL     1      27.951   8.209  49.073  1.00  0.00    -0.326 N 
HETATM   11  C21 UNL     1      29.128   7.643  48.460  1.00  0.00     0.256 C 
HETATM   12  O1  UNL     1      30.005   8.494  48.086  1.00  0.00    -0.267 OA
HETATM   13  H17 UNL     1      27.950   9.215  49.290  1.00  0.00     0.169 HD
ENDROOT
BRANCH   7  14
HETATM   14  N1  UNL     1      23.806   6.794  51.374  1.00  0.00    -0.188 N 
HETATM   15  H9  UNL     1      23.578   7.662  51.911  1.00  0.00     0.184 HD
BRANCH  14  16
HETATM   16  C10 UNL     1      23.052   5.604  51.553  1.00  0.00     0.727 A 
HETATM   17  N2  UNL     1      21.748   5.590  51.236  1.00  0.00    -0.075 NA
HETATM   18  C11 UNL     1      20.989   4.490  51.387  1.00  0.00     0.139 A 
HETATM   19  C12 UNL     1      21.634   3.359  51.892  1.00  0.00     0.053 A 
HETATM   20  C13 UNL     1      22.971   3.348  52.224  1.00  0.00     0.089 A 
HETATM   21  C14 UNL     1      23.625   2.168  52.747  1.00  0.00     0.011 A 
HETATM   22  N4  UNL     1      23.664   4.509  52.039  1.00  0.00    -0.062 NA
HETATM   23  C15 UNL     1      23.034   0.947  52.976  1.00  0.00     0.017 A 
HETATM   24  C18 UNL     1      24.973   2.231  53.060  1.00  0.00     0.130 A 
HETATM   25  C16 UNL     1      23.765  -0.100  53.478  1.00  0.00     0.020 A 
HETATM   26  C17 UNL     1      25.116   0.018  53.775  1.00  0.00     0.116 A 
HETATM   27  N3  UNL     1      25.687   1.215  53.549  1.00  0.00    -0.272 NA
ENDBRANCH  14  16
ENDBRANCH   7  14
BRANCH   1  28
HETATM   28  C2  UNL     1      31.188   4.707  47.368  1.00  0.00    -0.025 C 
HETATM   29  C1  UNL     1      32.380   4.346  47.807  1.00  0.00     0.031 C 
ENDBRANCH   1  28
TORSDOF 3
ENDMDL
MODEL 4
REMARK VINA RESULT:      -8.7      4.977      8.390
REMARK  3 active torsions:
REMARK  status: ('A' for Active; 'I' for Inactive)
REMARK    1  A    between atoms: C2_2  and  C3_3 
REMARK    2  A    between atoms: C9_9  and  N1_10 
REMARK    3  A    between atoms: N1_10  and  C10_11 
ROOT
HETATM    1  C3  UNL     1      15.971  -2.046  52.458  1.00  0.00     0.013 C 
HETATM    2  C4  UNL     1      17.088  -1.342  52.436  1.00  0.00     0.031 C 
HETATM    3  C5  UNL     1      17.288  -0.235  51.509  1.00  0.00     0.014 C 
HETATM    4  C6  UNL     1      18.400   0.372  51.116  1.00  0.00    -0.011 C 
HETATM    5  C7  UNL     1      19.805   0.132  51.480  1.00  0.00     0.083 A 
HETATM    6  C8  UNL     1      20.664   1.322  51.272  1.00  0.00     0.018 A 
HETATM    7  C9  UNL     1      21.255   1.683  52.423  1.00  0.00     0.048 A 
HETATM    8  C19 UNL     1      20.852   0.781  53.499  1.00  0.00     0.056 A 
HETATM    9  C20 UNL     1      20.014  -0.108  52.938  1.00  0.00     0.026 A 
HETATM   10  N5  UNL     1      19.407  -1.161  53.704  1.00  0.00    -0.326 N 
HETATM   11  C21 UNL     1      18.122  -1.747  53.407  1.00  0.00     0.256 C 
HETATM   12  O1  UNL     1      17.830  -2.784  54.095  1.00  0.00    -0.267 OA
HETATM   13  H17 UNL     1      19.929  -1.516  54.517  1.00  0.00     0.169 HD
ENDROOT
BRANCH   7  14
HETATM   14  N1  UNL     1      22.144   2.794  52.543  1.00  0.00    -0.188 N 
HETATM   15  H9  UNL     1      21.794   3.665  53.002  1.00  0.00     0.184 HD
BRANCH  14  16
HETATM   16  C10 UNL     1      23.472   2.710  52.045  1.00  0.00     0.727 A 
HETATM   17  N2  UNL     1      23.765   3.236  50.846  1.00  0.00    -0.075 NA
HETATM   18  C11 UNL     1      25.005   3.184  50.328  1.00  0.00     0.139 A 
HETATM   19  C12 UNL     1      25.975   2.551  51.110  1.00  0.00     0.053 A 
HETATM   20  C13 UNL     1      25.698   2.004  52.344  1.00  0.00     0.089 A 
HETATM   21  C14 UNL     1      26.713   1.350  53.142  1.00  0.00     0.011 A 
HETATM   22  N4  UNL     1      24.412   2.102  52.790  1.00  0.00    -0.062 NA
HETATM   23  C15 UNL     1      28.036   1.190  52.798  1.00  0.00     0.017 A 
HETATM   24  C18 UNL     1      26.362   0.823  54.373  1.00  0.00     0.130 A 
HETATM   25  C16 UNL     1      28.904   0.549  53.646  1.00  0.00     0.020 A 
HETATM   26  C17 UNL     1      28.498   0.037  54.871  1.00  0.00     0.116 A 
HETATM   27  N3  UNL     1      27.204   0.197  55.199  1.00  0.00    -0.272 NA
ENDBRANCH  14  16
ENDBRANCH   7  14
BRANCH   1  28
HETATM   28  C2  UNL     1      14.858  -1.774  51.565  1.00  0.00    -0.025 C 
HETATM   29  C1  UNL     1      13.636  -1.700  52.062  1.00  0.00     0.031 C 
ENDBRANCH   1  28
TORSDOF 3
ENDMDL
MODEL 5
REMARK VINA RESULT:      -8.7      2.683      5.117
REMARK  3 active torsions:
REMARK  status: ('A' for Active; 'I' for Inactive)
REMARK    1  A    between atoms: C2_2  and  C3_3 
REMARK    2  A    between atoms: C9_9  and  N1_10 
REMARK    3  A    between atoms: N1_10  and  C10_11 
ROOT
HETATM    1  C3  UNL     1      26.033   7.052  49.014  1.00  0.00     0.013 C 
HETATM    2  C4  UNL     1      25.626   6.000  49.701  1.00  0.00     0.031 C 
HETATM    3  C5  UNL     1      26.106   4.655  49.416  1.00  0.00     0.014 C 
HETATM    4  C6  UNL     1      25.611   3.470  49.753  1.00  0.00    -0.011 C 
HETATM    5  C7  UNL     1      24.412   3.117  50.527  1.00  0.00     0.083 A 
HETATM    6  C8  UNL     1      24.498   1.769  51.138  1.00  0.00     0.018 A 
HETATM    7  C9  UNL     1      24.366   1.847  52.472  1.00  0.00     0.048 A 
HETATM    8  C19 UNL     1      24.184   3.238  52.878  1.00  0.00     0.056 A 
HETATM    9  C20 UNL     1      24.214   3.959  51.744  1.00  0.00     0.026 A 
HETATM   10  N5  UNL     1      24.066   5.387  51.754  1.00  0.00    -0.326 N 
HETATM   11  C21 UNL     1      24.652   6.273  50.776  1.00  0.00     0.256 C 
HETATM   12  O1  UNL     1      24.268   7.490  50.851  1.00  0.00    -0.267 OA
HETATM   13  H17 UNL     1      23.505   5.800  52.511  1.00  0.00     0.169 HD
ENDROOT
BRANCH   7  14
HETATM   14  N1  UNL     1      24.405   0.713  53.339  1.00  0.00    -0.188 N 
HETATM   15  H9  UNL     1      25.326   0.423  53.741  1.00  0.00     0.184 HD
BRANCH  14  16
HETATM   16  C10 UNL     1      23.216  -0.002  53.643  1.00  0.00     0.727 A 
HETATM   17  N2  UNL     1      23.225  -0.917  54.625  1.00  0.00    -0.075 NA
HETATM   18  C11 UNL     1      22.128  -1.622  54.953  1.00  0.00     0.139 A 
HETATM   19  C12 UNL     1      20.974  -1.348  54.214  1.00  0.00     0.053 A 
HETATM   20  C13 UNL     1      20.939  -0.413  53.202  1.00  0.00     0.089 A 
HETATM   21  C14 UNL     1      19.737  -0.141  52.446  1.00  0.00     0.011 A 
HETATM   22  N4  UNL     1      22.100   0.255  52.937  1.00  0.00    -0.062 NA
HETATM   23  C15 UNL     1      18.514  -0.747  52.620  1.00  0.00     0.017 A 
HETATM   24  C18 UNL     1      19.777   0.813  51.442  1.00  0.00     0.130 A 
HETATM   25  C16 UNL     1      17.445  -0.400  51.835  1.00  0.00     0.020 A 
HETATM   26  C17 UNL     1      17.540   0.564  50.840  1.00  0.00     0.116 A 
HETATM   27  N3  UNL     1      18.738   1.152  50.675  1.00  0.00    -0.272 NA
ENDBRANCH  14  16
ENDBRANCH   7  14
BRANCH   1  28
HETATM   28  C2  UNL     1      26.988   6.951  47.925  1.00  0.00    -0.025 C 
HETATM   29  C1  UNL     1      28.272   7.139  48.173  1.00  0.00     0.031 C 
ENDBRANCH   1  28
TORSDOF 3
ENDMDL
MODEL 6
REMARK VINA RESULT:      -8.7      1.943      2.438
REMARK  3 active torsions:
REMARK  status: ('A' for Active; 'I' for Inactive)
REMARK    1  A    between atoms: C2_2  and  C3_3 
REMARK    2  A    between atoms: C9_9  and  N1_10 
REMARK    3  A    between atoms: N1_10  and  C10_11 
ROOT
HETATM    1  C3  UNL     1      28.174   8.308  46.826  1.00  0.00     0.013 C 
HETATM    2  C4  UNL     1      27.463   7.418  47.494  1.00  0.00     0.031 C 
HETATM    3  C5  UNL     1      26.007   7.459  47.532  1.00  0.00     0.014 C 
HETATM    4  C6  UNL     1      25.148   6.883  48.363  1.00  0.00    -0.011 C 
HETATM    5  C7  UNL     1      25.374   6.012  49.526  1.00  0.00     0.083 A 
HETATM    6  C8  UNL     1      24.204   5.158  49.842  1.00  0.00     0.018 A 
HETATM    7  C9  UNL     1      24.544   3.859  49.803  1.00  0.00     0.048 A 
HETATM    8  C19 UNL     1      25.956   3.721  49.459  1.00  0.00     0.056 A 
HETATM    9  C20 UNL     1      26.422   4.971  49.302  1.00  0.00     0.026 A 
HETATM   10  N5  UNL     1      27.791   5.230  48.953  1.00  0.00    -0.326 N 
HETATM   11  C21 UNL     1      28.237   6.380  48.203  1.00  0.00     0.256 C 
HETATM   12  O1  UNL     1      29.505   6.525  48.140  1.00  0.00    -0.267 OA
HETATM   13  H17 UNL     1      28.494   4.546  49.260  1.00  0.00     0.169 HD
ENDROOT
BRANCH   7  14
HETATM   14  N1  UNL     1      23.630   2.794  50.064  1.00  0.00    -0.188 N 
HETATM   15  H9  UNL     1      22.808   2.674  49.430  1.00  0.00     0.184 HD
BRANCH  14  16
HETATM   16  C10 UNL     1      23.839   1.920  51.165  1.00  0.00     0.727 A 
HETATM   17  N2  UNL     1      22.816   1.189  51.635  1.00  0.00    -0.075 NA
HETATM   18  C11 UNL     1      22.959   0.348  52.674  1.00  0.00     0.139 A 
HETATM   19  C12 UNL     1      24.235   0.274  53.239  1.00  0.00     0.053 A 
HETATM   20  C13 UNL     1      25.301   1.014  52.774  1.00  0.00     0.089 A 
HETATM   21  C14 UNL     1      26.616   0.928  53.370  1.00  0.00     0.011 A 
HETATM   22  N4  UNL     1      25.064   1.843  51.715  1.00  0.00    -0.062 NA
HETATM   23  C15 UNL     1      26.974   0.134  54.434  1.00  0.00     0.017 A 
HETATM   24  C18 UNL     1      27.640   1.702  52.850  1.00  0.00     0.130 A 
HETATM   25  C16 UNL     1      28.261   0.141  54.910  1.00  0.00     0.020 A 
HETATM   26  C17 UNL     1      29.250   0.938  54.351  1.00  0.00     0.116 A 
HETATM   27  N3  UNL     1      28.893   1.713  53.310  1.00  0.00    -0.272 NA
ENDBRANCH  14  16
ENDBRANCH   7  14
BRANCH   1  28
HETATM   28  C2  UNL     1      27.562   9.393  46.078  1.00  0.00    -0.025 C 
HETATM   29  C1  UNL     1      28.044  10.616  46.206  1.00  0.00     0.031 C 
ENDBRANCH   1  28
TORSDOF 3
ENDMDL
MODEL 7
REMARK VINA RESULT:      -8.6      7.102     10.719
REMARK  3 active torsions:
REMARK  status: ('A' for Active; 'I' for Inactive)
REMARK    1  A    between atoms: C2_2  and  C3_3 
REMARK    2  A    between atoms: C9_9  and  N1_10 
REMARK    3  A    between atoms: N1_10  and  C10_11 
ROOT
HETATM    1  C3  UNL     1      24.341  -0.841  54.218  1.00  0.00     0.013 C 
HETATM    2  C4  UNL     1      23.124  -0.518  53.819  1.00  0.00     0.031 C 
HETATM    3  C5  UNL     1      22.889   0.422  52.731  1.00  0.00     0.014 C 
HETATM    4  C6  UNL     1      21.799   1.101  52.396  1.00  0.00    -0.011 C 
HETATM    5  C7  UNL     1      20.463   1.135  53.009  1.00  0.00     0.083 A 
HETATM    6  C8  UNL     1      19.406   1.563  52.062  1.00  0.00     0.018 A 
HETATM    7  C9  UNL     1      18.461   0.615  51.951  1.00  0.00     0.048 A 
HETATM    8  C19 UNL     1      18.792  -0.525  52.802  1.00  0.00     0.056 A 
HETATM    9  C20 UNL     1      19.950  -0.210  53.405  1.00  0.00     0.026 A 
HETATM   10  N5  UNL     1      20.591  -1.107  54.327  1.00  0.00    -0.326 N 
HETATM   11  C21 UNL     1      22.016  -1.169  54.545  1.00  0.00     0.256 C 
HETATM   12  O1  UNL     1      22.380  -1.905  55.524  1.00  0.00    -0.267 OA
HETATM   13  H17 UNL     1      19.987  -1.745  54.862  1.00  0.00     0.169 HD
ENDROOT
BRANCH   7  14
HETATM   14  N1  UNL     1      17.312   0.737  51.112  1.00  0.00    -0.188 N 
HETATM   15  H9  UNL     1      17.222   0.095  50.292  1.00  0.00     0.184 HD
BRANCH  14  16
HETATM   16  C10 UNL     1      16.317   1.711  51.391  1.00  0.00     0.727 A 
HETATM   17  N2  UNL     1      16.401   2.926  50.827  1.00  0.00    -0.075 NA
HETATM   18  C11 UNL     1      15.487   3.884  51.058  1.00  0.00     0.139 A 
HETATM   19  C12 UNL     1      14.441   3.547  51.920  1.00  0.00     0.053 A 
HETATM   20  C13 UNL     1      14.333   2.307  52.512  1.00  0.00     0.089 A 
HETATM   21  C14 UNL     1      13.244   1.972  53.404  1.00  0.00     0.011 A 
HETATM   22  N4  UNL     1      15.307   1.395  52.221  1.00  0.00    -0.062 NA
HETATM   23  C15 UNL     1      12.211   2.803  53.771  1.00  0.00     0.017 A 
HETATM   24  C18 UNL     1      13.201   0.705  53.963  1.00  0.00     0.130 A 
HETATM   25  C16 UNL     1      11.234   2.365  54.629  1.00  0.00     0.020 A 
HETATM   26  C17 UNL     1      11.238   1.083  55.161  1.00  0.00     0.116 A 
HETATM   27  N3  UNL     1      12.252   0.277  54.798  1.00  0.00    -0.272 NA
ENDBRANCH  14  16
ENDBRANCH   7  14
BRANCH   1  28
HETATM   28  C2  UNL     1      25.536  -0.286  53.607  1.00  0.00    -0.025 C 
HETATM   29  C1  UNL     1      26.308  -1.070  52.875  1.00  0.00     0.031 C 
ENDBRANCH   1  28
TORSDOF 3
ENDMDL
MODEL 8
REMARK VINA RESULT:      -8.6      2.759      7.073
REMARK  3 active torsions:
REMARK  status: ('A' for Active; 'I' for Inactive)
REMARK    1  A    between atoms: C2_2  and  C3_3 
REMARK    2  A    between atoms: C9_9  and  N1_10 
REMARK    3  A    between atoms: N1_10  and  C10_11 
ROOT
HETATM    1  C3  UNL     1      28.269  -0.995  53.432  1.00  0.00     0.013 C 
HETATM    2  C4  UNL     1      27.243  -0.179  53.271  1.00  0.00     0.031 C 
HETATM    3  C5  UNL     1      27.414   1.259  53.114  1.00  0.00     0.014 C 
HETATM    4  C6  UNL     1      26.545   2.253  53.254  1.00  0.00    -0.011 C 
HETATM    5  C7  UNL     1      25.120   2.237  53.615  1.00  0.00     0.083 A 
HETATM    6  C8  UNL     1      24.394   3.441  53.144  1.00  0.00     0.018 A 
HETATM    7  C9  UNL     1      23.377   3.092  52.338  1.00  0.00     0.048 A 
HETATM    8  C19 UNL     1      23.328   1.640  52.193  1.00  0.00     0.056 A 
HETATM    9  C20 UNL     1      24.340   1.161  52.935  1.00  0.00     0.026 A 
HETATM   10  N5  UNL     1      24.604  -0.247  53.033  1.00  0.00    -0.326 N 
HETATM   11  C21 UNL     1      25.911  -0.816  53.260  1.00  0.00     0.256 C 
HETATM   12  O1  UNL     1      25.920  -2.074  53.488  1.00  0.00    -0.267 OA
HETATM   13  H17 UNL     1      23.805  -0.887  52.933  1.00  0.00     0.169 HD
ENDROOT
BRANCH   7  14
HETATM   14  N1  UNL     1      22.494   4.033  51.726  1.00  0.00    -0.188 N 
HETATM   15  H9  UNL     1      21.466   3.851  51.766  1.00  0.00     0.184 HD
BRANCH  14  16
HETATM   16  C10 UNL     1      23.008   5.188  51.079  1.00  0.00     0.727 A 
HETATM   17  N2  UNL     1      22.284   6.318  51.065  1.00  0.00    -0.075 NA
HETATM   18  C11 UNL     1      22.724   7.439  50.466  1.00  0.00     0.139 A 
HETATM   19  C12 UNL     1      23.979   7.363  49.858  1.00  0.00     0.053 A 
HETATM   20  C13 UNL     1      24.741   6.215  49.860  1.00  0.00     0.089 A 
HETATM   21  C14 UNL     1      26.040   6.152  49.225  1.00  0.00     0.011 A 
HETATM   22  N4  UNL     1      24.216   5.125  50.491  1.00  0.00    -0.062 NA
HETATM   23  C15 UNL     1      26.669   7.180  48.561  1.00  0.00     0.017 A 
HETATM   24  C18 UNL     1      26.749   4.963  49.266  1.00  0.00     0.130 A 
HETATM   25  C16 UNL     1      27.906   6.993  47.999  1.00  0.00     0.020 A 
HETATM   26  C17 UNL     1      28.575   5.778  48.069  1.00  0.00     0.116 A 
HETATM   27  N3  UNL     1      27.953   4.778  48.719  1.00  0.00    -0.272 NA
ENDBRANCH  14  16
ENDBRANCH   7  14
BRANCH   1  28
HETATM   28  C2  UNL     1      29.642  -0.525  53.466  1.00  0.00    -0.025 C 
HETATM   29  C1  UNL     1      30.563  -1.265  54.058  1.00  0.00     0.031 C 
ENDBRANCH   1  28
TORSDOF 3
ENDMDL
MODEL 9
REMARK VINA RESULT:      -8.5      1.480      1.696
REMARK  3 active torsions:
REMARK  status: ('A' for Active; 'I' for Inactive)
REMARK    1  A    between atoms: C2_2  and  C3_3 
REMARK    2  A    between atoms: C9_9  and  N1_10 
REMARK    3  A    between atoms: N1_10  and  C10_11 
ROOT
HETATM    1  C3  UNL     1      27.700   8.308  47.045  1.00  0.00     0.013 C 
HETATM    2  C4  UNL     1      26.940   7.626  47.884  1.00  0.00     0.031 C 
HETATM    3  C5  UNL     1      27.281   6.278  48.318  1.00  0.00     0.014 C 
HETATM    4  C6  UNL     1      26.533   5.335  48.876  1.00  0.00    -0.011 C 
HETATM    5  C7  UNL     1      25.109   5.331  49.243  1.00  0.00     0.083 A 
HETATM    6  C8  UNL     1      24.791   4.345  50.303  1.00  0.00     0.018 A 
HETATM    7  C9  UNL     1      24.246   4.957  51.367  1.00  0.00     0.048 A 
HETATM    8  C19 UNL     1      24.151   6.394  51.125  1.00  0.00     0.056 A 
HETATM    9  C20 UNL     1      24.654   6.594  49.895  1.00  0.00     0.026 A 
HETATM   10  N5  UNL     1      24.726   7.905  49.312  1.00  0.00    -0.326 N 
HETATM   11  C21 UNL     1      25.722   8.316  48.352  1.00  0.00     0.256 C 
HETATM   12  O1  UNL     1      25.520   9.460  47.820  1.00  0.00    -0.267 OA
HETATM   13  H17 UNL     1      24.017   8.591  49.603  1.00  0.00     0.169 HD
ENDROOT
BRANCH   7  14
HETATM   14  N1  UNL     1      23.833   4.271  52.549  1.00  0.00    -0.188 N 
HETATM   15  H9  UNL     1      23.342   4.814  53.296  1.00  0.00     0.184 HD
BRANCH  14  16
HETATM   16  C10 UNL     1      24.086   2.882  52.701  1.00  0.00     0.727 A 
HETATM   17  N2  UNL     1      23.062   2.014  52.681  1.00  0.00    -0.075 NA
HETATM   18  C11 UNL     1      23.247   0.690  52.821  1.00  0.00     0.139 A 
HETATM   19  C12 UNL     1      24.567   0.264  52.988  1.00  0.00     0.053 A 
HETATM   20  C13 UNL     1      25.635   1.135  53.011  1.00  0.00     0.089 A 
HETATM   21  C14 UNL     1      26.996   0.679  53.186  1.00  0.00     0.011 A 
HETATM   22  N4  UNL     1      25.354   2.463  52.863  1.00  0.00    -0.062 NA
HETATM   23  C15 UNL     1      27.400  -0.627  53.346  1.00  0.00     0.017 A 
HETATM   24  C18 UNL     1      28.020   1.612  53.200  1.00  0.00     0.130 A 
HETATM   25  C16 UNL     1      28.728  -0.932  53.503  1.00  0.00     0.020 A 
HETATM   26  C17 UNL     1      29.716   0.044  53.510  1.00  0.00     0.116 A 
HETATM   27  N3  UNL     1      29.313   1.318  53.354  1.00  0.00    -0.272 NA
ENDBRANCH  14  16
ENDBRANCH   7  14
BRANCH   1  28
HETATM   28  C2  UNL     1      28.931   7.770  46.493  1.00  0.00    -0.025 C 
HETATM   29  C1  UNL     1      29.767   8.581  45.871  1.00  0.00     0.031 C 
ENDBRANCH   1  28
TORSDOF 3
ENDMDL
