MODEL 1
REMARK VINA RESULT:      -8.1      0.000      0.000
REMARK  6 active torsions:
REMARK  status: ('A' for Active; 'I' for Inactive)
REMARK    1  A    between atoms: N1_2  and  C3_4 
REMARK    2  A    between atoms: C3_4  and  C4_5 
REMARK    3  A    between atoms: C5_6  and  C6_7 
REMARK       I    between atoms: C6_7  and  N2_9 
REMARK    4  A    between atoms: C14_19  and  N5_20 
REMARK    5  A    between atoms: N5_20  and  C15_21 
REMARK    6  A    between atoms: C21_28  and  O2_29 
ROOT
HETATM    1  C6  UNL     1      20.798  -0.804  53.753  1.00  0.00     0.251 C 
HETATM    2  O1  UNL     1      20.899  -1.991  54.153  1.00  0.00    -0.268 OA
HETATM    3  N2  UNL     1      21.927   0.038  53.712  1.00  0.00    -0.297 N 
HETATM    4  C7  UNL     1      21.789   1.381  53.248  1.00  0.00     0.101 C 
HETATM    5  C8  UNL     1      22.704   2.152  52.638  1.00  0.00     0.034 C 
HETATM    6  C9  UNL     1      24.078   1.811  52.293  1.00  0.00     0.025 A 
HETATM    7  C10 UNL     1      24.818   0.749  52.778  1.00  0.00     0.103 A 
HETATM    8  N3  UNL     1      26.086   0.502  52.400  1.00  0.00    -0.256 NA
HETATM    9  C11 UNL     1      26.692   1.327  51.494  1.00  0.00     0.142 A 
HETATM   10  C12 UNL     1      25.955   2.405  50.993  1.00  0.00     0.089 A 
HETATM   11  C13 UNL     1      26.533   3.301  50.045  1.00  0.00     0.103 C 
HETATM   12  N4  UNL     1      27.012   4.019  49.262  1.00  0.00    -0.191 NA
HETATM   13  C14 UNL     1      24.651   2.686  51.364  1.00  0.00     0.068 A 
HETATM   14  C21 UNL     1      24.376  -0.268  53.756  1.00  0.00     0.111 C 
HETATM   15  C22 UNL     1      23.137  -0.571  54.154  1.00  0.00     0.138 C 
ENDROOT
BRANCH  13  16
HETATM   16  N5  UNL     1      23.895   3.765  50.877  1.00  0.00    -0.354 N 
HETATM   17  H14 UNL     1      23.708   4.710  51.318  1.00  0.00     0.166 HD
BRANCH  16  18
HETATM   18  C15 UNL     1      23.292   3.550  49.594  1.00  0.00     0.033 A 
HETATM   19  C16 UNL     1      22.920   2.252  49.210  1.00  0.00     0.029 A 
HETATM   20  C17 UNL     1      22.327   2.001  47.968  1.00  0.00     0.004 A 
HETATM   21  C18 UNL     1      22.108   3.084  47.106  1.00  0.00     0.019 A 
HETATM   22  C19 UNL     1      22.459   4.350  47.456  1.00  0.00     0.013 A 
HETATM   23 BR1  UNL     1      22.135   5.792  46.228  1.00  0.00    -0.051 Br
HETATM   24  C20 UNL     1      23.048   4.571  48.697  1.00  0.00     0.048 A 
ENDBRANCH  16  18
ENDBRANCH  13  16
BRANCH  14  25
HETATM   25  O2  UNL     1      25.377  -1.043  54.369  1.00  0.00    -0.357 OA
HETATM   26  H19 UNL     1      26.350  -0.771  54.298  1.00  0.00     0.217 HD
ENDBRANCH  14  25
BRANCH   1  27
HETATM   27  C5  UNL     1      19.385  -0.927  53.510  1.00  0.00     0.072 C 
HETATM   28  C4  UNL     1      18.788  -0.378  52.474  1.00  0.00     0.008 C 
BRANCH  28  29
HETATM   29  C3  UNL     1      18.754   0.400  51.254  1.00  0.00     0.299 C 
BRANCH  29  30
HETATM   30  N1  UNL     1      18.580   1.829  51.449  1.00  0.00     0.083 N 
HETATM   31  C1  UNL     1      19.443   2.483  50.481  1.00  0.00     0.309 C 
HETATM   32  C2  UNL     1      17.222   2.276  51.343  1.00  0.00     0.309 C 
ENDBRANCH  29  30
ENDBRANCH  28  29
ENDBRANCH   1  27
TORSDOF 6
ENDMDL
MODEL 2
REMARK VINA RESULT:      -7.9      1.391      1.867
REMARK  6 active torsions:
REMARK  status: ('A' for Active; 'I' for Inactive)
REMARK    1  A    between atoms: N1_2  and  C3_4 
REMARK    2  A    between atoms: C3_4  and  C4_5 
REMARK    3  A    between atoms: C5_6  and  C6_7 
REMARK       I    between atoms: C6_7  and  N2_9 
REMARK    4  A    between atoms: C14_19  and  N5_20 
REMARK    5  A    between atoms: N5_20  and  C15_21 
REMARK    6  A    between atoms: C21_28  and  O2_29 
ROOT
HETATM    1  C6  UNL     1      18.623  -1.179  53.328  1.00  0.00     0.251 C 
HETATM    2  O1  UNL     1      18.472  -2.374  53.685  1.00  0.00    -0.268 OA
HETATM    3  N2  UNL     1      19.804  -0.479  53.646  1.00  0.00    -0.297 N 
HETATM    4  C7  UNL     1      19.956   0.876  53.225  1.00  0.00     0.101 C 
HETATM    5  C8  UNL     1      21.088   1.538  52.935  1.00  0.00     0.034 C 
HETATM    6  C9  UNL     1      22.456   1.038  52.977  1.00  0.00     0.025 A 
HETATM    7  C10 UNL     1      22.902  -0.112  53.602  1.00  0.00     0.103 A 
HETATM    8  N3  UNL     1      24.189  -0.507  53.587  1.00  0.00    -0.256 NA
HETATM    9  C11 UNL     1      25.118   0.250  52.928  1.00  0.00     0.142 A 
HETATM   10  C12 UNL     1      24.681   1.415  52.290  1.00  0.00     0.089 A 
HETATM   11  C13 UNL     1      25.603   2.246  51.586  1.00  0.00     0.103 C 
HETATM   12  N4  UNL     1      26.364   2.910  51.004  1.00  0.00    -0.191 NA
HETATM   13  C14 UNL     1      23.366   1.847  52.289  1.00  0.00     0.068 A 
HETATM   14  C21 UNL     1      22.088  -1.080  54.367  1.00  0.00     0.111 C 
HETATM   15  C22 UNL     1      20.760  -1.235  54.383  1.00  0.00     0.138 C 
ENDROOT
BRANCH  13  16
HETATM   16  N5  UNL     1      22.908   3.016  51.659  1.00  0.00    -0.354 N 
HETATM   17  H14 UNL     1      22.752   3.984  52.063  1.00  0.00     0.166 HD
BRANCH  16  18
HETATM   18  C15 UNL     1      22.610   2.873  50.263  1.00  0.00     0.033 A 
HETATM   19  C16 UNL     1      22.299   1.605  49.747  1.00  0.00     0.029 A 
HETATM   20  C17 UNL     1      21.999   1.424  48.392  1.00  0.00     0.004 A 
HETATM   21  C18 UNL     1      22.015   2.546  47.553  1.00  0.00     0.019 A 
HETATM   22  C19 UNL     1      22.312   3.783  48.031  1.00  0.00     0.013 A 
HETATM   23 BR1  UNL     1      22.319   5.281  46.827  1.00  0.00    -0.051 Br
HETATM   24  C20 UNL     1      22.607   3.935  49.382  1.00  0.00     0.048 A 
ENDBRANCH  16  18
ENDBRANCH  13  16
BRANCH  14  25
HETATM   25  O2  UNL     1      22.777  -1.978  55.201  1.00  0.00    -0.357 OA
HETATM   26  H19 UNL     1      23.752  -2.192  55.028  1.00  0.00     0.217 HD
ENDBRANCH  14  25
BRANCH   1  27
HETATM   27  C5  UNL     1      17.334  -1.127  52.690  1.00  0.00     0.072 C 
HETATM   28  C4  UNL     1      17.136  -0.545  51.527  1.00  0.00     0.008 C 
BRANCH  28  29
HETATM   29  C3  UNL     1      17.555   0.184  50.349  1.00  0.00     0.299 C 
BRANCH  29  30
HETATM   30  N1  UNL     1      17.686   1.620  50.537  1.00  0.00     0.083 N 
HETATM   31  C1  UNL     1      18.428   2.117  49.392  1.00  0.00     0.309 C 
HETATM   32  C2  UNL     1      16.439   2.306  50.706  1.00  0.00     0.309 C 
ENDBRANCH  29  30
ENDBRANCH  28  29
ENDBRANCH   1  27
TORSDOF 6
ENDMDL
MODEL 3
REMARK VINA RESULT:      -7.9      5.188      8.440
REMARK  6 active torsions:
REMARK  status: ('A' for Active; 'I' for Inactive)
REMARK    1  A    between atoms: N1_2  and  C3_4 
REMARK    2  A    between atoms: C3_4  and  C4_5 
REMARK    3  A    between atoms: C5_6  and  C6_7 
REMARK       I    between atoms: C6_7  and  N2_9 
REMARK    4  A    between atoms: C14_19  and  N5_20 
REMARK    5  A    between atoms: N5_20  and  C15_21 
REMARK    6  A    between atoms: C21_28  and  O2_29 
ROOT
HETATM    1  C6  UNL     1      25.780   3.143  51.226  1.00  0.00     0.251 C 
HETATM    2  O1  UNL     1      25.096   3.071  52.278  1.00  0.00    -0.268 OA
HETATM    3  N2  UNL     1      25.690   4.272  50.388  1.00  0.00    -0.297 N 
HETATM    4  C7  UNL     1      26.481   4.334  49.202  1.00  0.00     0.101 C 
HETATM    5  C8  UNL     1      26.963   5.420  48.576  1.00  0.00     0.034 C 
HETATM    6  C9  UNL     1      26.800   6.819  48.952  1.00  0.00     0.025 A 
HETATM    7  C10 UNL     1      25.881   7.338  49.845  1.00  0.00     0.103 A 
HETATM    8  N3  UNL     1      25.802   8.649  50.141  1.00  0.00    -0.256 NA
HETATM    9  C11 UNL     1      26.661   9.528  49.543  1.00  0.00     0.142 A 
HETATM   10  C12 UNL     1      27.598   9.017  48.638  1.00  0.00     0.089 A 
HETATM   11  C13 UNL     1      28.522   9.884  47.982  1.00  0.00     0.103 C 
HETATM   12  N4  UNL     1      29.279  10.601  47.462  1.00  0.00    -0.191 NA
HETATM   13  C14 UNL     1      27.702   7.675  48.312  1.00  0.00     0.068 A 
HETATM   14  C21 UNL     1      24.861   6.587  50.607  1.00  0.00     0.111 C 
HETATM   15  C22 UNL     1      24.782   5.273  50.839  1.00  0.00     0.138 C 
ENDROOT
BRANCH  13  16
HETATM   16  N5  UNL     1      28.632   7.142  47.404  1.00  0.00    -0.354 N 
HETATM   17  H14 UNL     1      28.546   7.000  46.357  1.00  0.00     0.166 HD
BRANCH  16  18
HETATM   18  C15 UNL     1      29.878   6.734  47.984  1.00  0.00     0.033 A 
HETATM   19  C16 UNL     1      30.471   7.524  48.982  1.00  0.00     0.029 A 
HETATM   20  C17 UNL     1      31.684   7.158  49.575  1.00  0.00     0.004 A 
HETATM   21  C18 UNL     1      32.301   5.973  49.149  1.00  0.00     0.019 A 
HETATM   22  C19 UNL     1      31.745   5.193  48.186  1.00  0.00     0.013 A 
HETATM   23 BR1  UNL     1      32.642   3.582  47.644  1.00  0.00    -0.051 Br
HETATM   24  C20 UNL     1      30.538   5.580  47.612  1.00  0.00     0.048 A 
ENDBRANCH  16  18
ENDBRANCH  13  16
BRANCH  14  25
HETATM   25  O2  UNL     1      23.816   7.331  51.183  1.00  0.00    -0.357 OA
HETATM   26  H19 UNL     1      23.677   8.301  50.926  1.00  0.00     0.217 HD
ENDBRANCH  14  25
BRANCH   1  27
HETATM   27  C5  UNL     1      26.387   1.856  51.443  1.00  0.00     0.072 C 
HETATM   28  C4  UNL     1      27.331   1.654  52.337  1.00  0.00     0.008 C 
BRANCH  28  29
HETATM   29  C3  UNL     1      28.240   2.068  53.385  1.00  0.00     0.299 C 
BRANCH  29  30
HETATM   30  N1  UNL     1      28.707   0.992  54.245  1.00  0.00     0.083 N 
HETATM   31  C1  UNL     1      27.523   0.272  54.680  1.00  0.00     0.309 C 
HETATM   32  C2  UNL     1      29.665   0.122  53.630  1.00  0.00     0.309 C 
ENDBRANCH  29  30
ENDBRANCH  28  29
ENDBRANCH   1  27
TORSDOF 6
ENDMDL
MODEL 4
REMARK VINA RESULT:      -7.7      6.660      9.859
REMARK  6 active torsions:
REMARK  status: ('A' for Active; 'I' for Inactive)
REMARK    1  A    between atoms: N1_2  and  C3_4 
REMARK    2  A    between atoms: C3_4  and  C4_5 
REMARK    3  A    between atoms: C5_6  and  C6_7 
REMARK       I    between atoms: C6_7  and  N2_9 
REMARK    4  A    between atoms: C14_19  and  N5_20 
REMARK    5  A    between atoms: N5_20  and  C15_21 
REMARK    6  A    between atoms: C21_28  and  O2_29 
ROOT
HETATM    1  C6  UNL     1      26.259   5.705  49.289  1.00  0.00     0.251 C 
HETATM    2  O1  UNL     1      25.459   6.563  49.739  1.00  0.00    -0.268 OA
HETATM    3  N2  UNL     1      27.468   6.099  48.683  1.00  0.00    -0.297 N 
HETATM    4  C7  UNL     1      28.364   5.105  48.185  1.00  0.00     0.101 C 
HETATM    5  C8  UNL     1      29.701   5.167  48.075  1.00  0.00     0.034 C 
HETATM    6  C9  UNL     1      30.581   6.269  48.440  1.00  0.00     0.025 A 
HETATM    7  C10 UNL     1      30.215   7.578  48.689  1.00  0.00     0.103 A 
HETATM    8  N3  UNL     1      31.096   8.538  49.028  1.00  0.00    -0.256 NA
HETATM    9  C11 UNL     1      32.422   8.227  49.135  1.00  0.00     0.142 A 
HETATM   10  C12 UNL     1      32.809   6.906  48.887  1.00  0.00     0.089 A 
HETATM   11  C13 UNL     1      34.179   6.519  48.984  1.00  0.00     0.103 C 
HETATM   12  N4  UNL     1      35.299   6.213  49.078  1.00  0.00    -0.191 NA
HETATM   13  C14 UNL     1      31.926   5.898  48.536  1.00  0.00     0.068 A 
HETATM   14  C21 UNL     1      28.850   8.144  48.636  1.00  0.00     0.111 C 
HETATM   15  C22 UNL     1      27.675   7.507  48.634  1.00  0.00     0.138 C 
ENDROOT
BRANCH  13  16
HETATM   16  N5  UNL     1      32.294   4.567  48.278  1.00  0.00    -0.354 N 
HETATM   17  H14 UNL     1      32.074   3.688  48.828  1.00  0.00     0.166 HD
BRANCH  16  18
HETATM   18  C15 UNL     1      33.081   4.375  47.095  1.00  0.00     0.033 A 
HETATM   19  C16 UNL     1      34.201   3.529  47.135  1.00  0.00     0.029 A 
HETATM   20  C17 UNL     1      34.992   3.314  46.001  1.00  0.00     0.004 A 
HETATM   21  C18 UNL     1      34.639   3.967  44.812  1.00  0.00     0.019 A 
HETATM   22  C19 UNL     1      33.559   4.789  44.749  1.00  0.00     0.013 A 
HETATM   23 BR1  UNL     1      33.131   5.657  43.089  1.00  0.00    -0.051 Br
HETATM   24  C20 UNL     1      32.790   4.986  45.891  1.00  0.00     0.048 A 
ENDBRANCH  16  18
ENDBRANCH  13  16
BRANCH  14  25
HETATM   25  O2  UNL     1      28.739   9.545  48.582  1.00  0.00    -0.357 OA
HETATM   26  H19 UNL     1      29.359  10.129  49.131  1.00  0.00     0.217 HD
ENDBRANCH  14  25
BRANCH   1  27
HETATM   27  C5  UNL     1      25.413   4.605  49.674  1.00  0.00     0.072 C 
HETATM   28  C4  UNL     1      25.844   3.591  50.392  1.00  0.00     0.008 C 
BRANCH  28  29
HETATM   29  C3  UNL     1      26.848   2.849  51.125  1.00  0.00     0.299 C 
BRANCH  29  30
HETATM   30  N1  UNL     1      26.438   1.518  51.541  1.00  0.00     0.083 N 
HETATM   31  C1  UNL     1      27.303   1.151  52.648  1.00  0.00     0.309 C 
HETATM   32  C2  UNL     1      25.051   1.412  51.888  1.00  0.00     0.309 C 
ENDBRANCH  29  30
ENDBRANCH  28  29
ENDBRANCH   1  27
TORSDOF 6
ENDMDL
MODEL 5
REMARK VINA RESULT:      -7.7      5.274      9.742
REMARK  6 active torsions:
REMARK  status: ('A' for Active; 'I' for Inactive)
REMARK    1  A    between atoms: N1_2  and  C3_4 
REMARK    2  A    between atoms: C3_4  and  C4_5 
REMARK    3  A    between atoms: C5_6  and  C6_7 
REMARK       I    between atoms: C6_7  and  N2_9 
REMARK    4  A    between atoms: C14_19  and  N5_20 
REMARK    5  A    between atoms: N5_20  and  C15_21 
REMARK    6  A    between atoms: C21_28  and  O2_29 
ROOT
HETATM    1  C6  UNL     1      29.102   8.072  47.385  1.00  0.00     0.251 C 
HETATM    2  O1  UNL     1      29.421   9.286  47.330  1.00  0.00    -0.268 OA
HETATM    3  N2  UNL     1      28.252   7.599  48.404  1.00  0.00    -0.297 N 
HETATM    4  C7  UNL     1      27.897   6.217  48.442  1.00  0.00     0.101 C 
HETATM    5  C8  UNL     1      26.775   5.656  48.921  1.00  0.00     0.034 C 
HETATM    6  C9  UNL     1      25.627   6.319  49.525  1.00  0.00     0.025 A 
HETATM    7  C10 UNL     1      25.573   7.615  50.004  1.00  0.00     0.103 A 
HETATM    8  N3  UNL     1      24.464   8.154  50.545  1.00  0.00    -0.256 NA
HETATM    9  C11 UNL     1      23.326   7.404  50.636  1.00  0.00     0.142 A 
HETATM   10  C12 UNL     1      23.365   6.091  50.155  1.00  0.00     0.089 A 
HETATM   11  C13 UNL     1      22.209   5.258  50.222  1.00  0.00     0.103 C 
HETATM   12  N4  UNL     1      21.254   4.592  50.272  1.00  0.00    -0.191 NA
HETATM   13  C14 UNL     1      24.490   5.509  49.595  1.00  0.00     0.068 A 
HETATM   14  C21 UNL     1      26.670   8.606  50.010  1.00  0.00     0.111 C 
HETATM   15  C22 UNL     1      27.816   8.597  49.323  1.00  0.00     0.138 C 
ENDROOT
BRANCH  13  16
HETATM   16  N5  UNL     1      24.552   4.192  49.110  1.00  0.00    -0.354 N 
HETATM   17  H14 UNL     1      24.369   3.824  48.133  1.00  0.00     0.166 HD
BRANCH  16  18
HETATM   18  C15 UNL     1      24.916   3.205  50.085  1.00  0.00     0.033 A 
HETATM   19  C16 UNL     1      26.273   2.942  50.332  1.00  0.00     0.029 A 
HETATM   20  C17 UNL     1      26.670   1.989  51.277  1.00  0.00     0.004 A 
HETATM   21  C18 UNL     1      25.674   1.297  51.980  1.00  0.00     0.019 A 
HETATM   22  C19 UNL     1      24.355   1.536  51.758  1.00  0.00     0.013 A 
HETATM   23 BR1  UNL     1      23.039   0.550  52.753  1.00  0.00    -0.051 Br
HETATM   24  C20 UNL     1      23.988   2.487  50.812  1.00  0.00     0.048 A 
ENDBRANCH  16  18
ENDBRANCH  13  16
BRANCH  14  25
HETATM   25  O2  UNL     1      26.514   9.728  50.843  1.00  0.00    -0.357 OA
HETATM   26  H19 UNL     1      25.721   9.794  51.470  1.00  0.00     0.217 HD
ENDBRANCH  14  25
BRANCH   1  27
HETATM   27  C5  UNL     1      29.877   7.738  46.219  1.00  0.00     0.072 C 
HETATM   28  C4  UNL     1      31.009   7.070  46.281  1.00  0.00     0.008 C 
BRANCH  28  29
HETATM   29  C3  UNL     1      32.074   6.377  46.975  1.00  0.00     0.299 C 
BRANCH  29  30
HETATM   30  N1  UNL     1      31.629   5.456  48.008  1.00  0.00     0.083 N 
HETATM   31  C1  UNL     1      32.320   4.203  47.765  1.00  0.00     0.309 C 
HETATM   32  C2  UNL     1      31.833   5.930  49.345  1.00  0.00     0.309 C 
ENDBRANCH  29  30
ENDBRANCH  28  29
ENDBRANCH   1  27
TORSDOF 6
ENDMDL
MODEL 6
REMARK VINA RESULT:      -7.6      3.270      6.968
REMARK  6 active torsions:
REMARK  status: ('A' for Active; 'I' for Inactive)
REMARK    1  A    between atoms: N1_2  and  C3_4 
REMARK    2  A    between atoms: C3_4  and  C4_5 
REMARK    3  A    between atoms: C5_6  and  C6_7 
REMARK       I    between atoms: C6_7  and  N2_9 
REMARK    4  A    between atoms: C14_19  and  N5_20 
REMARK    5  A    between atoms: N5_20  and  C15_21 
REMARK    6  A    between atoms: C21_28  and  O2_29 
ROOT
HETATM    1  C6  UNL     1      26.072   0.891  52.045  1.00  0.00     0.251 C 
HETATM    2  O1  UNL     1      27.038   0.665  51.274  1.00  0.00    -0.268 OA
HETATM    3  N2  UNL     1      25.287   2.051  51.891  1.00  0.00    -0.297 N 
HETATM    4  C7  UNL     1      24.191   2.283  52.774  1.00  0.00     0.101 C 
HETATM    5  C8  UNL     1      23.051   2.952  52.533  1.00  0.00     0.034 C 
HETATM    6  C9  UNL     1      22.643   3.614  51.301  1.00  0.00     0.025 A 
HETATM    7  C10 UNL     1      23.451   3.950  50.231  1.00  0.00     0.103 A 
HETATM    8  N3  UNL     1      22.989   4.558  49.122  1.00  0.00    -0.256 NA
HETATM    9  C11 UNL     1      21.661   4.867  49.027  1.00  0.00     0.142 A 
HETATM   10  C12 UNL     1      20.831   4.532  50.102  1.00  0.00     0.089 A 
HETATM   11  C13 UNL     1      19.436   4.829  50.061  1.00  0.00     0.103 C 
HETATM   12  N4  UNL     1      18.296   5.066  50.012  1.00  0.00    -0.191 NA
HETATM   13  C14 UNL     1      21.277   3.909  51.255  1.00  0.00     0.068 A 
HETATM   14  C21 UNL     1      24.905   3.715  50.107  1.00  0.00     0.111 C 
HETATM   15  C22 UNL     1      25.689   2.900  50.820  1.00  0.00     0.138 C 
ENDROOT
BRANCH  13  16
HETATM   16  N5  UNL     1      20.461   3.568  52.347  1.00  0.00    -0.354 N 
HETATM   17  H14 UNL     1      20.131   4.168  53.155  1.00  0.00     0.166 HD
BRANCH  16  18
HETATM   18  C15 UNL     1      20.012   2.206  52.363  1.00  0.00     0.033 A 
HETATM   19  C16 UNL     1      18.935   1.820  51.550  1.00  0.00     0.029 A 
HETATM   20  C17 UNL     1      18.469   0.501  51.535  1.00  0.00     0.004 A 
HETATM   21  C18 UNL     1      19.108  -0.438  52.357  1.00  0.00     0.019 A 
HETATM   22  C19 UNL     1      20.153  -0.088  53.152  1.00  0.00     0.013 A 
HETATM   23 BR1  UNL     1      20.984  -1.422  54.258  1.00  0.00    -0.051 Br
HETATM   24  C20 UNL     1      20.595   1.231  53.148  1.00  0.00     0.048 A 
ENDBRANCH  16  18
ENDBRANCH  13  16
BRANCH  14  25
HETATM   25  O2  UNL     1      25.587   4.432  49.109  1.00  0.00    -0.357 OA
HETATM   26  H19 UNL     1      26.068   3.942  48.364  1.00  0.00     0.217 HD
ENDBRANCH  14  25
BRANCH   1  27
HETATM   27  C5  UNL     1      26.293  -0.316  52.798  1.00  0.00     0.072 C 
HETATM   28  C4  UNL     1      26.996  -0.345  53.910  1.00  0.00     0.008 C 
BRANCH  28  29
HETATM   29  C3  UNL     1      27.794   0.251  54.960  1.00  0.00     0.299 C 
BRANCH  29  30
HETATM   30  N1  UNL     1      29.063   0.806  54.519  1.00  0.00     0.083 N 
HETATM   31  C1  UNL     1      29.668  -0.191  53.654  1.00  0.00     0.309 C 
HETATM   32  C2  UNL     1      28.954   2.080  53.872  1.00  0.00     0.309 C 
ENDBRANCH  29  30
ENDBRANCH  28  29
ENDBRANCH   1  27
TORSDOF 6
ENDMDL
MODEL 7
REMARK VINA RESULT:      -7.5      2.052      5.707
REMARK  6 active torsions:
REMARK  status: ('A' for Active; 'I' for Inactive)
REMARK    1  A    between atoms: N1_2  and  C3_4 
REMARK    2  A    between atoms: C3_4  and  C4_5 
REMARK    3  A    between atoms: C5_6  and  C6_7 
REMARK       I    between atoms: C6_7  and  N2_9 
REMARK    4  A    between atoms: C14_19  and  N5_20 
REMARK    5  A    between atoms: N5_20  and  C15_21 
REMARK    6  A    between atoms: C21_28  and  O2_29 
ROOT
HETATM    1  C6  UNL     1      25.350  -0.560  55.240  1.00  0.00     0.251 C 
HETATM    2  O1  UNL     1      25.158  -0.975  56.411  1.00  0.00    -0.268 OA
HETATM    3  N2  UNL     1      24.331  -0.647  54.271  1.00  0.00    -0.297 N 
HETATM    4  C7  UNL     1      24.570  -0.163  52.950  1.00  0.00     0.101 C 
HETATM    5  C8  UNL     1      23.687   0.339  52.072  1.00  0.00     0.034 C 
HETATM    6  C9  UNL     1      22.251   0.519  52.247  1.00  0.00     0.025 A 
HETATM    7  C10 UNL     1      21.454  -0.055  53.219  1.00  0.00     0.103 A 
HETATM    8  N3  UNL     1      20.130   0.170  53.313  1.00  0.00    -0.256 NA
HETATM    9  C11 UNL     1      19.523   1.002  52.415  1.00  0.00     0.142 A 
HETATM   10  C12 UNL     1      20.317   1.591  51.426  1.00  0.00     0.089 A 
HETATM   11  C13 UNL     1      19.741   2.470  50.461  1.00  0.00     0.103 C 
HETATM   12  N4  UNL     1      19.261   3.196  49.685  1.00  0.00    -0.191 NA
HETATM   13  C14 UNL     1      21.680   1.378  51.303  1.00  0.00     0.068 A 
HETATM   14  C21 UNL     1      21.885  -0.980  54.290  1.00  0.00     0.111 C 
HETATM   15  C22 UNL     1      23.119  -1.231  54.738  1.00  0.00     0.138 C 
ENDROOT
BRANCH  13  16
HETATM   16  N5  UNL     1      22.494   1.957  50.316  1.00  0.00    -0.354 N 
HETATM   17  H14 UNL     1      22.835   1.548  49.399  1.00  0.00     0.166 HD
BRANCH  16  18
HETATM   18  C15 UNL     1      22.923   3.296  50.594  1.00  0.00     0.033 A 
HETATM   19  C16 UNL     1      22.953   3.754  51.921  1.00  0.00     0.029 A 
HETATM   20  C17 UNL     1      23.368   5.052  52.235  1.00  0.00     0.004 A 
HETATM   21  C18 UNL     1      23.759   5.896  51.186  1.00  0.00     0.019 A 
HETATM   22  C19 UNL     1      23.739   5.475  49.894  1.00  0.00     0.013 A 
HETATM   23 BR1  UNL     1      24.284   6.681  48.501  1.00  0.00    -0.051 Br
HETATM   24  C20 UNL     1      23.321   4.179  49.610  1.00  0.00     0.048 A 
ENDBRANCH  16  18
ENDBRANCH  13  16
BRANCH  14  25
HETATM   25  O2  UNL     1      20.879  -1.710  54.947  1.00  0.00    -0.357 OA
HETATM   26  H19 UNL     1      20.739  -2.691  54.737  1.00  0.00     0.217 HD
ENDBRANCH  14  25
BRANCH   1  27
HETATM   27  C5  UNL     1      26.701  -0.153  55.525  1.00  0.00     0.072 C 
HETATM   28  C4  UNL     1      27.580   0.116  54.584  1.00  0.00     0.008 C 
BRANCH  28  29
HETATM   29  C3  UNL     1      28.013   0.253  53.209  1.00  0.00     0.299 C 
BRANCH  29  30
HETATM   30  N1  UNL     1      28.318   1.614  52.800  1.00  0.00     0.083 N 
HETATM   31  C1  UNL     1      27.087   2.167  52.263  1.00  0.00     0.309 C 
HETATM   32  C2  UNL     1      28.861   2.433  53.843  1.00  0.00     0.309 C 
ENDBRANCH  29  30
ENDBRANCH  28  29
ENDBRANCH   1  27
TORSDOF 6
ENDMDL
MODEL 8
REMARK VINA RESULT:      -7.5      2.889      5.507
REMARK  6 active torsions:
REMARK  status: ('A' for Active; 'I' for Inactive)
REMARK    1  A    between atoms: N1_2  and  C3_4 
REMARK    2  A    between atoms: C3_4  and  C4_5 
REMARK    3  A    between atoms: C5_6  and  C6_7 
REMARK       I    between atoms: C6_7  and  N2_9 
REMARK    4  A    between atoms: C14_19  and  N5_20 
REMARK    5  A    between atoms: N5_20  and  C15_21 
REMARK    6  A    between atoms: C21_28  and  O2_29 
ROOT
HETATM    1  C6  UNL     1      22.623  -0.392  53.345  1.00  0.00     0.251 C 
HETATM    2  O1  UNL     1      21.786  -1.329  53.342  1.00  0.00    -0.268 OA
HETATM    3  N2  UNL     1      22.597   0.597  52.343  1.00  0.00    -0.297 N 
HETATM    4  C7  UNL     1      23.554   1.656  52.372  1.00  0.00     0.101 C 
HETATM    5  C8  UNL     1      23.425   2.911  51.910  1.00  0.00     0.034 C 
HETATM    6  C9  UNL     1      22.269   3.513  51.259  1.00  0.00     0.025 A 
HETATM    7  C10 UNL     1      21.184   2.853  50.714  1.00  0.00     0.103 A 
HETATM    8  N3  UNL     1      20.149   3.490  50.134  1.00  0.00    -0.256 NA
HETATM    9  C11 UNL     1      20.150   4.855  50.069  1.00  0.00     0.142 A 
HETATM   10  C12 UNL     1      21.241   5.537  50.617  1.00  0.00     0.089 A 
HETATM   11  C13 UNL     1      21.299   6.962  50.580  1.00  0.00     0.103 C 
HETATM   12  N4  UNL     1      21.329   8.127  50.554  1.00  0.00    -0.191 NA
HETATM   13  C14 UNL     1      22.319   4.910  51.218  1.00  0.00     0.068 A 
HETATM   14  C21 UNL     1      20.964   1.391  50.670  1.00  0.00     0.111 C 
HETATM   15  C22 UNL     1      21.571   0.427  51.369  1.00  0.00     0.138 C 
ENDROOT
BRANCH  13  16
HETATM   16  N5  UNL     1      23.426   5.576  51.771  1.00  0.00    -0.354 N 
HETATM   17  H14 UNL     1      23.615   5.847  52.778  1.00  0.00     0.166 HD
BRANCH  16  18
HETATM   18  C15 UNL     1      24.445   5.939  50.830  1.00  0.00     0.033 A 
HETATM   19  C16 UNL     1      24.857   5.010  49.861  1.00  0.00     0.029 A 
HETATM   20  C17 UNL     1      25.846   5.326  48.923  1.00  0.00     0.004 A 
HETATM   21  C18 UNL     1      26.422   6.603  48.971  1.00  0.00     0.019 A 
HETATM   22  C19 UNL     1      26.038   7.519  49.899  1.00  0.00     0.013 A 
HETATM   23 BR1  UNL     1      26.869   9.252  49.913  1.00  0.00    -0.051 Br
HETATM   24  C20 UNL     1      25.053   7.178  50.820  1.00  0.00     0.048 A 
ENDBRANCH  16  18
ENDBRANCH  13  16
BRANCH  14  25
HETATM   25  O2  UNL     1      19.985   0.918  49.778  1.00  0.00    -0.357 OA
HETATM   26  H19 UNL     1      19.999   1.202  48.806  1.00  0.00     0.217 HD
ENDBRANCH  14  25
BRANCH   1  27
HETATM   27  C5  UNL     1      23.272  -0.876  54.536  1.00  0.00     0.072 C 
HETATM   28  C4  UNL     1      24.575  -0.829  54.707  1.00  0.00     0.008 C 
BRANCH  28  29
HETATM   29  C3  UNL     1      25.930  -0.515  54.305  1.00  0.00     0.299 C 
BRANCH  29  30
HETATM   30  N1  UNL     1      26.210  -0.726  52.895  1.00  0.00     0.083 N 
HETATM   31  C1  UNL     1      27.005   0.409  52.460  1.00  0.00     0.309 C 
HETATM   32  C2  UNL     1      26.855  -1.973  52.604  1.00  0.00     0.309 C 
ENDBRANCH  29  30
ENDBRANCH  28  29
ENDBRANCH   1  27
TORSDOF 6
ENDMDL
MODEL 9
REMARK VINA RESULT:      -7.4      2.355      5.918
REMARK  6 active torsions:
REMARK  status: ('A' for Active; 'I' for Inactive)
REMARK    1  A    between atoms: N1_2  and  C3_4 
REMARK    2  A    between atoms: C3_4  and  C4_5 
REMARK    3  A    between atoms: C5_6  and  C6_7 
REMARK       I    between atoms: C6_7  and  N2_9 
REMARK    4  A    between atoms: C14_19  and  N5_20 
REMARK    5  A    between atoms: N5_20  and  C15_21 
REMARK    6  A    between atoms: C21_28  and  O2_29 
ROOT
HETATM    1  C6  UNL     1      22.929  -1.089  54.661  1.00  0.00     0.251 C 
HETATM    2  O1  UNL     1      22.595  -1.548  55.783  1.00  0.00    -0.268 OA
HETATM    3  N2  UNL     1      21.991  -1.002  53.613  1.00  0.00    -0.297 N 
HETATM    4  C7  UNL     1      22.392  -0.471  52.350  1.00  0.00     0.101 C 
HETATM    5  C8  UNL     1      21.646   0.179  51.443  1.00  0.00     0.034 C 
HETATM    6  C9  UNL     1      20.229   0.511  51.518  1.00  0.00     0.025 A 
HETATM    7  C10 UNL     1      19.295  -0.025  52.385  1.00  0.00     0.103 A 
HETATM    8  N3  UNL     1      18.000   0.344  52.392  1.00  0.00    -0.256 NA
HETATM    9  C11 UNL     1      17.565   1.292  51.508  1.00  0.00     0.142 A 
HETATM   10  C12 UNL     1      18.499   1.844  50.626  1.00  0.00     0.089 A 
HETATM   11  C13 UNL     1      18.106   2.838  49.681  1.00  0.00     0.103 C 
HETATM   12  N4  UNL     1      17.775   3.658  48.921  1.00  0.00    -0.191 NA
HETATM   13  C14 UNL     1      19.836   1.484  50.594  1.00  0.00     0.068 A 
HETATM   14  C21 UNL     1      19.531  -1.054  53.420  1.00  0.00     0.111 C 
HETATM   15  C22 UNL     1      20.688  -1.471  53.944  1.00  0.00     0.138 C 
ENDROOT
BRANCH  13  16
HETATM   16  N5  UNL     1      20.789   2.023  49.714  1.00  0.00    -0.354 N 
HETATM   17  H14 UNL     1      20.961   1.805  48.691  1.00  0.00     0.166 HD
BRANCH  16  18
HETATM   18  C15 UNL     1      21.652   3.013  50.290  1.00  0.00     0.033 A 
HETATM   19  C16 UNL     1      21.153   3.881  51.274  1.00  0.00     0.029 A 
HETATM   20  C17 UNL     1      21.963   4.858  51.862  1.00  0.00     0.004 A 
HETATM   21  C18 UNL     1      23.298   4.952  51.445  1.00  0.00     0.019 A 
HETATM   22  C19 UNL     1      23.803   4.122  50.495  1.00  0.00     0.013 A 
HETATM   23 BR1  UNL     1      25.642   4.305  49.965  1.00  0.00    -0.051 Br
HETATM   24  C20 UNL     1      22.976   3.160  49.926  1.00  0.00     0.048 A 
ENDBRANCH  16  18
ENDBRANCH  13  16
BRANCH  14  25
HETATM   25  O2  UNL     1      18.400  -1.703  53.947  1.00  0.00    -0.357 OA
HETATM   26  H19 UNL     1      17.480  -1.293  53.842  1.00  0.00     0.217 HD
ENDBRANCH  14  25
BRANCH   1  27
HETATM   27  C5  UNL     1      24.287  -0.857  55.077  1.00  0.00     0.072 C 
HETATM   28  C4  UNL     1      25.275  -0.684  54.225  1.00  0.00     0.008 C 
BRANCH  28  29
HETATM   29  C3  UNL     1      25.846  -0.580  52.899  1.00  0.00     0.299 C 
BRANCH  29  30
HETATM   30  N1  UNL     1      27.183  -0.013  52.855  1.00  0.00     0.083 N 
HETATM   31  C1  UNL     1      27.038   1.340  52.347  1.00  0.00     0.309 C 
HETATM   32  C2  UNL     1      27.875  -0.041  54.110  1.00  0.00     0.309 C 
ENDBRANCH  29  30
ENDBRANCH  28  29
ENDBRANCH   1  27
TORSDOF 6
ENDMDL
