MODEL 1
REMARK VINA RESULT:      -7.4      0.000      0.000
REMARK  5 active torsions:
REMARK  status: ('A' for Active; 'I' for Inactive)
REMARK    1  A    between atoms: C5_7  and  O1_8 
REMARK    2  A    between atoms: C9_12  and  N2_13 
REMARK    3  A    between atoms: C9_12  and  N3_14 
REMARK    4  A    between atoms: N3_14  and  N4_15 
REMARK    5  A    between atoms: N4_15  and  C10_16 
ROOT
HETATM    1  C1  UNL     1      22.629   1.736  50.360  1.00  0.00     0.178 C 
HETATM    2  N1  UNL     1      22.529   1.008  51.611  1.00  0.00    -0.294 NA
HETATM    3  C2  UNL     1      21.376   0.524  51.927  1.00  0.00     0.066 A 
HETATM    4  C3  UNL     1      20.108   0.588  51.209  1.00  0.00     0.054 A 
HETATM    5  C4  UNL     1      19.038   0.014  51.726  1.00  0.00     0.046 A 
HETATM    6 BR1  UNL     1      17.415   0.137  50.731  1.00  0.00    -0.048 Br
HETATM    7  C5  UNL     1      19.062  -0.694  53.001  1.00  0.00     0.086 A 
HETATM    8  C7  UNL     1      20.176  -0.812  53.742  1.00  0.00     0.055 A 
HETATM    9  C8  UNL     1      21.389  -0.193  53.216  1.00  0.00     0.040 A 
HETATM   10  C9  UNL     1      22.447  -0.343  53.989  1.00  0.00     0.126 C 
ENDROOT
BRANCH  10  11
HETATM   11  N2  UNL     1      22.499  -1.030  55.237  1.00  0.00    -0.384 N 
HETATM   12  H9  UNL     1      23.303  -0.681  55.838  1.00  0.00     0.157 HD
HETATM   13  H10 UNL     1      21.817  -1.759  55.466  1.00  0.00     0.157 HD
ENDBRANCH  10  11
BRANCH  10  14
HETATM   14  N3  UNL     1      23.781   0.119  53.798  1.00  0.00    -0.285 N 
HETATM   15  H11 UNL     1      23.806   1.127  54.135  1.00  0.00     0.188 HD
BRANCH  14  16
HETATM   16  N4  UNL     1      24.770  -0.710  53.257  1.00  0.00    -0.299 N 
HETATM   17  H12 UNL     1      24.410  -1.448  52.594  1.00  0.00     0.187 HD
BRANCH  16  18
HETATM   18  C10 UNL     1      26.180  -0.666  53.500  1.00  0.00     0.048 A 
HETATM   19  C11 UNL     1      27.070  -1.419  52.745  1.00  0.00     0.031 A 
HETATM   20  C12 UNL     1      28.410  -1.299  53.067  1.00  0.00     0.002 A 
HETATM   21  C13 UNL     1      28.907  -0.496  54.073  1.00  0.00     0.000 A 
HETATM   22  C14 UNL     1      28.007   0.245  54.813  1.00  0.00     0.002 A 
HETATM   23  C15 UNL     1      26.668   0.140  54.508  1.00  0.00     0.031 A 
ENDBRANCH  16  18
ENDBRANCH  14  16
ENDBRANCH  10  14
BRANCH   7  24
HETATM   24  O1  UNL     1      17.891  -1.276  53.482  1.00  0.00    -0.355 OA
HETATM   25  C6  UNL     1      17.760  -2.682  53.519  1.00  0.00     0.210 C 
ENDBRANCH   7  24
TORSDOF 5
ENDMDL
MODEL 2
REMARK VINA RESULT:      -7.3      1.665      3.011
REMARK  5 active torsions:
REMARK  status: ('A' for Active; 'I' for Inactive)
REMARK    1  A    between atoms: C5_7  and  O1_8 
REMARK    2  A    between atoms: C9_12  and  N2_13 
REMARK    3  A    between atoms: C9_12  and  N3_14 
REMARK    4  A    between atoms: N3_14  and  N4_15 
REMARK    5  A    between atoms: N4_15  and  C10_16 
ROOT
HETATM    1  C1  UNL     1      23.063  -1.511  55.470  1.00  0.00     0.178 C 
HETATM    2  N1  UNL     1      23.305  -0.629  54.344  1.00  0.00    -0.294 NA
HETATM    3  C2  UNL     1      22.300  -0.339  53.589  1.00  0.00     0.066 A 
HETATM    4  C3  UNL     1      20.908  -0.764  53.683  1.00  0.00     0.054 A 
HETATM    5  C4  UNL     1      20.036  -0.338  52.789  1.00  0.00     0.046 A 
HETATM    6 BR1  UNL     1      18.233  -0.935  52.975  1.00  0.00    -0.048 Br
HETATM    7  C5  UNL     1      20.402   0.551  51.693  1.00  0.00     0.086 A 
HETATM    8  C7  UNL     1      21.654   1.002  51.514  1.00  0.00     0.055 A 
HETATM    9  C8  UNL     1      22.659   0.561  52.476  1.00  0.00     0.040 A 
HETATM   10  C9  UNL     1      23.868   1.036  52.247  1.00  0.00     0.126 C 
ENDROOT
BRANCH  10  11
HETATM   11  N2  UNL     1      24.253   1.907  51.185  1.00  0.00    -0.384 N 
HETATM   12  H9  UNL     1      24.446   2.889  51.540  1.00  0.00     0.157 HD
HETATM   13  H10 UNL     1      24.316   1.566  50.221  1.00  0.00     0.157 HD
ENDBRANCH  10  11
BRANCH  10  14
HETATM   14  N3  UNL     1      25.078   0.822  52.968  1.00  0.00    -0.285 N 
HETATM   15  H11 UNL     1      25.212   1.669  53.598  1.00  0.00     0.188 HD
BRANCH  14  16
HETATM   16  N4  UNL     1      25.843  -0.333  52.782  1.00  0.00    -0.299 N 
HETATM   17  H12 UNL     1      25.307  -1.158  52.399  1.00  0.00     0.187 HD
BRANCH  16  18
HETATM   18  C10 UNL     1      27.239  -0.514  53.046  1.00  0.00     0.048 A 
HETATM   19  C11 UNL     1      27.840  -1.761  52.951  1.00  0.00     0.031 A 
HETATM   20  C12 UNL     1      29.194  -1.818  53.229  1.00  0.00     0.002 A 
HETATM   21  C13 UNL     1      29.968  -0.735  53.589  1.00  0.00     0.000 A 
HETATM   22  C14 UNL     1      29.352   0.498  53.679  1.00  0.00     0.002 A 
HETATM   23  C15 UNL     1      28.005   0.577  53.405  1.00  0.00     0.031 A 
ENDBRANCH  16  18
ENDBRANCH  14  16
ENDBRANCH  10  14
BRANCH   7  24
HETATM   24  O1  UNL     1      19.424   0.959  50.787  1.00  0.00    -0.355 OA
HETATM   25  C6  UNL     1      19.795   1.534  49.552  1.00  0.00     0.210 C 
ENDBRANCH   7  24
TORSDOF 5
ENDMDL
MODEL 3
REMARK VINA RESULT:      -7.2      2.589      3.837
REMARK  5 active torsions:
REMARK  status: ('A' for Active; 'I' for Inactive)
REMARK    1  A    between atoms: C5_7  and  O1_8 
REMARK    2  A    between atoms: C9_12  and  N2_13 
REMARK    3  A    between atoms: C9_12  and  N3_14 
REMARK    4  A    between atoms: N3_14  and  N4_15 
REMARK    5  A    between atoms: N4_15  and  C10_16 
ROOT
HETATM    1  C1  UNL     1      23.775  -0.659  53.788  1.00  0.00     0.178 C 
HETATM    2  N1  UNL     1      23.789   0.738  53.395  1.00  0.00    -0.294 NA
HETATM    3  C2  UNL     1      22.736   1.202  52.812  1.00  0.00     0.066 A 
HETATM    4  C3  UNL     1      21.486   0.531  52.469  1.00  0.00     0.054 A 
HETATM    5  C4  UNL     1      20.529   1.210  51.865  1.00  0.00     0.046 A 
HETATM    6 BR1  UNL     1      18.922   0.268  51.448  1.00  0.00    -0.048 Br
HETATM    7  C5  UNL     1      20.661   2.620  51.518  1.00  0.00     0.086 A 
HETATM    8  C7  UNL     1      21.768   3.331  51.788  1.00  0.00     0.055 A 
HETATM    9  C8  UNL     1      22.858   2.628  52.455  1.00  0.00     0.040 A 
HETATM   10  C9  UNL     1      23.917   3.379  52.692  1.00  0.00     0.126 C 
ENDROOT
BRANCH  10  11
HETATM   11  N2  UNL     1      24.072   4.758  52.365  1.00  0.00    -0.384 N 
HETATM   12  H9  UNL     1      24.057   4.912  51.315  1.00  0.00     0.157 HD
HETATM   13  H10 UNL     1      24.181   5.464  53.100  1.00  0.00     0.157 HD
ENDBRANCH  10  11
BRANCH  10  14
HETATM   14  N3  UNL     1      25.150   3.036  53.318  1.00  0.00    -0.285 N 
HETATM   15  H11 UNL     1      25.018   3.196  54.361  1.00  0.00     0.188 HD
BRANCH  14  16
HETATM   16  N4  UNL     1      26.245   2.585  52.573  1.00  0.00    -0.299 N 
HETATM   17  H12 UNL     1      26.263   2.920  51.572  1.00  0.00     0.187 HD
BRANCH  16  18
HETATM   18  C10 UNL     1      27.315   1.740  53.010  1.00  0.00     0.048 A 
HETATM   19  C11 UNL     1      28.426   2.257  53.662  1.00  0.00     0.031 A 
HETATM   20  C12 UNL     1      29.400   1.349  54.040  1.00  0.00     0.002 A 
HETATM   21  C13 UNL     1      29.336  -0.010  53.812  1.00  0.00     0.000 A 
HETATM   22  C14 UNL     1      28.223  -0.505  53.161  1.00  0.00     0.002 A 
HETATM   23  C15 UNL     1      27.242   0.382  52.778  1.00  0.00     0.031 A 
ENDBRANCH  16  18
ENDBRANCH  14  16
ENDBRANCH  10  14
BRANCH   7  24
HETATM   24  O1  UNL     1      19.605   3.269  50.881  1.00  0.00    -0.355 OA
HETATM   25  C6  UNL     1      19.759   4.596  50.424  1.00  0.00     0.210 C 
ENDBRANCH   7  24
TORSDOF 5
ENDMDL
MODEL 4
REMARK VINA RESULT:      -7.1      1.592      2.234
REMARK  5 active torsions:
REMARK  status: ('A' for Active; 'I' for Inactive)
REMARK    1  A    between atoms: C5_7  and  O1_8 
REMARK    2  A    between atoms: C9_12  and  N2_13 
REMARK    3  A    between atoms: C9_12  and  N3_14 
REMARK    4  A    between atoms: N3_14  and  N4_15 
REMARK    5  A    between atoms: N4_15  and  C10_16 
ROOT
HETATM    1  C1  UNL     1      25.286   2.368  51.069  1.00  0.00     0.178 C 
HETATM    2  N1  UNL     1      24.564   1.455  51.935  1.00  0.00    -0.294 NA
HETATM    3  C2  UNL     1      23.322   1.237  51.666  1.00  0.00     0.066 A 
HETATM    4  C3  UNL     1      22.489   1.775  50.595  1.00  0.00     0.054 A 
HETATM    5  C4  UNL     1      21.225   1.410  50.509  1.00  0.00     0.046 A 
HETATM    6 BR1  UNL     1      20.197   2.154  49.083  1.00  0.00    -0.048 Br
HETATM    7  C5  UNL     1      20.607   0.478  51.446  1.00  0.00     0.086 A 
HETATM    8  C7  UNL     1      21.283  -0.076  52.465  1.00  0.00     0.055 A 
HETATM    9  C8  UNL     1      22.686   0.296  52.608  1.00  0.00     0.040 A 
HETATM   10  C9  UNL     1      23.294  -0.280  53.628  1.00  0.00     0.126 C 
ENDROOT
BRANCH  10  11
HETATM   11  N2  UNL     1      22.717  -1.194  54.557  1.00  0.00    -0.384 N 
HETATM   12  H9  UNL     1      22.016  -0.710  55.192  1.00  0.00     0.157 HD
HETATM   13  H10 UNL     1      22.987  -2.183  54.560  1.00  0.00     0.157 HD
ENDBRANCH  10  11
BRANCH  10  14
HETATM   14  N3  UNL     1      24.644  -0.155  54.066  1.00  0.00    -0.285 N 
HETATM   15  H11 UNL     1      24.632   0.481  54.917  1.00  0.00     0.188 HD
BRANCH  14  16
HETATM   16  N4  UNL     1      25.689  -0.808  53.402  1.00  0.00    -0.299 N 
HETATM   17  H12 UNL     1      25.382  -1.579  52.750  1.00  0.00     0.187 HD
BRANCH  16  18
HETATM   18  C10 UNL     1      27.093  -0.549  53.510  1.00  0.00     0.048 A 
HETATM   19  C11 UNL     1      27.573   0.667  53.976  1.00  0.00     0.031 A 
HETATM   20  C12 UNL     1      28.948   0.807  54.039  1.00  0.00     0.002 A 
HETATM   21  C13 UNL     1      29.853  -0.167  53.672  1.00  0.00     0.000 A 
HETATM   22  C14 UNL     1      29.357  -1.370  53.210  1.00  0.00     0.002 A 
HETATM   23  C15 UNL     1      27.992  -1.530  53.141  1.00  0.00     0.031 A 
ENDBRANCH  16  18
ENDBRANCH  14  16
ENDBRANCH  10  14
BRANCH   7  24
HETATM   24  O1  UNL     1      19.265   0.140  51.288  1.00  0.00    -0.355 OA
HETATM   25  C6  UNL     1      18.559  -0.476  52.346  1.00  0.00     0.210 C 
ENDBRANCH   7  24
TORSDOF 5
ENDMDL
MODEL 5
REMARK VINA RESULT:      -7.1      3.276      7.055
REMARK  5 active torsions:
REMARK  status: ('A' for Active; 'I' for Inactive)
REMARK    1  A    between atoms: C5_7  and  O1_8 
REMARK    2  A    between atoms: C9_12  and  N2_13 
REMARK    3  A    between atoms: C9_12  and  N3_14 
REMARK    4  A    between atoms: N3_14  and  N4_15 
REMARK    5  A    between atoms: N4_15  and  C10_16 
ROOT
HETATM    1  C1  UNL     1      21.063   3.016  52.052  1.00  0.00     0.178 C 
HETATM    2  N1  UNL     1      21.459   1.829  52.787  1.00  0.00    -0.294 NA
HETATM    3  C2  UNL     1      22.693   1.464  52.706  1.00  0.00     0.066 A 
HETATM    4  C3  UNL     1      23.800   2.068  51.971  1.00  0.00     0.054 A 
HETATM    5  C4  UNL     1      24.998   1.518  52.032  1.00  0.00     0.046 A 
HETATM    6 BR1  UNL     1      26.397   2.364  51.046  1.00  0.00    -0.048 Br
HETATM    7  C5  UNL     1      25.275   0.316  52.809  1.00  0.00     0.086 A 
HETATM    8  C7  UNL     1      24.329  -0.319  53.520  1.00  0.00     0.055 A 
HETATM    9  C8  UNL     1      22.985   0.247  53.488  1.00  0.00     0.040 A 
HETATM   10  C9  UNL     1      22.102  -0.421  54.205  1.00  0.00     0.126 C 
ENDROOT
BRANCH  10  11
HETATM   11  N2  UNL     1      22.345  -1.597  54.974  1.00  0.00    -0.384 N 
HETATM   12  H9  UNL     1      22.982  -1.395  55.799  1.00  0.00     0.157 HD
HETATM   13  H10 UNL     1      21.926  -2.494  54.710  1.00  0.00     0.157 HD
ENDBRANCH  10  11
BRANCH  10  14
HETATM   14  N3  UNL     1      20.716  -0.163  54.405  1.00  0.00    -0.285 N 
HETATM   15  H11 UNL     1      20.643   0.810  54.828  1.00  0.00     0.188 HD
BRANCH  14  16
HETATM   16  N4  UNL     1      19.742  -1.106  54.060  1.00  0.00    -0.299 N 
HETATM   17  H12 UNL     1      19.829  -2.031  54.561  1.00  0.00     0.187 HD
BRANCH  16  18
HETATM   18  C10 UNL     1      18.668  -0.957  53.124  1.00  0.00     0.048 A 
HETATM   19  C11 UNL     1      17.434  -1.557  53.334  1.00  0.00     0.031 A 
HETATM   20  C12 UNL     1      16.470  -1.346  52.365  1.00  0.00     0.002 A 
HETATM   21  C13 UNL     1      16.655  -0.591  51.225  1.00  0.00     0.000 A 
HETATM   22  C14 UNL     1      17.889  -0.002  51.033  1.00  0.00     0.002 A 
HETATM   23  C15 UNL     1      18.863  -0.200  51.987  1.00  0.00     0.031 A 
ENDBRANCH  16  18
ENDBRANCH  14  16
ENDBRANCH  10  14
BRANCH   7  24
HETATM   24  O1  UNL     1      26.567  -0.207  52.824  1.00  0.00    -0.355 OA
HETATM   25  C6  UNL     1      26.773  -1.597  52.688  1.00  0.00     0.210 C 
ENDBRANCH   7  24
TORSDOF 5
ENDMDL
MODEL 6
REMARK VINA RESULT:      -7.1      2.803      3.234
REMARK  5 active torsions:
REMARK  status: ('A' for Active; 'I' for Inactive)
REMARK    1  A    between atoms: C5_7  and  O1_8 
REMARK    2  A    between atoms: C9_12  and  N2_13 
REMARK    3  A    between atoms: C9_12  and  N3_14 
REMARK    4  A    between atoms: N3_14  and  N4_15 
REMARK    5  A    between atoms: N4_15  and  C10_16 
ROOT
HETATM    1  C1  UNL     1      25.918   2.531  51.078  1.00  0.00     0.178 C 
HETATM    2  N1  UNL     1      24.887   1.767  51.755  1.00  0.00    -0.294 NA
HETATM    3  C2  UNL     1      23.711   2.291  51.829  1.00  0.00     0.066 A 
HETATM    4  C3  UNL     1      23.225   3.571  51.324  1.00  0.00     0.054 A 
HETATM    5  C4  UNL     1      21.964   3.909  51.515  1.00  0.00     0.046 A 
HETATM    6 BR1  UNL     1      21.400   5.597  50.827  1.00  0.00    -0.048 Br
HETATM    7  C5  UNL     1      21.016   3.052  52.217  1.00  0.00     0.086 A 
HETATM    8  C7  UNL     1      21.358   1.855  52.720  1.00  0.00     0.055 A 
HETATM    9  C8  UNL     1      22.743   1.432  52.537  1.00  0.00     0.040 A 
HETATM   10  C9  UNL     1      23.017   0.250  53.054  1.00  0.00     0.126 C 
ENDROOT
BRANCH  10  11
HETATM   11  N2  UNL     1      22.111  -0.609  53.743  1.00  0.00    -0.384 N 
HETATM   12  H9  UNL     1      22.434  -1.620  53.711  1.00  0.00     0.157 HD
HETATM   13  H10 UNL     1      21.269  -0.234  54.193  1.00  0.00     0.157 HD
ENDBRANCH  10  11
BRANCH  10  14
HETATM   14  N3  UNL     1      24.246  -0.471  53.065  1.00  0.00    -0.285 N 
HETATM   15  H11 UNL     1      24.219  -1.134  52.234  1.00  0.00     0.188 HD
BRANCH  14  16
HETATM   16  N4  UNL     1      25.215  -0.245  54.048  1.00  0.00    -0.299 N 
HETATM   17  H12 UNL     1      24.833   0.093  54.972  1.00  0.00     0.187 HD
BRANCH  16  18
HETATM   18  C10 UNL     1      26.633  -0.417  53.939  1.00  0.00     0.048 A 
HETATM   19  C11 UNL     1      27.186  -1.318  53.040  1.00  0.00     0.031 A 
HETATM   20  C12 UNL     1      28.567  -1.402  53.020  1.00  0.00     0.002 A 
HETATM   21  C13 UNL     1      29.410  -0.662  53.821  1.00  0.00     0.000 A 
HETATM   22  C14 UNL     1      28.841   0.230  54.709  1.00  0.00     0.002 A 
HETATM   23  C15 UNL     1      27.468   0.329  54.745  1.00  0.00     0.031 A 
ENDBRANCH  16  18
ENDBRANCH  14  16
ENDBRANCH  10  14
BRANCH   7  24
HETATM   24  O1  UNL     1      19.699   3.477  52.378  1.00  0.00    -0.355 OA
HETATM   25  C6  UNL     1      18.673   2.937  51.572  1.00  0.00     0.210 C 
ENDBRANCH   7  24
TORSDOF 5
ENDMDL
MODEL 7
REMARK VINA RESULT:      -7.0      4.239      5.750
REMARK  5 active torsions:
REMARK  status: ('A' for Active; 'I' for Inactive)
REMARK    1  A    between atoms: C5_7  and  O1_8 
REMARK    2  A    between atoms: C9_12  and  N2_13 
REMARK    3  A    between atoms: C9_12  and  N3_14 
REMARK    4  A    between atoms: N3_14  and  N4_15 
REMARK    5  A    between atoms: N4_15  and  C10_16 
ROOT
HETATM    1  C1  UNL     1      20.590   4.044  51.450  1.00  0.00     0.178 C 
HETATM    2  N1  UNL     1      21.966   3.666  51.711  1.00  0.00    -0.294 NA
HETATM    3  C2  UNL     1      22.172   2.527  52.278  1.00  0.00     0.066 A 
HETATM    4  C3  UNL     1      21.216   1.515  52.717  1.00  0.00     0.054 A 
HETATM    5  C4  UNL     1      21.656   0.407  53.282  1.00  0.00     0.046 A 
HETATM    6 BR1  UNL     1      20.348  -0.871  53.830  1.00  0.00    -0.048 Br
HETATM    7  C5  UNL     1      23.074   0.139  53.494  1.00  0.00     0.086 A 
HETATM    8  C7  UNL     1      24.035   1.001  53.127  1.00  0.00     0.055 A 
HETATM    9  C8  UNL     1      23.604   2.245  52.498  1.00  0.00     0.040 A 
HETATM   10  C9  UNL     1      24.593   3.050  52.162  1.00  0.00     0.126 C 
ENDROOT
BRANCH  10  11
HETATM   11  N2  UNL     1      25.986   2.813  52.355  1.00  0.00    -0.384 N 
HETATM   12  H9  UNL     1      26.212   2.641  53.378  1.00  0.00     0.157 HD
HETATM   13  H10 UNL     1      26.636   2.820  51.562  1.00  0.00     0.157 HD
ENDBRANCH  10  11
BRANCH  10  14
HETATM   14  N3  UNL     1      24.549   4.329  51.536  1.00  0.00    -0.285 N 
HETATM   15  H11 UNL     1      24.373   5.040  52.307  1.00  0.00     0.188 HD
BRANCH  14  16
HETATM   16  N4  UNL     1      24.721   4.471  50.155  1.00  0.00    -0.299 N 
HETATM   17  H12 UNL     1      23.924   4.098  49.572  1.00  0.00     0.187 HD
BRANCH  16  18
HETATM   18  C10 UNL     1      25.833   5.052  49.465  1.00  0.00     0.048 A 
HETATM   19  C11 UNL     1      26.978   4.319  49.187  1.00  0.00     0.031 A 
HETATM   20  C12 UNL     1      27.989   4.982  48.515  1.00  0.00     0.002 A 
HETATM   21  C13 UNL     1      27.932   6.300  48.114  1.00  0.00     0.000 A 
HETATM   22  C14 UNL     1      26.785   7.014  48.399  1.00  0.00     0.002 A 
HETATM   23  C15 UNL     1      25.766   6.372  49.067  1.00  0.00     0.031 A 
ENDBRANCH  16  18
ENDBRANCH  14  16
ENDBRANCH  10  14
BRANCH   7  24
HETATM   24  O1  UNL     1      23.461  -1.056  54.097  1.00  0.00    -0.355 OA
HETATM   25  C6  UNL     1      24.469  -1.058  55.086  1.00  0.00     0.210 C 
ENDBRANCH   7  24
TORSDOF 5
ENDMDL
MODEL 8
REMARK VINA RESULT:      -6.9      4.216      5.878
REMARK  5 active torsions:
REMARK  status: ('A' for Active; 'I' for Inactive)
REMARK    1  A    between atoms: C5_7  and  O1_8 
REMARK    2  A    between atoms: C9_12  and  N2_13 
REMARK    3  A    between atoms: C9_12  and  N3_14 
REMARK    4  A    between atoms: N3_14  and  N4_15 
REMARK    5  A    between atoms: N4_15  and  C10_16 
ROOT
HETATM    1  C1  UNL     1      26.585   0.584  52.887  1.00  0.00     0.178 C 
HETATM    2  N1  UNL     1      25.588   1.546  52.459  1.00  0.00    -0.294 NA
HETATM    3  C2  UNL     1      24.351   1.262  52.688  1.00  0.00     0.066 A 
HETATM    4  C3  UNL     1      23.765   0.090  53.330  1.00  0.00     0.054 A 
HETATM    5  C4  UNL     1      22.454   0.007  53.460  1.00  0.00     0.046 A 
HETATM    6 BR1  UNL     1      21.759  -1.554  54.310  1.00  0.00    -0.048 Br
HETATM    7  C5  UNL     1      21.548   1.046  52.986  1.00  0.00     0.086 A 
HETATM    8  C7  UNL     1      21.981   2.164  52.382  1.00  0.00     0.055 A 
HETATM    9  C8  UNL     1      23.424   2.307  52.212  1.00  0.00     0.040 A 
HETATM   10  C9  UNL     1      23.787   3.424  51.612  1.00  0.00     0.126 C 
ENDROOT
BRANCH  10  11
HETATM   11  N2  UNL     1      22.923   4.456  51.140  1.00  0.00    -0.384 N 
HETATM   12  H9  UNL     1      23.425   5.103  50.464  1.00  0.00     0.157 HD
HETATM   13  H10 UNL     1      21.949   4.512  51.454  1.00  0.00     0.157 HD
ENDBRANCH  10  11
BRANCH  10  14
HETATM   14  N3  UNL     1      25.091   3.894  51.284  1.00  0.00    -0.285 N 
HETATM   15  H11 UNL     1      25.528   4.240  52.189  1.00  0.00     0.188 HD
BRANCH  14  16
HETATM   16  N4  UNL     1      25.574   3.846  49.971  1.00  0.00    -0.299 N 
HETATM   17  H12 UNL     1      25.369   2.945  49.461  1.00  0.00     0.187 HD
BRANCH  16  18
HETATM   18  C10 UNL     1      26.298   4.860  49.265  1.00  0.00     0.048 A 
HETATM   19  C11 UNL     1      25.712   6.076  48.942  1.00  0.00     0.031 A 
HETATM   20  C12 UNL     1      26.504   6.982  48.259  1.00  0.00     0.002 A 
HETATM   21  C13 UNL     1      27.812   6.755  47.886  1.00  0.00     0.000 A 
HETATM   22  C14 UNL     1      28.378   5.539  48.216  1.00  0.00     0.002 A 
HETATM   23  C15 UNL     1      27.606   4.624  48.897  1.00  0.00     0.031 A 
ENDBRANCH  16  18
ENDBRANCH  14  16
ENDBRANCH  10  14
BRANCH   7  24
HETATM   24  O1  UNL     1      20.174   0.887  53.160  1.00  0.00    -0.355 OA
HETATM   25  C6  UNL     1      19.369   0.441  52.089  1.00  0.00     0.210 C 
ENDBRANCH   7  24
TORSDOF 5
ENDMDL
MODEL 9
REMARK VINA RESULT:      -6.8      3.983      7.261
REMARK  5 active torsions:
REMARK  status: ('A' for Active; 'I' for Inactive)
REMARK    1  A    between atoms: C5_7  and  O1_8 
REMARK    2  A    between atoms: C9_12  and  N2_13 
REMARK    3  A    between atoms: C9_12  and  N3_14 
REMARK    4  A    between atoms: N3_14  and  N4_15 
REMARK    5  A    between atoms: N4_15  and  C10_16 
ROOT
HETATM    1  C1  UNL     1      21.787  -0.199  53.213  1.00  0.00     0.178 C 
HETATM    2  N1  UNL     1      22.398   1.088  52.938  1.00  0.00    -0.294 NA
HETATM    3  C2  UNL     1      23.683   1.127  52.841  1.00  0.00     0.066 A 
HETATM    4  C3  UNL     1      24.663   0.052  52.964  1.00  0.00     0.054 A 
HETATM    5  C4  UNL     1      25.946   0.323  52.825  1.00  0.00     0.046 A 
HETATM    6 BR1  UNL     1      27.169  -1.132  52.999  1.00  0.00    -0.048 Br
HETATM    7  C5  UNL     1      26.443   1.666  52.549  1.00  0.00     0.086 A 
HETATM    8  C7  UNL     1      25.629   2.726  52.417  1.00  0.00     0.055 A 
HETATM    9  C8  UNL     1      24.197   2.482  52.562  1.00  0.00     0.040 A 
HETATM   10  C9  UNL     1      23.451   3.560  52.422  1.00  0.00     0.126 C 
ENDROOT
BRANCH  10  11
HETATM   11  N2  UNL     1      23.909   4.883  52.151  1.00  0.00    -0.384 N 
HETATM   12  H9  UNL     1      24.942   4.893  51.910  1.00  0.00     0.157 HD
HETATM   13  H10 UNL     1      23.268   5.682  52.201  1.00  0.00     0.157 HD
ENDBRANCH  10  11
BRANCH  10  14
HETATM   14  N3  UNL     1      22.035   3.698  52.497  1.00  0.00    -0.285 N 
HETATM   15  H11 UNL     1      21.794   3.824  53.526  1.00  0.00     0.188 HD
BRANCH  14  16
HETATM   16  N4  UNL     1      21.236   3.657  51.349  1.00  0.00    -0.299 N 
HETATM   17  H12 UNL     1      20.267   4.056  51.474  1.00  0.00     0.187 HD
BRANCH  16  18
HETATM   18  C10 UNL     1      21.583   3.145  50.058  1.00  0.00     0.048 A 
HETATM   19  C11 UNL     1      21.425   1.803  49.743  1.00  0.00     0.031 A 
HETATM   20  C12 UNL     1      21.792   1.419  48.466  1.00  0.00     0.002 A 
HETATM   21  C13 UNL     1      22.296   2.270  47.505  1.00  0.00     0.000 A 
HETATM   22  C14 UNL     1      22.446   3.602  47.836  1.00  0.00     0.002 A 
HETATM   23  C15 UNL     1      22.086   4.005  49.103  1.00  0.00     0.031 A 
ENDBRANCH  16  18
ENDBRANCH  14  16
ENDBRANCH  10  14
BRANCH   7  24
HETATM   24  O1  UNL     1      27.814   1.874  52.414  1.00  0.00    -0.355 OA
HETATM   25  C6  UNL     1      28.567   2.374  53.499  1.00  0.00     0.210 C 
ENDBRANCH   7  24
TORSDOF 5
ENDMDL
