MODEL 1
REMARK VINA RESULT:      -7.7      0.000      0.000
REMARK  6 active torsions:
REMARK  status: ('A' for Active; 'I' for Inactive)
REMARK    1  A    between atoms: C2_3  and  C3_4 
REMARK    2  A    between atoms: C3_4  and  N2_5 
REMARK    3  A    between atoms: N2_5  and  C4_6 
REMARK    4  A    between atoms: C13_18  and  C14_19 
REMARK    5  A    between atoms: C14_19  and  N5_20 
REMARK    6  A    between atoms: N5_20  and  C15_21 
ROOT
HETATM    1  N1  UNL     1      16.723   3.062  51.796  1.00  0.00    -0.197 NA
HETATM    2  C1  UNL     1      17.851   2.854  51.481  1.00  0.00     0.064 C 
HETATM    3  C2  UNL     1      19.233   2.593  51.115  1.00  0.00     0.170 C 
ENDROOT
BRANCH   3   4
HETATM    4  C3  UNL     1      19.900   1.937  52.304  1.00  0.00     0.104 C 
BRANCH   4   5
HETATM    5  N2  UNL     1      20.650   1.763  53.311  1.00  0.00    -0.268 NA
BRANCH   5   6
HETATM    6  C4  UNL     1      21.582   0.745  53.569  1.00  0.00     0.041 C 
HETATM    7  C5  UNL     1      22.335   1.229  52.488  1.00  0.00     0.020 C 
HETATM    8  C6  UNL     1      23.108   1.812  51.293  1.00  0.00     0.143 C 
HETATM    9  N3  UNL     1      24.385   2.165  51.668  1.00  0.00    -0.415 N 
HETATM   10  C7  UNL     1      25.452   2.501  50.842  1.00  0.00     0.142 C 
HETATM   11  H7  UNL     1      24.338   2.852  52.528  1.00  0.00     0.153 HD
HETATM   12  C8  UNL     1      26.761   2.462  51.676  1.00  0.00    -0.002 C 
HETATM   13  C9  UNL     1      27.265   1.998  52.827  1.00  0.00     0.072 C 
HETATM   14  C10 UNL     1      26.594   1.177  53.933  1.00  0.00     0.244 C 
HETATM   15  O1  UNL     1      26.522   0.680  55.060  1.00  0.00    -0.268 OA
HETATM   16  N4  UNL     1      25.365   0.603  53.632  1.00  0.00    -0.334 N 
HETATM   17  C11 UNL     1      24.121  -0.066  53.729  1.00  0.00     0.088 C 
HETATM   18  H12 UNL     1      25.252   0.446  52.621  1.00  0.00     0.168 HD
HETATM   19  C12 UNL     1      23.197  -0.963  53.461  1.00  0.00     0.003 C 
HETATM   20  C13 UNL     1      22.126  -0.494  54.350  1.00  0.00     0.079 C 
BRANCH  20  21
HETATM   21  C14 UNL     1      20.997  -1.532  54.302  1.00  0.00     0.134 C 
BRANCH  21  22
HETATM   22  N5  UNL     1      19.777  -1.175  53.746  1.00  0.00    -0.389 N 
HETATM   23  H18 UNL     1      19.939  -0.142  53.551  1.00  0.00     0.159 HD
BRANCH  22  24
HETATM   24  C15 UNL     1      18.486  -1.464  53.336  1.00  0.00     0.029 A 
HETATM   25  C16 UNL     1      17.642  -0.650  52.522  1.00  0.00     0.029 A 
HETATM   26  C17 UNL     1      16.357  -0.960  52.030  1.00  0.00     0.004 A 
HETATM   27  C18 UNL     1      16.025  -2.222  52.488  1.00  0.00     0.024 A 
HETATM   28  C19 UNL     1      16.704  -3.027  53.225  1.00  0.00     0.036 A 
HETATM   29 CL1  UNL     1      15.912  -4.573  53.568  1.00  0.00    -0.084 Cl
HETATM   30  C20 UNL     1      17.970  -2.697  53.676  1.00  0.00     0.052 A 
ENDBRANCH  22  24
ENDBRANCH  21  22
ENDBRANCH  20  21
ENDBRANCH   5   6
ENDBRANCH   4   5
ENDBRANCH   3   4
TORSDOF 6
ENDMDL
MODEL 2
REMARK VINA RESULT:      -7.7      5.065      8.860
REMARK  6 active torsions:
REMARK  status: ('A' for Active; 'I' for Inactive)
REMARK    1  A    between atoms: C2_3  and  C3_4 
REMARK    2  A    between atoms: C3_4  and  N2_5 
REMARK    3  A    between atoms: N2_5  and  C4_6 
REMARK    4  A    between atoms: C13_18  and  C14_19 
REMARK    5  A    between atoms: C14_19  and  N5_20 
REMARK    6  A    between atoms: N5_20  and  C15_21 
ROOT
HETATM    1  N1  UNL     1      21.515   3.597  44.509  1.00  0.00    -0.197 NA
HETATM    2  C1  UNL     1      21.817   3.935  45.609  1.00  0.00     0.064 C 
HETATM    3  C2  UNL     1      22.185   4.328  46.959  1.00  0.00     0.170 C 
ENDROOT
BRANCH   3   4
HETATM    4  C3  UNL     1      22.246   3.069  47.796  1.00  0.00     0.104 C 
BRANCH   4   5
HETATM    5  N2  UNL     1      22.334   2.303  48.803  1.00  0.00    -0.268 NA
BRANCH   5   6
HETATM    6  C4  UNL     1      23.016   2.494  50.016  1.00  0.00     0.041 C 
HETATM    7  C5  UNL     1      21.854   2.069  50.678  1.00  0.00     0.020 C 
HETATM    8  C6  UNL     1      20.547   1.595  51.336  1.00  0.00     0.143 C 
HETATM    9  N3  UNL     1      20.779   0.503  52.143  1.00  0.00    -0.415 N 
HETATM   10  C7  UNL     1      19.919  -0.064  53.076  1.00  0.00     0.142 C 
HETATM   11  H7  UNL     1      21.278  -0.286  51.556  1.00  0.00     0.153 HD
HETATM   12  C8  UNL     1      20.732  -1.025  53.986  1.00  0.00    -0.002 C 
HETATM   13  C9  UNL     1      21.986  -1.323  54.350  1.00  0.00     0.072 C 
HETATM   14  C10 UNL     1      23.313  -0.692  53.915  1.00  0.00     0.244 C 
HETATM   15  O1  UNL     1      24.541  -0.644  53.818  1.00  0.00    -0.268 OA
HETATM   16  N4  UNL     1      23.240   0.519  53.239  1.00  0.00    -0.334 N 
HETATM   17  C11 UNL     1      23.568   1.681  52.499  1.00  0.00     0.088 C 
HETATM   18  H12 UNL     1      22.381   1.037  53.470  1.00  0.00     0.168 HD
HETATM   19  C12 UNL     1      23.668   2.964  52.227  1.00  0.00     0.003 C 
HETATM   20  C13 UNL     1      24.253   2.892  50.882  1.00  0.00     0.079 C 
BRANCH  20  21
HETATM   21  C14 UNL     1      24.605   4.323  50.454  1.00  0.00     0.134 C 
BRANCH  21  22
HETATM   22  N5  UNL     1      25.617   4.518  49.525  1.00  0.00    -0.389 N 
HETATM   23  H18 UNL     1      25.731   3.532  49.141  1.00  0.00     0.159 HD
BRANCH  22  24
HETATM   24  C15 UNL     1      26.537   5.315  48.865  1.00  0.00     0.029 A 
HETATM   25  C16 UNL     1      26.340   6.652  48.403  1.00  0.00     0.029 A 
HETATM   26  C17 UNL     1      27.286   7.506  47.801  1.00  0.00     0.004 A 
HETATM   27  C18 UNL     1      28.481   6.815  47.715  1.00  0.00     0.024 A 
HETATM   28  C19 UNL     1      28.760   5.618  48.090  1.00  0.00     0.036 A 
HETATM   29 CL1  UNL     1      30.436   5.120  47.812  1.00  0.00    -0.084 Cl
HETATM   30  C20 UNL     1      27.810   4.812  48.694  1.00  0.00     0.052 A 
ENDBRANCH  22  24
ENDBRANCH  21  22
ENDBRANCH  20  21
ENDBRANCH   5   6
ENDBRANCH   4   5
ENDBRANCH   3   4
TORSDOF 6
ENDMDL
MODEL 3
REMARK VINA RESULT:      -7.6      4.815      8.624
REMARK  6 active torsions:
REMARK  status: ('A' for Active; 'I' for Inactive)
REMARK    1  A    between atoms: C2_3  and  C3_4 
REMARK    2  A    between atoms: C3_4  and  N2_5 
REMARK    3  A    between atoms: N2_5  and  C4_6 
REMARK    4  A    between atoms: C13_18  and  C14_19 
REMARK    5  A    between atoms: C14_19  and  N5_20 
REMARK    6  A    between atoms: N5_20  and  C15_21 
ROOT
HETATM    1  N1  UNL     1      22.578   5.340  47.941  1.00  0.00    -0.197 NA
HETATM    2  C1  UNL     1      22.450   4.199  47.629  1.00  0.00     0.064 C 
HETATM    3  C2  UNL     1      22.293   2.800  47.269  1.00  0.00     0.170 C 
ENDROOT
BRANCH   3   4
HETATM    4  C3  UNL     1      22.146   2.015  48.554  1.00  0.00     0.104 C 
BRANCH   4   5
HETATM    5  N2  UNL     1      22.326   1.625  49.747  1.00  0.00    -0.268 NA
BRANCH   5   6
HETATM    6  C4  UNL     1      23.327   1.983  50.665  1.00  0.00     0.041 C 
HETATM    7  C5  UNL     1      22.476   1.543  51.689  1.00  0.00     0.020 C 
HETATM    8  C6  UNL     1      21.492   1.041  52.761  1.00  0.00     0.143 C 
HETATM    9  N3  UNL     1      22.072   0.054  53.526  1.00  0.00    -0.415 N 
HETATM   10  C7  UNL     1      21.605  -0.480  54.722  1.00  0.00     0.142 C 
HETATM   11  H7  UNL     1      22.441  -0.750  52.869  1.00  0.00     0.153 HD
HETATM   12  C8  UNL     1      22.752  -1.284  55.392  1.00  0.00    -0.002 C 
HETATM   13  C9  UNL     1      24.081  -1.453  55.359  1.00  0.00     0.072 C 
HETATM   14  C10 UNL     1      25.136  -0.772  54.482  1.00  0.00     0.244 C 
HETATM   15  O1  UNL     1      26.263  -0.644  53.997  1.00  0.00    -0.268 OA
HETATM   16  N4  UNL     1      24.737   0.358  53.781  1.00  0.00    -0.334 N 
HETATM   17  C11 UNL     1      24.701   1.462  52.894  1.00  0.00     0.088 C 
HETATM   18  H12 UNL     1      23.944   0.832  54.235  1.00  0.00     0.168 HD
HETATM   19  C12 UNL     1      24.582   2.716  52.516  1.00  0.00     0.003 C 
HETATM   20  C13 UNL     1      24.726   2.555  51.063  1.00  0.00     0.079 C 
BRANCH  20  21
HETATM   21  C14 UNL     1      24.782   3.958  50.445  1.00  0.00     0.134 C 
BRANCH  21  22
HETATM   22  N5  UNL     1      25.935   4.358  49.785  1.00  0.00    -0.389 N 
HETATM   23  H18 UNL     1      26.585   3.545  50.005  1.00  0.00     0.159 HD
BRANCH  22  24
HETATM   24  C15 UNL     1      26.658   5.254  49.016  1.00  0.00     0.029 A 
HETATM   25  C16 UNL     1      26.206   6.510  48.509  1.00  0.00     0.029 A 
HETATM   26  C17 UNL     1      26.949   7.470  47.793  1.00  0.00     0.004 A 
HETATM   27  C18 UNL     1      28.233   6.981  47.642  1.00  0.00     0.024 A 
HETATM   28  C19 UNL     1      28.736   5.870  48.049  1.00  0.00     0.036 A 
HETATM   29 CL1  UNL     1      30.447   5.638  47.659  1.00  0.00    -0.084 Cl
HETATM   30  C20 UNL     1      27.982   4.958  48.766  1.00  0.00     0.052 A 
ENDBRANCH  22  24
ENDBRANCH  21  22
ENDBRANCH  20  21
ENDBRANCH   5   6
ENDBRANCH   4   5
ENDBRANCH   3   4
TORSDOF 6
ENDMDL
MODEL 4
REMARK VINA RESULT:      -7.5      4.068      8.045
REMARK  6 active torsions:
REMARK  status: ('A' for Active; 'I' for Inactive)
REMARK    1  A    between atoms: C2_3  and  C3_4 
REMARK    2  A    between atoms: C3_4  and  N2_5 
REMARK    3  A    between atoms: N2_5  and  C4_6 
REMARK    4  A    between atoms: C13_18  and  C14_19 
REMARK    5  A    between atoms: C14_19  and  N5_20 
REMARK    6  A    between atoms: N5_20  and  C15_21 
ROOT
HETATM    1  N1  UNL     1      21.313  -1.258  53.793  1.00  0.00    -0.197 NA
HETATM    2  C1  UNL     1      22.439  -0.877  53.753  1.00  0.00     0.064 C 
HETATM    3  C2  UNL     1      23.809  -0.395  53.694  1.00  0.00     0.170 C 
ENDROOT
BRANCH   3   4
HETATM    4  C3  UNL     1      23.778   0.981  53.066  1.00  0.00     0.104 C 
BRANCH   4   5
HETATM    5  N2  UNL     1      23.868   2.238  52.932  1.00  0.00    -0.268 NA
BRANCH   5   6
HETATM    6  C4  UNL     1      23.973   3.009  51.763  1.00  0.00     0.041 C 
HETATM    7  C5  UNL     1      22.716   2.515  51.383  1.00  0.00     0.020 C 
HETATM    8  C6  UNL     1      21.335   1.934  51.032  1.00  0.00     0.143 C 
HETATM    9  N3  UNL     1      20.424   2.945  50.821  1.00  0.00    -0.415 N 
HETATM   10  C7  UNL     1      19.154   2.844  50.265  1.00  0.00     0.142 C 
HETATM   11  H7  UNL     1      20.401   3.607  51.702  1.00  0.00     0.153 HD
HETATM   12  C8  UNL     1      18.654   4.267  49.896  1.00  0.00    -0.002 C 
HETATM   13  C9  UNL     1      19.089   5.519  49.701  1.00  0.00     0.072 C 
HETATM   14  C10 UNL     1      20.507   6.091  49.781  1.00  0.00     0.244 C 
HETATM   15  O1  UNL     1      21.336   7.003  49.834  1.00  0.00    -0.268 OA
HETATM   16  N4  UNL     1      21.552   5.177  49.819  1.00  0.00    -0.334 N 
HETATM   17  C11 UNL     1      22.835   4.587  49.934  1.00  0.00     0.088 C 
HETATM   18  H12 UNL     1      21.295   4.281  49.383  1.00  0.00     0.168 HD
HETATM   19  C12 UNL     1      23.886   3.881  49.579  1.00  0.00     0.003 C 
HETATM   20  C13 UNL     1      24.695   4.004  50.799  1.00  0.00     0.079 C 
BRANCH  20  21
HETATM   21  C14 UNL     1      26.063   3.372  50.512  1.00  0.00     0.134 C 
BRANCH  21  22
HETATM   22  N5  UNL     1      26.838   2.933  51.576  1.00  0.00    -0.389 N 
HETATM   23  H18 UNL     1      27.173   3.859  51.978  1.00  0.00     0.159 HD
BRANCH  22  24
HETATM   24  C15 UNL     1      27.394   1.932  52.355  1.00  0.00     0.029 A 
HETATM   25  C16 UNL     1      28.252   2.100  53.484  1.00  0.00     0.029 A 
HETATM   26  C17 UNL     1      28.764   1.101  54.336  1.00  0.00     0.004 A 
HETATM   27  C18 UNL     1      28.295  -0.119  53.882  1.00  0.00     0.024 A 
HETATM   28  C19 UNL     1      27.532  -0.378  52.881  1.00  0.00     0.036 A 
HETATM   29 CL1  UNL     1      27.151  -2.092  52.657  1.00  0.00    -0.084 Cl
HETATM   30  C20 UNL     1      27.033   0.630  52.075  1.00  0.00     0.052 A 
ENDBRANCH  22  24
ENDBRANCH  21  22
ENDBRANCH  20  21
ENDBRANCH   5   6
ENDBRANCH   4   5
ENDBRANCH   3   4
TORSDOF 6
ENDMDL
MODEL 5
REMARK VINA RESULT:      -7.4      5.187      8.460
REMARK  6 active torsions:
REMARK  status: ('A' for Active; 'I' for Inactive)
REMARK    1  A    between atoms: C2_3  and  C3_4 
REMARK    2  A    between atoms: C3_4  and  N2_5 
REMARK    3  A    between atoms: N2_5  and  C4_6 
REMARK    4  A    between atoms: C13_18  and  C14_19 
REMARK    5  A    between atoms: C14_19  and  N5_20 
REMARK    6  A    between atoms: N5_20  and  C15_21 
ROOT
HETATM    1  N1  UNL     1      27.139   7.002  48.388  1.00  0.00    -0.197 NA
HETATM    2  C1  UNL     1      27.268   5.835  48.583  1.00  0.00     0.064 C 
HETATM    3  C2  UNL     1      27.407   4.410  48.832  1.00  0.00     0.170 C 
ENDROOT
BRANCH   3   4
HETATM    4  C3  UNL     1      26.182   3.962  49.597  1.00  0.00     0.104 C 
BRANCH   4   5
HETATM    5  N2  UNL     1      25.145   3.309  49.922  1.00  0.00    -0.268 NA
BRANCH   5   6
HETATM    6  C4  UNL     1      24.219   3.552  50.950  1.00  0.00     0.041 C 
HETATM    7  C5  UNL     1      23.779   4.668  50.223  1.00  0.00     0.020 C 
HETATM    8  C6  UNL     1      23.349   5.876  49.373  1.00  0.00     0.143 C 
HETATM    9  N3  UNL     1      22.004   5.808  49.081  1.00  0.00    -0.415 N 
HETATM   10  C7  UNL     1      21.198   6.806  48.546  1.00  0.00     0.142 C 
HETATM   11  H7  UNL     1      21.782   4.841  48.601  1.00  0.00     0.153 HD
HETATM   12  C8  UNL     1      19.710   6.404  48.736  1.00  0.00    -0.002 C 
HETATM   13  C9  UNL     1      18.924   5.570  49.431  1.00  0.00     0.072 C 
HETATM   14  C10 UNL     1      19.292   4.527  50.491  1.00  0.00     0.244 C 
HETATM   15  O1  UNL     1      19.066   3.561  51.224  1.00  0.00    -0.268 OA
HETATM   16  N4  UNL     1      20.577   4.587  51.013  1.00  0.00    -0.334 N 
HETATM   17  C11 UNL     1      21.771   4.293  51.716  1.00  0.00     0.088 C 
HETATM   18  H12 UNL     1      20.975   5.534  50.946  1.00  0.00     0.168 HD
HETATM   19  C12 UNL     1      22.768   4.478  52.554  1.00  0.00     0.003 C 
HETATM   20  C13 UNL     1      23.528   3.244  52.317  1.00  0.00     0.079 C 
BRANCH  20  21
HETATM   21  C14 UNL     1      24.666   3.198  53.345  1.00  0.00     0.134 C 
BRANCH  21  22
HETATM   22  N5  UNL     1      25.877   2.626  52.984  1.00  0.00    -0.389 N 
HETATM   23  H18 UNL     1      26.205   3.305  52.234  1.00  0.00     0.159 HD
BRANCH  22  24
HETATM   24  C15 UNL     1      26.847   1.643  53.089  1.00  0.00     0.029 A 
HETATM   25  C16 UNL     1      28.170   1.794  53.607  1.00  0.00     0.029 A 
HETATM   26  C17 UNL     1      29.143   0.792  53.795  1.00  0.00     0.004 A 
HETATM   27  C18 UNL     1      28.599  -0.407  53.371  1.00  0.00     0.024 A 
HETATM   28  C19 UNL     1      27.433  -0.648  52.887  1.00  0.00     0.036 A 
HETATM   29 CL1  UNL     1      27.127  -2.345  52.487  1.00  0.00    -0.084 Cl
HETATM   30  C20 UNL     1      26.495   0.358  52.733  1.00  0.00     0.052 A 
ENDBRANCH  22  24
ENDBRANCH  21  22
ENDBRANCH  20  21
ENDBRANCH   5   6
ENDBRANCH   4   5
ENDBRANCH   3   4
TORSDOF 6
ENDMDL
MODEL 6
REMARK VINA RESULT:      -7.4      4.743      6.817
REMARK  6 active torsions:
REMARK  status: ('A' for Active; 'I' for Inactive)
REMARK    1  A    between atoms: C2_3  and  C3_4 
REMARK    2  A    between atoms: C3_4  and  N2_5 
REMARK    3  A    between atoms: N2_5  and  C4_6 
REMARK    4  A    between atoms: C13_18  and  C14_19 
REMARK    5  A    between atoms: C14_19  and  N5_20 
REMARK    6  A    between atoms: N5_20  and  C15_21 
ROOT
HETATM    1  N1  UNL     1      21.965   3.817  45.188  1.00  0.00    -0.197 NA
HETATM    2  C1  UNL     1      21.645   3.366  46.242  1.00  0.00     0.064 C 
HETATM    3  C2  UNL     1      21.275   2.816  47.535  1.00  0.00     0.170 C 
ENDROOT
BRANCH   3   4
HETATM    4  C3  UNL     1      22.539   2.699  48.357  1.00  0.00     0.104 C 
BRANCH   4   5
HETATM    5  N2  UNL     1      23.550   3.020  49.051  1.00  0.00    -0.268 NA
BRANCH   5   6
HETATM    6  C4  UNL     1      23.748   4.131  49.886  1.00  0.00     0.041 C 
HETATM    7  C5  UNL     1      25.119   4.034  49.608  1.00  0.00     0.020 C 
HETATM    8  C6  UNL     1      26.609   3.869  49.259  1.00  0.00     0.143 C 
HETATM    9  N3  UNL     1      27.109   5.029  48.709  1.00  0.00    -0.415 N 
HETATM   10  C7  UNL     1      28.440   5.358  48.483  1.00  0.00     0.142 C 
HETATM   11  H7  UNL     1      26.492   5.319  47.843  1.00  0.00     0.153 HD
HETATM   12  C8  UNL     1      28.538   6.881  48.198  1.00  0.00    -0.002 C 
HETATM   13  C9  UNL     1      27.849   8.023  48.324  1.00  0.00     0.072 C 
HETATM   14  C10 UNL     1      26.458   8.272  48.915  1.00  0.00     0.244 C 
HETATM   15  O1  UNL     1      25.447   8.945  49.131  1.00  0.00    -0.268 OA
HETATM   16  N4  UNL     1      25.896   7.241  49.656  1.00  0.00    -0.334 N 
HETATM   17  C11 UNL     1      24.995   6.437  50.395  1.00  0.00     0.088 C 
HETATM   18  H12 UNL     1      26.614   6.623  50.060  1.00  0.00     0.168 HD
HETATM   19  C12 UNL     1      24.539   5.738  51.412  1.00  0.00     0.003 C 
HETATM   20  C13 UNL     1      23.269   5.268  50.845  1.00  0.00     0.079 C 
BRANCH  20  21
HETATM   21  C14 UNL     1      22.498   4.556  51.965  1.00  0.00     0.134 C 
BRANCH  21  22
HETATM   22  N5  UNL     1      22.467   3.169  51.986  1.00  0.00    -0.389 N 
HETATM   23  H18 UNL     1      21.919   2.967  51.097  1.00  0.00     0.159 HD
BRANCH  22  24
HETATM   24  C15 UNL     1      22.767   1.946  52.561  1.00  0.00     0.029 A 
HETATM   25  C16 UNL     1      21.846   1.020  53.138  1.00  0.00     0.029 A 
HETATM   26  C17 UNL     1      22.120  -0.262  53.656  1.00  0.00     0.004 A 
HETATM   27  C18 UNL     1      23.478  -0.487  53.524  1.00  0.00     0.024 A 
HETATM   28  C19 UNL     1      24.387   0.276  53.030  1.00  0.00     0.036 A 
HETATM   29 CL1  UNL     1      26.019  -0.410  53.031  1.00  0.00    -0.084 Cl
HETATM   30  C20 UNL     1      24.079   1.522  52.513  1.00  0.00     0.052 A 
ENDBRANCH  22  24
ENDBRANCH  21  22
ENDBRANCH  20  21
ENDBRANCH   5   6
ENDBRANCH   4   5
ENDBRANCH   3   4
TORSDOF 6
ENDMDL
MODEL 7
REMARK VINA RESULT:      -7.3      3.568      4.673
REMARK  6 active torsions:
REMARK  status: ('A' for Active; 'I' for Inactive)
REMARK    1  A    between atoms: C2_3  and  C3_4 
REMARK    2  A    between atoms: C3_4  and  N2_5 
REMARK    3  A    between atoms: N2_5  and  C4_6 
REMARK    4  A    between atoms: C13_18  and  C14_19 
REMARK    5  A    between atoms: C14_19  and  N5_20 
REMARK    6  A    between atoms: N5_20  and  C15_21 
ROOT
HETATM    1  N1  UNL     1      23.604   4.997  49.110  1.00  0.00    -0.197 NA
HETATM    2  C1  UNL     1      22.583   5.024  49.720  1.00  0.00     0.064 C 
HETATM    3  C2  UNL     1      21.344   5.046  50.480  1.00  0.00     0.170 C 
ENDROOT
BRANCH   3   4
HETATM    4  C3  UNL     1      21.561   4.213  51.724  1.00  0.00     0.104 C 
BRANCH   4   5
HETATM    5  N2  UNL     1      22.144   3.570  52.649  1.00  0.00    -0.268 NA
BRANCH   5   6
HETATM    6  C4  UNL     1      22.407   2.195  52.755  1.00  0.00     0.041 C 
HETATM    7  C5  UNL     1      23.689   2.451  52.245  1.00  0.00     0.020 C 
HETATM    8  C6  UNL     1      25.076   2.804  51.681  1.00  0.00     0.143 C 
HETATM    9  N3  UNL     1      26.068   2.385  52.539  1.00  0.00    -0.415 N 
HETATM   10  C7  UNL     1      27.433   2.307  52.288  1.00  0.00     0.142 C 
HETATM   11  H7  UNL     1      25.889   2.808  53.541  1.00  0.00     0.153 HD
HETATM   12  C8  UNL     1      28.098   1.448  53.397  1.00  0.00    -0.002 C 
HETATM   13  C9  UNL     1      27.808   0.566  54.364  1.00  0.00     0.072 C 
HETATM   14  C10 UNL     1      26.457  -0.020  54.787  1.00  0.00     0.244 C 
HETATM   15  O1  UNL     1      25.701  -0.636  55.542  1.00  0.00    -0.268 OA
HETATM   16  N4  UNL     1      25.389   0.173  53.920  1.00  0.00    -0.334 N 
HETATM   17  C11 UNL     1      24.092   0.211  53.354  1.00  0.00     0.088 C 
HETATM   18  H12 UNL     1      25.702   0.309  52.949  1.00  0.00     0.168 HD
HETATM   19  C12 UNL     1      23.136  -0.026  52.481  1.00  0.00     0.003 C 
HETATM   20  C13 UNL     1      22.035   0.718  53.106  1.00  0.00     0.079 C 
BRANCH  20  21
HETATM   21  C14 UNL     1      20.762   0.419  52.304  1.00  0.00     0.134 C 
BRANCH  21  22
HETATM   22  N5  UNL     1      20.751   0.667  50.939  1.00  0.00    -0.389 N 
HETATM   23  H18 UNL     1      21.372  -0.122  50.586  1.00  0.00     0.159 HD
BRANCH  22  24
HETATM   24  C15 UNL     1      20.366   1.402  49.831  1.00  0.00     0.029 A 
HETATM   25  C16 UNL     1      19.078   1.963  49.578  1.00  0.00     0.029 A 
HETATM   26  C17 UNL     1      18.688   2.779  48.497  1.00  0.00     0.004 A 
HETATM   27  C18 UNL     1      19.791   2.949  47.680  1.00  0.00     0.024 A 
HETATM   28  C19 UNL     1      20.982   2.485  47.811  1.00  0.00     0.036 A 
HETATM   29 CL1  UNL     1      22.114   2.963  46.536  1.00  0.00    -0.084 Cl
HETATM   30  C20 UNL     1      21.335   1.701  48.895  1.00  0.00     0.052 A 
ENDBRANCH  22  24
ENDBRANCH  21  22
ENDBRANCH  20  21
ENDBRANCH   5   6
ENDBRANCH   4   5
ENDBRANCH   3   4
TORSDOF 6
ENDMDL
MODEL 8
REMARK VINA RESULT:      -7.2      3.815      7.688
REMARK  6 active torsions:
REMARK  status: ('A' for Active; 'I' for Inactive)
REMARK    1  A    between atoms: C2_3  and  C3_4 
REMARK    2  A    between atoms: C3_4  and  N2_5 
REMARK    3  A    between atoms: N2_5  and  C4_6 
REMARK    4  A    between atoms: C13_18  and  C14_19 
REMARK    5  A    between atoms: C14_19  and  N5_20 
REMARK    6  A    between atoms: N5_20  and  C15_21 
ROOT
HETATM    1  N1  UNL     1      22.546   5.348  48.549  1.00  0.00    -0.197 NA
HETATM    2  C1  UNL     1      22.795   4.186  48.599  1.00  0.00     0.064 C 
HETATM    3  C2  UNL     1      23.101   2.768  48.681  1.00  0.00     0.170 C 
ENDROOT
BRANCH   3   4
HETATM    4  C3  UNL     1      23.303   2.431  50.142  1.00  0.00     0.104 C 
BRANCH   4   5
HETATM    5  N2  UNL     1      23.603   1.789  51.193  1.00  0.00    -0.268 NA
BRANCH   5   6
HETATM    6  C4  UNL     1      22.777   1.053  52.059  1.00  0.00     0.041 C 
HETATM    7  C5  UNL     1      21.896   2.145  52.066  1.00  0.00     0.020 C 
HETATM    8  C6  UNL     1      20.976   3.378  52.026  1.00  0.00     0.143 C 
HETATM    9  N3  UNL     1      19.714   3.027  51.598  1.00  0.00    -0.415 N 
HETATM   10  C7  UNL     1      18.555   3.793  51.650  1.00  0.00     0.142 C 
HETATM   11  H7  UNL     1      19.787   2.512  50.627  1.00  0.00     0.153 HD
HETATM   12  C8  UNL     1      17.333   2.868  51.403  1.00  0.00    -0.002 C 
HETATM   13  C9  UNL     1      16.972   1.578  51.394  1.00  0.00     0.072 C 
HETATM   14  C10 UNL     1      17.800   0.323  51.691  1.00  0.00     0.244 C 
HETATM   15  O1  UNL     1      18.011  -0.892  51.701  1.00  0.00    -0.268 OA
HETATM   16  N4  UNL     1      19.036   0.514  52.294  1.00  0.00    -0.334 N 
HETATM   17  C11 UNL     1      20.331   0.307  52.829  1.00  0.00     0.088 C 
HETATM   18  H12 UNL     1      19.070   1.392  52.832  1.00  0.00     0.168 HD
HETATM   19  C12 UNL     1      21.293   0.309  53.726  1.00  0.00     0.003 C 
HETATM   20  C13 UNL     1      22.401  -0.202  52.909  1.00  0.00     0.079 C 
BRANCH  20  21
HETATM   21  C14 UNL     1      23.596  -0.434  53.843  1.00  0.00     0.134 C 
BRANCH  21  22
HETATM   22  N5  UNL     1      24.881  -0.295  53.339  1.00  0.00    -0.389 N 
HETATM   23  H18 UNL     1      24.864  -1.005  52.547  1.00  0.00     0.159 HD
BRANCH  22  24
HETATM   24  C15 UNL     1      26.145   0.270  53.346  1.00  0.00     0.029 A 
HETATM   25  C16 UNL     1      26.463   1.660  53.430  1.00  0.00     0.029 A 
HETATM   26  C17 UNL     1      27.741   2.249  53.518  1.00  0.00     0.004 A 
HETATM   27  C18 UNL     1      28.676   1.230  53.496  1.00  0.00     0.024 A 
HETATM   28  C19 UNL     1      28.497  -0.040  53.416  1.00  0.00     0.036 A 
HETATM   29 CL1  UNL     1      29.980  -1.006  53.440  1.00  0.00    -0.084 Cl
HETATM   30  C20 UNL     1      27.227  -0.586  53.350  1.00  0.00     0.052 A 
ENDBRANCH  22  24
ENDBRANCH  21  22
ENDBRANCH  20  21
ENDBRANCH   5   6
ENDBRANCH   4   5
ENDBRANCH   3   4
TORSDOF 6
ENDMDL
MODEL 9
REMARK VINA RESULT:      -7.1      2.028      2.927
REMARK  6 active torsions:
REMARK  status: ('A' for Active; 'I' for Inactive)
REMARK    1  A    between atoms: C2_3  and  C3_4 
REMARK    2  A    between atoms: C3_4  and  N2_5 
REMARK    3  A    between atoms: N2_5  and  C4_6 
REMARK    4  A    between atoms: C13_18  and  C14_19 
REMARK    5  A    between atoms: C14_19  and  N5_20 
REMARK    6  A    between atoms: N5_20  and  C15_21 
ROOT
HETATM    1  N1  UNL     1      19.865   3.423  49.911  1.00  0.00    -0.197 NA
HETATM    2  C1  UNL     1      20.593   4.279  50.302  1.00  0.00     0.064 C 
HETATM    3  C2  UNL     1      21.491   5.311  50.792  1.00  0.00     0.170 C 
ENDROOT
BRANCH   3   4
HETATM    4  C3  UNL     1      22.397   4.672  51.821  1.00  0.00     0.104 C 
BRANCH   4   5
HETATM    5  N2  UNL     1      23.308   3.955  52.334  1.00  0.00    -0.268 NA
BRANCH   5   6
HETATM    6  C4  UNL     1      23.409   2.556  52.415  1.00  0.00     0.041 C 
HETATM    7  C5  UNL     1      24.787   2.693  52.192  1.00  0.00     0.020 C 
HETATM    8  C6  UNL     1      26.289   2.916  51.944  1.00  0.00     0.143 C 
HETATM    9  N3  UNL     1      27.035   2.364  52.962  1.00  0.00    -0.415 N 
HETATM   10  C7  UNL     1      28.409   2.151  52.991  1.00  0.00     0.142 C 
HETATM   11  H7  UNL     1      26.692   2.768  53.928  1.00  0.00     0.153 HD
HETATM   12  C8  UNL     1      28.740   1.187  54.162  1.00  0.00    -0.002 C 
HETATM   13  C9  UNL     1      28.171   0.309  54.998  1.00  0.00     0.072 C 
HETATM   14  C10 UNL     1      26.712  -0.145  55.103  1.00  0.00     0.244 C 
HETATM   15  O1  UNL     1      25.759  -0.703  55.652  1.00  0.00    -0.268 OA
HETATM   16  N4  UNL     1      25.872   0.190  54.049  1.00  0.00    -0.334 N 
HETATM   17  C11 UNL     1      24.731   0.386  53.233  1.00  0.00     0.088 C 
HETATM   18  H12 UNL     1      26.393   0.325  53.171  1.00  0.00     0.168 HD
HETATM   19  C12 UNL     1      23.961   0.282  52.172  1.00  0.00     0.003 C 
HETATM   20  C13 UNL     1      22.831   1.117  52.599  1.00  0.00     0.079 C 
BRANCH  20  21
HETATM   21  C14 UNL     1      21.730   0.982  51.538  1.00  0.00     0.134 C 
BRANCH  21  22
HETATM   22  N5  UNL     1      20.424   0.757  51.948  1.00  0.00    -0.389 N 
HETATM   23  H18 UNL     1      20.079   1.754  52.083  1.00  0.00     0.159 HD
BRANCH  22  24
HETATM   24  C15 UNL     1      19.370  -0.080  52.275  1.00  0.00     0.029 A 
HETATM   25  C16 UNL     1      19.343  -1.063  53.310  1.00  0.00     0.029 A 
HETATM   26  C17 UNL     1      18.257  -1.868  53.709  1.00  0.00     0.004 A 
HETATM   27  C18 UNL     1      17.180  -1.552  52.900  1.00  0.00     0.024 A 
HETATM   28  C19 UNL     1      17.102  -0.697  51.944  1.00  0.00     0.036 A 
HETATM   29 CL1  UNL     1      15.514  -0.588  51.168  1.00  0.00    -0.084 Cl
HETATM   30  C20 UNL     1      18.184   0.090  51.591  1.00  0.00     0.052 A 
ENDBRANCH  22  24
ENDBRANCH  21  22
ENDBRANCH  20  21
ENDBRANCH   5   6
ENDBRANCH   4   5
ENDBRANCH   3   4
TORSDOF 6
ENDMDL
