MODEL 1
REMARK VINA RESULT:      -7.6      0.000      0.000
REMARK  4 active torsions:
REMARK  status: ('A' for Active; 'I' for Inactive)
REMARK    1  A    between atoms: O1_2  and  C2_3 
REMARK    2  A    between atoms: C7_8  and  O2_9 
REMARK    3  A    between atoms: C10_13  and  C11_14 
REMARK    4  A    between atoms: C17_22  and  N3_23 
ROOT
HETATM    1  C2  UNL     1      26.549  -0.087  53.572  1.00  0.00     0.101 C 
HETATM    2  C3  UNL     1      25.221  -0.388  53.669  1.00  0.00     0.038 C 
HETATM    3  C4  UNL     1      24.464   0.490  52.840  1.00  0.00     0.131 C 
HETATM    4  C5  UNL     1      24.820   1.905  53.373  1.00  0.00     0.089 C 
HETATM    5  C6  UNL     1      26.111   2.098  52.615  1.00  0.00     0.048 C 
HETATM    6  C7  UNL     1      27.050   1.210  53.020  1.00  0.00     0.123 C 
HETATM    7  N1  UNL     1      26.159   3.107  51.613  1.00  0.00    -0.364 N 
HETATM    8  C9  UNL     1      25.227   3.328  50.595  1.00  0.00     0.121 C 
HETATM    9  C10 UNL     1      24.076   2.980  50.115  1.00  0.00     0.101 C 
HETATM   10  N2  UNL     1      23.739   2.050  51.015  1.00  0.00    -0.063 NA
HETATM   11  C17 UNL     1      22.797   1.671  51.763  1.00  0.00     0.695 C 
HETATM   12  N4  UNL     1      23.094   0.505  52.629  1.00  0.00    -0.216 N 
HETATM   13  H11 UNL     1      27.030   3.623  51.809  1.00  0.00     0.165 HD
HETATM   14  H19 UNL     1      22.456  -0.188  53.023  1.00  0.00     0.178 HD
ENDROOT
BRANCH   9  15
HETATM   15  C11 UNL     1      23.366   3.468  48.943  1.00  0.00    -0.004 A 
HETATM   16  C12 UNL     1      22.737   2.467  48.237  1.00  0.00     0.014 A 
HETATM   17  C13 UNL     1      22.038   2.843  47.110  1.00  0.00     0.002 A 
HETATM   18  C14 UNL     1      21.972   4.159  46.709  1.00  0.00     0.019 A 
HETATM   19  C15 UNL     1      22.600   5.167  47.411  1.00  0.00     0.011 A 
HETATM   20 BR1  UNL     1      22.559   7.009  46.924  1.00  0.00    -0.051 Br
HETATM   21  C16 UNL     1      23.292   4.769  48.531  1.00  0.00     0.032 A 
ENDBRANCH   9  15
BRANCH  11  22
HETATM   22  N3  UNL     1      21.447   2.031  52.113  1.00  0.00    -0.233 N 
HETATM   23  H17 UNL     1      21.066   2.909  52.500  1.00  0.00     0.174 HD
HETATM   24  H18 UNL     1      20.704   1.304  51.965  1.00  0.00     0.174 HD
ENDBRANCH  11  22
BRANCH   6  25
HETATM   25  O2  UNL     1      28.325   1.717  52.824  1.00  0.00    -0.351 OA
HETATM   26  C8  UNL     1      29.046   2.455  53.777  1.00  0.00     0.210 C 
ENDBRANCH   6  25
BRANCH   1  27
HETATM   27  O1  UNL     1      27.619  -0.887  53.950  1.00  0.00    -0.353 OA
HETATM   28  C1  UNL     1      28.135  -1.764  52.976  1.00  0.00     0.210 C 
ENDBRANCH   1  27
TORSDOF 4
ENDMDL
MODEL 2
REMARK VINA RESULT:      -7.6      4.165      6.946
REMARK  4 active torsions:
REMARK  status: ('A' for Active; 'I' for Inactive)
REMARK    1  A    between atoms: O1_2  and  C2_3 
REMARK    2  A    between atoms: C7_8  and  O2_9 
REMARK    3  A    between atoms: C10_13  and  C11_14 
REMARK    4  A    between atoms: C17_22  and  N3_23 
ROOT
HETATM    1  C2  UNL     1      25.610   8.306  50.075  1.00  0.00     0.101 C 
HETATM    2  C3  UNL     1      24.380   8.062  50.614  1.00  0.00     0.038 C 
HETATM    3  C4  UNL     1      24.209   6.661  50.813  1.00  0.00     0.131 C 
HETATM    4  C5  UNL     1      24.397   6.056  49.394  1.00  0.00     0.089 C 
HETATM    5  C6  UNL     1      25.905   6.000  49.386  1.00  0.00     0.048 C 
HETATM    6  C7  UNL     1      26.439   7.244  49.424  1.00  0.00     0.123 C 
HETATM    7  N1  UNL     1      26.531   4.722  49.370  1.00  0.00    -0.364 N 
HETATM    8  C9  UNL     1      26.236   3.630  50.191  1.00  0.00     0.121 C 
HETATM    9  C10 UNL     1      25.436   3.169  51.098  1.00  0.00     0.101 C 
HETATM   10  N2  UNL     1      24.616   4.219  51.218  1.00  0.00    -0.063 NA
HETATM   11  C17 UNL     1      23.398   4.543  51.251  1.00  0.00     0.695 C 
HETATM   12  N4  UNL     1      23.123   5.996  51.360  1.00  0.00    -0.216 N 
HETATM   13  H11 UNL     1      27.242   4.793  48.628  1.00  0.00     0.165 HD
HETATM   14  H19 UNL     1      22.310   6.473  51.752  1.00  0.00     0.178 HD
ENDROOT
BRANCH   9  15
HETATM   15  C11 UNL     1      25.435   1.882  51.777  1.00  0.00    -0.004 A 
HETATM   16  C12 UNL     1      26.651   1.239  51.717  1.00  0.00     0.014 A 
HETATM   17  C13 UNL     1      26.738   0.011  52.338  1.00  0.00     0.002 A 
HETATM   18  C14 UNL     1      25.659  -0.546  52.988  1.00  0.00     0.019 A 
HETATM   19  C15 UNL     1      24.438   0.094  53.053  1.00  0.00     0.011 A 
HETATM   20 BR1  UNL     1      22.899  -0.607  53.931  1.00  0.00    -0.051 Br
HETATM   21  C16 UNL     1      24.374   1.316  52.427  1.00  0.00     0.032 A 
ENDBRANCH   9  15
BRANCH  11  22
HETATM   22  N3  UNL     1      22.089   3.945  51.181  1.00  0.00    -0.233 N 
HETATM   23  H17 UNL     1      21.397   3.934  50.415  1.00  0.00     0.174 HD
HETATM   24  H18 UNL     1      21.753   3.429  52.031  1.00  0.00     0.174 HD
ENDBRANCH  11  22
BRANCH   6  25
HETATM   25  O2  UNL     1      27.691   7.262  48.830  1.00  0.00    -0.351 OA
HETATM   26  C8  UNL     1      27.923   7.488  47.464  1.00  0.00     0.210 C 
ENDBRANCH   6  25
BRANCH   1  27
HETATM   27  O1  UNL     1      26.279   9.522  50.034  1.00  0.00    -0.353 OA
HETATM   28  C1  UNL     1      26.061  10.334  48.904  1.00  0.00     0.210 C 
ENDBRANCH   1  27
TORSDOF 4
ENDMDL
MODEL 3
REMARK VINA RESULT:      -7.4      3.590      4.994
REMARK  4 active torsions:
REMARK  status: ('A' for Active; 'I' for Inactive)
REMARK    1  A    between atoms: O1_2  and  C2_3 
REMARK    2  A    between atoms: C7_8  and  O2_9 
REMARK    3  A    between atoms: C10_13  and  C11_14 
REMARK    4  A    between atoms: C17_22  and  N3_23 
ROOT
HETATM    1  C2  UNL     1      21.823   2.431  52.173  1.00  0.00     0.101 C 
HETATM    2  C3  UNL     1      21.435   3.739  52.205  1.00  0.00     0.038 C 
HETATM    3  C4  UNL     1      22.482   4.567  51.706  1.00  0.00     0.131 C 
HETATM    4  C5  UNL     1      23.683   4.252  52.640  1.00  0.00     0.089 C 
HETATM    5  C6  UNL     1      24.169   3.002  51.948  1.00  0.00     0.048 C 
HETATM    6  C7  UNL     1      23.252   2.010  52.036  1.00  0.00     0.123 C 
HETATM    7  N1  UNL     1      25.438   3.038  51.305  1.00  0.00    -0.364 N 
HETATM    8  C9  UNL     1      25.910   4.019  50.428  1.00  0.00     0.121 C 
HETATM    9  C10 UNL     1      25.664   5.172  49.892  1.00  0.00     0.101 C 
HETATM   10  N2  UNL     1      24.485   5.432  50.469  1.00  0.00    -0.063 NA
HETATM   11  C17 UNL     1      23.846   6.326  51.086  1.00  0.00     0.695 C 
HETATM   12  N4  UNL     1      22.488   5.944  51.543  1.00  0.00    -0.216 N 
HETATM   13  H11 UNL     1      25.914   2.185  51.629  1.00  0.00     0.165 HD
HETATM   14  H19 UNL     1      21.674   6.534  51.720  1.00  0.00     0.178 HD
ENDROOT
BRANCH   9  15
HETATM   15  C11 UNL     1      26.449   5.949  48.945  1.00  0.00    -0.004 A 
HETATM   16  C12 UNL     1      27.732   5.472  48.787  1.00  0.00     0.014 A 
HETATM   17  C13 UNL     1      28.545   6.151  47.905  1.00  0.00     0.002 A 
HETATM   18  C14 UNL     1      28.095   7.254  47.213  1.00  0.00     0.019 A 
HETATM   19  C15 UNL     1      26.812   7.736  47.367  1.00  0.00     0.011 A 
HETATM   20 BR1  UNL     1      26.113   9.253  46.449  1.00  0.00    -0.051 Br
HETATM   21  C16 UNL     1      26.019   7.045  48.252  1.00  0.00     0.032 A 
ENDBRANCH   9  15
BRANCH  11  22
HETATM   22  N3  UNL     1      24.007   7.676  51.564  1.00  0.00    -0.233 N 
HETATM   23  H17 UNL     1      23.861   8.578  51.084  1.00  0.00     0.174 HD
HETATM   24  H18 UNL     1      24.325   7.797  52.556  1.00  0.00     0.174 HD
ENDBRANCH  11  22
BRANCH   6  25
HETATM   25  O2  UNL     1      23.862   0.768  51.975  1.00  0.00    -0.351 OA
HETATM   26  C8  UNL     1      24.367   0.071  53.085  1.00  0.00     0.210 C 
ENDBRANCH   6  25
BRANCH   1  27
HETATM   27  O1  UNL     1      21.004   1.313  52.259  1.00  0.00    -0.353 OA
HETATM   28  C1  UNL     1      20.691   0.849  53.552  1.00  0.00     0.210 C 
ENDBRANCH   1  27
TORSDOF 4
ENDMDL
MODEL 4
REMARK VINA RESULT:      -7.4      3.904      7.075
REMARK  4 active torsions:
REMARK  status: ('A' for Active; 'I' for Inactive)
REMARK    1  A    between atoms: O1_2  and  C2_3 
REMARK    2  A    between atoms: C7_8  and  O2_9 
REMARK    3  A    between atoms: C10_13  and  C11_14 
REMARK    4  A    between atoms: C17_22  and  N3_23 
ROOT
HETATM    1  C2  UNL     1      22.447   5.474  51.198  1.00  0.00     0.101 C 
HETATM    2  C3  UNL     1      21.900   4.449  51.914  1.00  0.00     0.038 C 
HETATM    3  C4  UNL     1      22.871   3.424  52.110  1.00  0.00     0.131 C 
HETATM    4  C5  UNL     1      23.286   3.022  50.668  1.00  0.00     0.089 C 
HETATM    5  C6  UNL     1      24.300   4.113  50.427  1.00  0.00     0.048 C 
HETATM    6  C7  UNL     1      23.709   5.331  50.407  1.00  0.00     0.123 C 
HETATM    7  N1  UNL     1      25.668   3.742  50.291  1.00  0.00    -0.364 N 
HETATM    8  C9  UNL     1      26.396   2.891  51.126  1.00  0.00     0.121 C 
HETATM    9  C10 UNL     1      26.332   2.084  52.136  1.00  0.00     0.101 C 
HETATM   10  N2  UNL     1      25.024   2.171  52.401  1.00  0.00    -0.063 NA
HETATM   11  C17 UNL     1      23.998   1.475  52.628  1.00  0.00     0.695 C 
HETATM   12  N4  UNL     1      22.735   2.232  52.805  1.00  0.00    -0.216 N 
HETATM   13  H11 UNL     1      25.987   4.244  49.450  1.00  0.00     0.165 HD
HETATM   14  H19 UNL     1      21.895   1.977  53.327  1.00  0.00     0.178 HD
ENDROOT
BRANCH   9  15
HETATM   15  C11 UNL     1      27.382   1.311  52.783  1.00  0.00    -0.004 A 
HETATM   16  C12 UNL     1      28.231   2.084  53.544  1.00  0.00     0.014 A 
HETATM   17  C13 UNL     1      29.255   1.428  54.194  1.00  0.00     0.002 A 
HETATM   18  C14 UNL     1      29.422   0.065  54.087  1.00  0.00     0.019 A 
HETATM   19  C15 UNL     1      28.575  -0.714  53.326  1.00  0.00     0.011 A 
HETATM   20 BR1  UNL     1      28.736  -2.602  53.126  1.00  0.00    -0.051 Br
HETATM   21  C16 UNL     1      27.561  -0.041  52.687  1.00  0.00     0.032 A 
ENDBRANCH   9  15
BRANCH  11  22
HETATM   22  N3  UNL     1      23.597   0.096  52.748  1.00  0.00    -0.233 N 
HETATM   23  H17 UNL     1      23.541  -0.516  53.577  1.00  0.00     0.174 HD
HETATM   24  H18 UNL     1      23.310  -0.397  51.867  1.00  0.00     0.174 HD
ENDBRANCH  11  22
BRANCH   6  25
HETATM   25  O2  UNL     1      24.435   6.218  49.628  1.00  0.00    -0.351 OA
HETATM   26  C8  UNL     1      24.181   6.483  48.273  1.00  0.00     0.210 C 
ENDBRANCH   6  25
BRANCH   1  27
HETATM   27  O1  UNL     1      21.956   6.767  51.078  1.00  0.00    -0.353 OA
HETATM   28  C1  UNL     1      20.926   6.975  50.139  1.00  0.00     0.210 C 
ENDBRANCH   1  27
TORSDOF 4
ENDMDL
MODEL 5
REMARK VINA RESULT:      -7.3      4.055      7.036
REMARK  4 active torsions:
REMARK  status: ('A' for Active; 'I' for Inactive)
REMARK    1  A    between atoms: O1_2  and  C2_3 
REMARK    2  A    between atoms: C7_8  and  O2_9 
REMARK    3  A    between atoms: C10_13  and  C11_14 
REMARK    4  A    between atoms: C17_22  and  N3_23 
ROOT
HETATM    1  C2  UNL     1      20.225   2.766  52.085  1.00  0.00     0.101 C 
HETATM    2  C3  UNL     1      20.289   1.735  52.977  1.00  0.00     0.038 C 
HETATM    3  C4  UNL     1      21.617   1.220  53.025  1.00  0.00     0.131 C 
HETATM    4  C5  UNL     1      21.906   0.793  51.559  1.00  0.00     0.089 C 
HETATM    5  C6  UNL     1      22.314   2.143  51.022  1.00  0.00     0.048 C 
HETATM    6  C7  UNL     1      21.274   3.011  51.047  1.00  0.00     0.123 C 
HETATM    7  N1  UNL     1      23.664   2.325  50.612  1.00  0.00    -0.364 N 
HETATM    8  C9  UNL     1      24.814   1.972  51.324  1.00  0.00     0.121 C 
HETATM    9  C10 UNL     1      25.269   1.373  52.378  1.00  0.00     0.101 C 
HETATM   10  N2  UNL     1      24.112   0.978  52.919  1.00  0.00    -0.063 NA
HETATM   11  C17 UNL     1      23.526  -0.021  53.417  1.00  0.00     0.695 C 
HETATM   12  N4  UNL     1      22.115   0.195  53.816  1.00  0.00    -0.216 N 
HETATM   13  H11 UNL     1      23.594   2.774  49.688  1.00  0.00     0.165 HD
HETATM   14  H19 UNL     1      21.562  -0.285  54.528  1.00  0.00     0.178 HD
ENDROOT
BRANCH   9  15
HETATM   15  C11 UNL     1      26.640   1.188  52.829  1.00  0.00    -0.004 A 
HETATM   16  C12 UNL     1      27.251   2.366  53.199  1.00  0.00     0.014 A 
HETATM   17  C13 UNL     1      28.554   2.279  53.641  1.00  0.00     0.002 A 
HETATM   18  C14 UNL     1      29.213   1.072  53.710  1.00  0.00     0.019 A 
HETATM   19  C15 UNL     1      28.607  -0.111  53.341  1.00  0.00     0.011 A 
HETATM   20 BR1  UNL     1      29.448  -1.820  53.406  1.00  0.00    -0.051 Br
HETATM   21  C16 UNL     1      27.308  -0.002  52.903  1.00  0.00     0.032 A 
ENDBRANCH   9  15
BRANCH  11  22
HETATM   22  N3  UNL     1      23.765  -1.409  53.722  1.00  0.00    -0.233 N 
HETATM   23  H17 UNL     1      24.061  -2.188  53.112  1.00  0.00     0.174 HD
HETATM   24  H18 UNL     1      23.624  -1.711  54.717  1.00  0.00     0.174 HD
ENDBRANCH  11  22
BRANCH   6  25
HETATM   25  O2  UNL     1      21.416   3.978  50.065  1.00  0.00    -0.351 OA
HETATM   26  C8  UNL     1      20.945   3.854  48.748  1.00  0.00     0.210 C 
ENDBRANCH   6  25
BRANCH   1  27
HETATM   27  O1  UNL     1      19.225   3.725  51.985  1.00  0.00    -0.353 OA
HETATM   28  C1  UNL     1      18.065   3.366  51.273  1.00  0.00     0.210 C 
ENDBRANCH   1  27
TORSDOF 4
ENDMDL
MODEL 6
REMARK VINA RESULT:      -7.0      4.174      7.271
REMARK  4 active torsions:
REMARK  status: ('A' for Active; 'I' for Inactive)
REMARK    1  A    between atoms: O1_2  and  C2_3 
REMARK    2  A    between atoms: C7_8  and  O2_9 
REMARK    3  A    between atoms: C10_13  and  C11_14 
REMARK    4  A    between atoms: C17_22  and  N3_23 
ROOT
HETATM    1  C2  UNL     1      19.483   0.547  51.065  1.00  0.00     0.101 C 
HETATM    2  C3  UNL     1      20.244   1.270  50.193  1.00  0.00     0.038 C 
HETATM    3  C4  UNL     1      21.577   1.374  50.685  1.00  0.00     0.131 C 
HETATM    4  C5  UNL     1      21.410   2.052  52.073  1.00  0.00     0.089 C 
HETATM    5  C6  UNL     1      21.076   0.817  52.874  1.00  0.00     0.048 C 
HETATM    6  C7  UNL     1      19.893   0.288  52.481  1.00  0.00     0.123 C 
HETATM    7  N1  UNL     1      22.007   0.380  53.857  1.00  0.00    -0.364 N 
HETATM    8  C9  UNL     1      23.386   0.220  53.698  1.00  0.00     0.121 C 
HETATM    9  C10 UNL     1      24.390   0.393  52.899  1.00  0.00     0.101 C 
HETATM   10  N2  UNL     1      23.750   0.944  51.862  1.00  0.00    -0.063 NA
HETATM   11  C17 UNL     1      23.794   1.911  51.054  1.00  0.00     0.695 C 
HETATM   12  N4  UNL     1      22.666   1.997  50.095  1.00  0.00    -0.216 N 
HETATM   13  H11 UNL     1      21.434   0.209  54.696  1.00  0.00     0.165 HD
HETATM   14  H19 UNL     1      22.637   2.420  49.166  1.00  0.00     0.178 HD
ENDROOT
BRANCH   9  15
HETATM   15  C11 UNL     1      25.799   0.081  53.087  1.00  0.00    -0.004 A 
HETATM   16  C12 UNL     1      26.109  -1.225  52.776  1.00  0.00     0.014 A 
HETATM   17  C13 UNL     1      27.425  -1.606  52.926  1.00  0.00     0.002 A 
HETATM   18  C14 UNL     1      28.386  -0.721  53.364  1.00  0.00     0.019 A 
HETATM   19  C15 UNL     1      28.082   0.588  53.676  1.00  0.00     0.011 A 
HETATM   20 BR1  UNL     1      29.350   1.872  54.288  1.00  0.00    -0.051 Br
HETATM   21  C16 UNL     1      26.764   0.946  53.521  1.00  0.00     0.032 A 
ENDBRANCH   9  15
BRANCH  11  22
HETATM   22  N3  UNL     1      24.603   3.061  50.744  1.00  0.00    -0.233 N 
HETATM   23  H17 UNL     1      25.407   3.470  51.246  1.00  0.00     0.174 HD
HETATM   24  H18 UNL     1      24.363   3.595  49.873  1.00  0.00     0.174 HD
ENDBRANCH  11  22
BRANCH   6  25
HETATM   25  O2  UNL     1      19.296  -0.409  53.519  1.00  0.00    -0.351 OA
HETATM   26  C8  UNL     1      19.122  -1.802  53.549  1.00  0.00     0.210 C 
ENDBRANCH   6  25
BRANCH   1  27
HETATM   27  O1  UNL     1      18.254  -0.048  50.811  1.00  0.00    -0.353 OA
HETATM   28  C1  UNL     1      17.108   0.751  50.994  1.00  0.00     0.210 C 
ENDBRANCH   1  27
TORSDOF 4
ENDMDL
MODEL 7
REMARK VINA RESULT:      -7.0      3.060      4.154
REMARK  4 active torsions:
REMARK  status: ('A' for Active; 'I' for Inactive)
REMARK    1  A    between atoms: O1_2  and  C2_3 
REMARK    2  A    between atoms: C7_8  and  O2_9 
REMARK    3  A    between atoms: C10_13  and  C11_14 
REMARK    4  A    between atoms: C17_22  and  N3_23 
ROOT
HETATM    1  C2  UNL     1      22.812   0.583  52.641  1.00  0.00     0.101 C 
HETATM    2  C3  UNL     1      22.070   1.728  52.667  1.00  0.00     0.038 C 
HETATM    3  C4  UNL     1      22.838   2.814  52.156  1.00  0.00     0.131 C 
HETATM    4  C5  UNL     1      24.083   2.859  53.084  1.00  0.00     0.089 C 
HETATM    5  C6  UNL     1      24.900   1.792  52.397  1.00  0.00     0.048 C 
HETATM    6  C7  UNL     1      24.301   0.582  52.498  1.00  0.00     0.123 C 
HETATM    7  N1  UNL     1      26.104   2.181  51.746  1.00  0.00    -0.364 N 
HETATM    8  C9  UNL     1      26.275   3.248  50.860  1.00  0.00     0.121 C 
HETATM    9  C10 UNL     1      25.711   4.279  50.318  1.00  0.00     0.101 C 
HETATM   10  N2  UNL     1      24.509   4.200  50.900  1.00  0.00    -0.063 NA
HETATM   11  C17 UNL     1      23.646   4.882  51.516  1.00  0.00     0.695 C 
HETATM   12  N4  UNL     1      22.453   4.135  51.984  1.00  0.00    -0.216 N 
HETATM   13  H11 UNL     1      26.804   1.499  52.072  1.00  0.00     0.165 HD
HETATM   14  H19 UNL     1      21.506   4.472  52.162  1.00  0.00     0.178 HD
ENDROOT
BRANCH   9  15
HETATM   15  C11 UNL     1      26.240   5.239  49.361  1.00  0.00    -0.004 A 
HETATM   16  C12 UNL     1      25.273   6.067  48.835  1.00  0.00     0.014 A 
HETATM   17  C13 UNL     1      25.690   7.009  47.919  1.00  0.00     0.002 A 
HETATM   18  C14 UNL     1      27.011   7.117  47.547  1.00  0.00     0.019 A 
HETATM   19  C15 UNL     1      27.985   6.292  48.070  1.00  0.00     0.011 A 
HETATM   20 BR1  UNL     1      29.832   6.376  47.609  1.00  0.00    -0.051 Br
HETATM   21  C16 UNL     1      27.548   5.360  48.981  1.00  0.00     0.032 A 
ENDBRANCH   9  15
BRANCH  11  22
HETATM   22  N3  UNL     1      23.420   6.226  51.983  1.00  0.00    -0.233 N 
HETATM   23  H17 UNL     1      22.546   6.704  52.252  1.00  0.00     0.174 HD
HETATM   24  H18 UNL     1      24.261   6.847  52.076  1.00  0.00     0.174 HD
ENDBRANCH  11  22
BRANCH   6  25
HETATM   25  O2  UNL     1      25.238  -0.437  52.441  1.00  0.00    -0.351 OA
HETATM   26  C8  UNL     1      26.017  -0.868  53.527  1.00  0.00     0.210 C 
ENDBRANCH   6  25
BRANCH   1  27
HETATM   27  O1  UNL     1      22.344  -0.721  52.740  1.00  0.00    -0.353 OA
HETATM   28  C1  UNL     1      21.872  -1.136  54.000  1.00  0.00     0.210 C 
ENDBRANCH   1  27
TORSDOF 4
ENDMDL
MODEL 8
REMARK VINA RESULT:      -7.0      3.870      6.950
REMARK  4 active torsions:
REMARK  status: ('A' for Active; 'I' for Inactive)
REMARK    1  A    between atoms: O1_2  and  C2_3 
REMARK    2  A    between atoms: C7_8  and  O2_9 
REMARK    3  A    between atoms: C10_13  and  C11_14 
REMARK    4  A    between atoms: C17_22  and  N3_23 
ROOT
HETATM    1  C2  UNL     1      23.787   7.087  49.825  1.00  0.00     0.101 C 
HETATM    2  C3  UNL     1      22.705   6.256  49.833  1.00  0.00     0.038 C 
HETATM    3  C4  UNL     1      23.119   4.925  50.134  1.00  0.00     0.131 C 
HETATM    4  C5  UNL     1      24.149   4.594  49.019  1.00  0.00     0.089 C 
HETATM    5  C6  UNL     1      25.357   5.247  49.645  1.00  0.00     0.048 C 
HETATM    6  C7  UNL     1      25.195   6.589  49.730  1.00  0.00     0.123 C 
HETATM    7  N1  UNL     1      26.431   4.414  50.066  1.00  0.00    -0.364 N 
HETATM    8  C9  UNL     1      26.342   3.249  50.832  1.00  0.00     0.121 C 
HETATM    9  C10 UNL     1      25.535   2.397  51.379  1.00  0.00     0.101 C 
HETATM   10  N2  UNL     1      24.368   2.930  51.002  1.00  0.00    -0.063 NA
HETATM   11  C17 UNL     1      23.255   2.646  50.483  1.00  0.00     0.695 C 
HETATM   12  N4  UNL     1      22.336   3.789  50.267  1.00  0.00    -0.216 N 
HETATM   13  H11 UNL     1      27.273   4.867  49.683  1.00  0.00     0.165 HD
HETATM   14  H19 UNL     1      21.316   3.800  50.217  1.00  0.00     0.178 HD
ENDROOT
BRANCH   9  15
HETATM   15  C11 UNL     1      25.824   1.208  52.166  1.00  0.00    -0.004 A 
HETATM   16  C12 UNL     1      24.696   0.626  52.701  1.00  0.00     0.014 A 
HETATM   17  C13 UNL     1      24.881  -0.508  53.462  1.00  0.00     0.002 A 
HETATM   18  C14 UNL     1      26.135  -1.036  53.677  1.00  0.00     0.019 A 
HETATM   19  C15 UNL     1      27.269  -0.459  53.143  1.00  0.00     0.011 A 
HETATM   20 BR1  UNL     1      29.037  -1.125  53.392  1.00  0.00    -0.051 Br
HETATM   21  C16 UNL     1      27.062   0.672  52.389  1.00  0.00     0.032 A 
ENDBRANCH   9  15
BRANCH  11  22
HETATM   22  N3  UNL     1      22.532   1.515  49.959  1.00  0.00    -0.233 N 
HETATM   23  H17 UNL     1      22.211   0.651  50.424  1.00  0.00     0.174 HD
HETATM   24  H18 UNL     1      22.276   1.541  48.942  1.00  0.00     0.174 HD
ENDBRANCH  11  22
BRANCH   6  25
HETATM   25  O2  UNL     1      26.420   7.236  49.712  1.00  0.00    -0.351 OA
HETATM   26  C8  UNL     1      27.077   7.671  48.550  1.00  0.00     0.210 C 
ENDBRANCH   6  25
BRANCH   1  27
HETATM   27  O1  UNL     1      23.778   8.474  49.899  1.00  0.00    -0.353 OA
HETATM   28  C1  UNL     1      22.946   9.156  48.989  1.00  0.00     0.210 C 
ENDBRANCH   1  27
TORSDOF 4
ENDMDL
MODEL 9
REMARK VINA RESULT:      -6.9      3.707      5.403
REMARK  4 active torsions:
REMARK  status: ('A' for Active; 'I' for Inactive)
REMARK    1  A    between atoms: O1_2  and  C2_3 
REMARK    2  A    between atoms: C7_8  and  O2_9 
REMARK    3  A    between atoms: C10_13  and  C11_14 
REMARK    4  A    between atoms: C17_22  and  N3_23 
ROOT
HETATM    1  C2  UNL     1      25.372   2.103  53.536  1.00  0.00     0.101 C 
HETATM    2  C3  UNL     1      24.666   3.140  52.999  1.00  0.00     0.038 C 
HETATM    3  C4  UNL     1      23.390   2.681  52.560  1.00  0.00     0.131 C 
HETATM    4  C5  UNL     1      23.728   1.563  51.536  1.00  0.00     0.089 C 
HETATM    5  C6  UNL     1      23.938   0.434  52.515  1.00  0.00     0.048 C 
HETATM    6  C7  UNL     1      25.015   0.669  53.303  1.00  0.00     0.123 C 
HETATM    7  N1  UNL     1      23.016  -0.649  52.503  1.00  0.00    -0.364 N 
HETATM    8  C9  UNL     1      21.621  -0.566  52.500  1.00  0.00     0.121 C 
HETATM    9  C10 UNL     1      20.604   0.232  52.425  1.00  0.00     0.101 C 
HETATM   10  N2  UNL     1      21.251   1.396  52.303  1.00  0.00    -0.063 NA
HETATM   11  C17 UNL     1      21.291   2.456  51.621  1.00  0.00     0.695 C 
HETATM   12  N4  UNL     1      22.362   3.414  51.987  1.00  0.00    -0.216 N 
HETATM   13  H11 UNL     1      23.608  -1.492  52.502  1.00  0.00     0.165 HD
HETATM   14  H19 UNL     1      22.394   4.427  51.865  1.00  0.00     0.178 HD
ENDROOT
BRANCH   9  15
HETATM   15  C11 UNL     1      19.180  -0.063  52.459  1.00  0.00    -0.004 A 
HETATM   16  C12 UNL     1      18.862  -1.096  53.313  1.00  0.00     0.014 A 
HETATM   17  C13 UNL     1      17.530  -1.440  53.407  1.00  0.00     0.002 A 
HETATM   18  C14 UNL     1      16.563  -0.781  52.680  1.00  0.00     0.019 A 
HETATM   19  C15 UNL     1      16.875   0.254  51.824  1.00  0.00     0.011 A 
HETATM   20 BR1  UNL     1      15.598   1.215  50.785  1.00  0.00    -0.051 Br
HETATM   21  C16 UNL     1      18.208   0.580  51.745  1.00  0.00     0.032 A 
ENDBRANCH   9  15
BRANCH  11  22
HETATM   22  N3  UNL     1      20.627   3.083  50.507  1.00  0.00    -0.233 N 
HETATM   23  H17 UNL     1      21.005   3.667  49.744  1.00  0.00     0.174 HD
HETATM   24  H18 UNL     1      19.590   2.946  50.430  1.00  0.00     0.174 HD
ENDBRANCH  11  22
BRANCH   6  25
HETATM   25  O2  UNL     1      25.572  -0.521  53.744  1.00  0.00    -0.351 OA
HETATM   26  C8  UNL     1      26.564  -1.240  53.059  1.00  0.00     0.210 C 
ENDBRANCH   6  25
BRANCH   1  27
HETATM   27  O1  UNL     1      26.493   2.187  54.352  1.00  0.00    -0.353 OA
HETATM   28  C1  UNL     1      27.744   2.270  53.711  1.00  0.00     0.210 C 
ENDBRANCH   1  27
TORSDOF 4
ENDMDL
