MODEL 1
REMARK VINA RESULT:      -6.9      0.000      0.000
REMARK  7 active torsions:
REMARK  status: ('A' for Active; 'I' for Inactive)
REMARK    1  A    between atoms: C1_2  and  C2_3 
REMARK       I    between atoms: C1_2  and  N1_11 
REMARK    2  A    between atoms: C2_3  and  C3_4 
REMARK    3  A    between atoms: N1_11  and  S1_12 
REMARK    4  A    between atoms: S1_12  and  C9_15 
REMARK    5  A    between atoms: C9_15  and  C10_16 
REMARK    6  A    between atoms: C11_17  and  C12_18 
REMARK    7  A    between atoms: C12_18  and  C13_19 
ROOT
HETATM    1  O1  UNL     1      25.323  -1.087  53.179  1.00  0.00    -0.272 OA
HETATM    2  C1  UNL     1      25.113  -0.846  54.407  1.00  0.00     0.235 C 
HETATM    3  N1  UNL     1      26.163  -0.217  55.161  1.00  0.00    -0.254 N 
HETATM    4  H7  UNL     1      26.043   0.009  56.190  1.00  0.00     0.181 HD
ENDROOT
BRANCH   3   5
HETATM    5  S1  UNL     1      27.640   0.163  54.322  1.00  0.00     0.236 S 
HETATM    6  O2  UNL     1      28.657   0.660  55.288  1.00  0.00    -0.205 OA
HETATM    7  O3  UNL     1      28.105  -1.084  53.651  1.00  0.00    -0.205 OA
BRANCH   5   8
HETATM    8  C9  UNL     1      27.262   1.374  53.070  1.00  0.00     0.190 C 
BRANCH   8   9
HETATM    9  C10 UNL     1      26.175   2.271  53.499  1.00  0.00    -0.014 C 
HETATM   10  C11 UNL     1      25.097   2.552  52.785  1.00  0.00    -0.029 C 
BRANCH  10  11
HETATM   11  C12 UNL     1      24.671   2.096  51.443  1.00  0.00     0.037 C 
BRANCH  11  12
HETATM   12  C13 UNL     1      24.710   3.313  50.514  1.00  0.00     0.089 C 
HETATM   13 BR1  UNL     1      26.424   3.432  49.663  1.00  0.00    -0.096 Br
ENDBRANCH  11  12
ENDBRANCH  10  11
ENDBRANCH   8   9
ENDBRANCH   5   8
ENDBRANCH   3   5
BRANCH   2  14
HETATM   14  C2  UNL     1      23.885  -1.146  55.163  1.00  0.00     0.142 C 
BRANCH  14  15
HETATM   15  C3  UNL     1      22.647  -0.779  54.477  1.00  0.00    -0.049 A 
HETATM   16  C4  UNL     1      22.411   0.389  53.770  1.00  0.00     0.011 A 
HETATM   17  C5  UNL     1      21.162   0.576  53.175  1.00  0.00     0.043 A 
HETATM   18  C6  UNL     1      20.194  -0.400  53.305  1.00  0.00     0.116 A 
HETATM   19  F1  UNL     1      18.966  -0.213  52.718  1.00  0.00    -0.206 F 
HETATM   20  C7  UNL     1      20.406  -1.578  54.008  1.00  0.00     0.043 A 
HETATM   21  C8  UNL     1      21.648  -1.743  54.589  1.00  0.00     0.011 A 
ENDBRANCH  14  15
ENDBRANCH   2  14
TORSDOF 7
ENDMDL
MODEL 2
REMARK VINA RESULT:      -6.6      4.284      6.400
REMARK  7 active torsions:
REMARK  status: ('A' for Active; 'I' for Inactive)
REMARK    1  A    between atoms: C1_2  and  C2_3 
REMARK       I    between atoms: C1_2  and  N1_11 
REMARK    2  A    between atoms: C2_3  and  C3_4 
REMARK    3  A    between atoms: N1_11  and  S1_12 
REMARK    4  A    between atoms: S1_12  and  C9_15 
REMARK    5  A    between atoms: C9_15  and  C10_16 
REMARK    6  A    between atoms: C11_17  and  C12_18 
REMARK    7  A    between atoms: C12_18  and  C13_19 
ROOT
HETATM    1  O1  UNL     1      26.591   2.161  51.131  1.00  0.00    -0.272 OA
HETATM    2  C1  UNL     1      26.512   2.383  52.379  1.00  0.00     0.235 C 
HETATM    3  N1  UNL     1      25.278   2.911  52.895  1.00  0.00    -0.254 N 
HETATM    4  H7  UNL     1      25.155   3.114  53.928  1.00  0.00     0.181 HD
ENDROOT
BRANCH   3   5
HETATM    5  S1  UNL     1      23.991   3.204  51.759  1.00  0.00     0.236 S 
HETATM    6  O2  UNL     1      22.834   3.826  52.457  1.00  0.00    -0.205 OA
HETATM    7  O3  UNL     1      24.526   4.107  50.702  1.00  0.00    -0.205 OA
BRANCH   5   8
HETATM    8  C9  UNL     1      23.558   1.646  51.009  1.00  0.00     0.190 C 
BRANCH   8   9
HETATM    9  C10 UNL     1      22.366   1.055  51.643  1.00  0.00    -0.014 C 
HETATM   10  C11 UNL     1      22.381   0.299  52.728  1.00  0.00    -0.029 C 
BRANCH  10  11
HETATM   11  C12 UNL     1      23.499  -0.158  53.582  1.00  0.00     0.037 C 
BRANCH  11  12
HETATM   12  C13 UNL     1      22.896  -0.988  54.719  1.00  0.00     0.089 C 
HETATM   13 BR1  UNL     1      21.122  -1.546  54.252  1.00  0.00    -0.096 Br
ENDBRANCH  11  12
ENDBRANCH  10  11
ENDBRANCH   8   9
ENDBRANCH   5   8
ENDBRANCH   3   5
BRANCH   2  14
HETATM   14  C2  UNL     1      27.568   2.153  53.379  1.00  0.00     0.142 C 
BRANCH  14  15
HETATM   15  C3  UNL     1      28.132   0.803  53.366  1.00  0.00    -0.049 A 
HETATM   16  C4  UNL     1      29.457   0.461  53.582  1.00  0.00     0.011 A 
HETATM   17  C5  UNL     1      29.823  -0.884  53.532  1.00  0.00     0.043 A 
HETATM   18  C6  UNL     1      28.862  -1.841  53.269  1.00  0.00     0.116 A 
HETATM   19  F1  UNL     1      29.224  -3.165  53.222  1.00  0.00    -0.206 F 
HETATM   20  C7  UNL     1      27.528  -1.524  53.051  1.00  0.00     0.043 A 
HETATM   21  C8  UNL     1      27.188  -0.186  53.104  1.00  0.00     0.011 A 
ENDBRANCH  14  15
ENDBRANCH   2  14
TORSDOF 7
ENDMDL
MODEL 3
REMARK VINA RESULT:      -6.4      4.061      5.526
REMARK  7 active torsions:
REMARK  status: ('A' for Active; 'I' for Inactive)
REMARK    1  A    between atoms: C1_2  and  C2_3 
REMARK       I    between atoms: C1_2  and  N1_11 
REMARK    2  A    between atoms: C2_3  and  C3_4 
REMARK    3  A    between atoms: N1_11  and  S1_12 
REMARK    4  A    between atoms: S1_12  and  C9_15 
REMARK    5  A    between atoms: C9_15  and  C10_16 
REMARK    6  A    between atoms: C11_17  and  C12_18 
REMARK    7  A    between atoms: C12_18  and  C13_19 
ROOT
HETATM    1  O1  UNL     1      22.559  -0.265  52.508  1.00  0.00    -0.272 OA
HETATM    2  C1  UNL     1      23.449   0.294  53.221  1.00  0.00     0.235 C 
HETATM    3  N1  UNL     1      23.719   1.688  52.994  1.00  0.00    -0.254 N 
HETATM    4  H7  UNL     1      24.450   2.207  53.560  1.00  0.00     0.181 HD
ENDROOT
BRANCH   3   5
HETATM    5  S1  UNL     1      22.799   2.495  51.755  1.00  0.00     0.236 S 
HETATM    6  O2  UNL     1      22.883   1.729  50.483  1.00  0.00    -0.205 OA
HETATM    7  O3  UNL     1      21.390   2.586  52.233  1.00  0.00    -0.205 OA
BRANCH   5   8
HETATM    8  C9  UNL     1      23.447   4.147  51.583  1.00  0.00     0.190 C 
BRANCH   8   9
HETATM    9  C10 UNL     1      23.480   4.568  50.171  1.00  0.00    -0.014 C 
HETATM   10  C11 UNL     1      24.580   4.739  49.456  1.00  0.00    -0.029 C 
BRANCH  10  11
HETATM   11  C12 UNL     1      26.007   4.576  49.811  1.00  0.00     0.037 C 
BRANCH  11  12
HETATM   12  C13 UNL     1      26.345   3.089  49.673  1.00  0.00     0.089 C 
HETATM   13 BR1  UNL     1      26.759   2.350  51.393  1.00  0.00    -0.096 Br
ENDBRANCH  11  12
ENDBRANCH  10  11
ENDBRANCH   8   9
ENDBRANCH   5   8
ENDBRANCH   3   5
BRANCH   2  14
HETATM   14  C2  UNL     1      24.252  -0.340  54.279  1.00  0.00     0.142 C 
BRANCH  14  15
HETATM   15  C3  UNL     1      25.678  -0.452  53.972  1.00  0.00    -0.049 A 
HETATM   16  C4  UNL     1      26.243  -1.164  52.926  1.00  0.00     0.011 A 
HETATM   17  C5  UNL     1      27.631  -1.162  52.782  1.00  0.00     0.043 A 
HETATM   18  C6  UNL     1      28.407  -0.455  53.679  1.00  0.00     0.116 A 
HETATM   19  F1  UNL     1      29.773  -0.454  53.534  1.00  0.00    -0.206 F 
HETATM   20  C7  UNL     1      27.865   0.266  54.734  1.00  0.00     0.043 A 
HETATM   21  C8  UNL     1      26.490   0.250  54.860  1.00  0.00     0.011 A 
ENDBRANCH  14  15
ENDBRANCH   2  14
TORSDOF 7
ENDMDL
MODEL 4
REMARK VINA RESULT:      -6.4      4.673      6.283
REMARK  7 active torsions:
REMARK  status: ('A' for Active; 'I' for Inactive)
REMARK    1  A    between atoms: C1_2  and  C2_3 
REMARK       I    between atoms: C1_2  and  N1_11 
REMARK    2  A    between atoms: C2_3  and  C3_4 
REMARK    3  A    between atoms: N1_11  and  S1_12 
REMARK    4  A    between atoms: S1_12  and  C9_15 
REMARK    5  A    between atoms: C9_15  and  C10_16 
REMARK    6  A    between atoms: C11_17  and  C12_18 
REMARK    7  A    between atoms: C12_18  and  C13_19 
ROOT
HETATM    1  O1  UNL     1      23.622   2.196  52.604  1.00  0.00    -0.272 OA
HETATM    2  C1  UNL     1      24.836   2.545  52.738  1.00  0.00     0.235 C 
HETATM    3  N1  UNL     1      25.402   3.412  51.741  1.00  0.00    -0.254 N 
HETATM    4  H7  UNL     1      26.410   3.737  51.801  1.00  0.00     0.181 HD
ENDROOT
BRANCH   3   5
HETATM    5  S1  UNL     1      24.373   3.912  50.428  1.00  0.00     0.236 S 
HETATM    6  O2  UNL     1      23.907   2.720  49.670  1.00  0.00    -0.205 OA
HETATM    7  O3  UNL     1      23.223   4.652  51.020  1.00  0.00    -0.205 OA
BRANCH   5   8
HETATM    8  C9  UNL     1      25.302   5.034  49.402  1.00  0.00     0.190 C 
BRANCH   8   9
HETATM    9  C10 UNL     1      26.658   4.523  49.134  1.00  0.00    -0.014 C 
HETATM   10  C11 UNL     1      27.648   5.233  48.618  1.00  0.00    -0.029 C 
BRANCH  10  11
HETATM   11  C12 UNL     1      27.709   6.645  48.182  1.00  0.00     0.037 C 
BRANCH  11  12
HETATM   12  C13 UNL     1      29.026   6.832  47.423  1.00  0.00     0.089 C 
HETATM   13 BR1  UNL     1      30.355   5.634  48.113  1.00  0.00    -0.096 Br
ENDBRANCH  11  12
ENDBRANCH  10  11
ENDBRANCH   8   9
ENDBRANCH   5   8
ENDBRANCH   3   5
BRANCH   2  14
HETATM   14  C2  UNL     1      25.747   2.153  53.825  1.00  0.00     0.142 C 
BRANCH  14  15
HETATM   15  C3  UNL     1      26.555   0.967  53.541  1.00  0.00    -0.049 A 
HETATM   16  C4  UNL     1      26.134  -0.180  52.888  1.00  0.00     0.011 A 
HETATM   17  C5  UNL     1      27.044  -1.222  52.701  1.00  0.00     0.043 A 
HETATM   18  C6  UNL     1      28.337  -1.087  53.168  1.00  0.00     0.116 A 
HETATM   19  F1  UNL     1      29.230  -2.113  52.983  1.00  0.00    -0.206 F 
HETATM   20  C7  UNL     1      28.783   0.052  53.825  1.00  0.00     0.043 A 
HETATM   21  C8  UNL     1      27.866   1.070  54.000  1.00  0.00     0.011 A 
ENDBRANCH  14  15
ENDBRANCH   2  14
TORSDOF 7
ENDMDL
MODEL 5
REMARK VINA RESULT:      -6.4      4.540      6.358
REMARK  7 active torsions:
REMARK  status: ('A' for Active; 'I' for Inactive)
REMARK    1  A    between atoms: C1_2  and  C2_3 
REMARK       I    between atoms: C1_2  and  N1_11 
REMARK    2  A    between atoms: C2_3  and  C3_4 
REMARK    3  A    between atoms: N1_11  and  S1_12 
REMARK    4  A    between atoms: S1_12  and  C9_15 
REMARK    5  A    between atoms: C9_15  and  C10_16 
REMARK    6  A    between atoms: C11_17  and  C12_18 
REMARK    7  A    between atoms: C12_18  and  C13_19 
ROOT
HETATM    1  O1  UNL     1      22.424   3.654  52.180  1.00  0.00    -0.272 OA
HETATM    2  C1  UNL     1      23.453   2.980  51.866  1.00  0.00     0.235 C 
HETATM    3  N1  UNL     1      23.457   2.307  50.596  1.00  0.00    -0.254 N 
HETATM    4  H7  UNL     1      24.289   1.731  50.280  1.00  0.00     0.181 HD
ENDROOT
BRANCH   3   5
HETATM    5  S1  UNL     1      22.044   2.472  49.592  1.00  0.00     0.236 S 
HETATM    6  O2  UNL     1      21.694   3.910  49.444  1.00  0.00    -0.205 OA
HETATM    7  O3  UNL     1      22.362   1.860  48.271  1.00  0.00    -0.205 OA
BRANCH   5   8
HETATM    8  C9  UNL     1      20.725   1.538  50.346  1.00  0.00     0.190 C 
BRANCH   8   9
HETATM    9  C10 UNL     1      21.232   0.311  50.986  1.00  0.00    -0.014 C 
HETATM   10  C11 UNL     1      21.147   0.040  52.278  1.00  0.00    -0.029 C 
BRANCH  10  11
HETATM   11  C12 UNL     1      20.568   0.811  53.400  1.00  0.00     0.037 C 
BRANCH  11  12
HETATM   12  C13 UNL     1      21.010   0.130  54.699  1.00  0.00     0.089 C 
HETATM   13 BR1  UNL     1      21.477  -1.697  54.354  1.00  0.00    -0.096 Br
ENDBRANCH  11  12
ENDBRANCH  10  11
ENDBRANCH   8   9
ENDBRANCH   5   8
ENDBRANCH   3   5
BRANCH   2  14
HETATM   14  C2  UNL     1      24.670   2.809  52.676  1.00  0.00     0.142 C 
BRANCH  14  15
HETATM   15  C3  UNL     1      25.157   1.431  52.755  1.00  0.00    -0.049 A 
HETATM   16  C4  UNL     1      24.581   0.393  53.470  1.00  0.00     0.011 A 
HETATM   17  C5  UNL     1      25.182  -0.865  53.434  1.00  0.00     0.043 A 
HETATM   18  C6  UNL     1      26.332  -1.048  52.691  1.00  0.00     0.116 A 
HETATM   19  F1  UNL     1      26.922  -2.288  52.656  1.00  0.00    -0.206 F 
HETATM   20  C7  UNL     1      26.927  -0.025  51.966  1.00  0.00     0.043 A 
HETATM   21  C8  UNL     1      26.316   1.213  52.016  1.00  0.00     0.011 A 
ENDBRANCH  14  15
ENDBRANCH   2  14
TORSDOF 7
ENDMDL
MODEL 6
REMARK VINA RESULT:      -6.3      4.046      6.683
REMARK  7 active torsions:
REMARK  status: ('A' for Active; 'I' for Inactive)
REMARK    1  A    between atoms: C1_2  and  C2_3 
REMARK       I    between atoms: C1_2  and  N1_11 
REMARK    2  A    between atoms: C2_3  and  C3_4 
REMARK    3  A    between atoms: N1_11  and  S1_12 
REMARK    4  A    between atoms: S1_12  and  C9_15 
REMARK    5  A    between atoms: C9_15  and  C10_16 
REMARK    6  A    between atoms: C11_17  and  C12_18 
REMARK    7  A    between atoms: C12_18  and  C13_19 
ROOT
HETATM    1  O1  UNL     1      25.364   2.914  52.951  1.00  0.00    -0.272 OA
HETATM    2  C1  UNL     1      25.913   2.552  51.865  1.00  0.00     0.235 C 
HETATM    3  N1  UNL     1      27.137   1.802  51.944  1.00  0.00    -0.254 N 
HETATM    4  H7  UNL     1      27.639   1.472  51.071  1.00  0.00     0.181 HD
ENDROOT
BRANCH   3   5
HETATM    5  S1  UNL     1      27.767   1.453  53.530  1.00  0.00     0.236 S 
HETATM    6  O2  UNL     1      29.020   0.661  53.413  1.00  0.00    -0.205 OA
HETATM    7  O3  UNL     1      28.019   2.757  54.206  1.00  0.00    -0.205 OA
BRANCH   5   8
HETATM    8  C9  UNL     1      26.507   0.578  54.438  1.00  0.00     0.190 C 
BRANCH   8   9
HETATM    9  C10 UNL     1      26.054  -0.621  53.712  1.00  0.00    -0.014 C 
HETATM   10  C11 UNL     1      24.813  -0.841  53.310  1.00  0.00    -0.029 C 
BRANCH  10  11
HETATM   11  C12 UNL     1      23.586  -0.026  53.447  1.00  0.00     0.037 C 
BRANCH  11  12
HETATM   12  C13 UNL     1      22.561  -0.868  54.214  1.00  0.00     0.089 C 
HETATM   13 BR1  UNL     1      20.934   0.122  54.432  1.00  0.00    -0.096 Br
ENDBRANCH  11  12
ENDBRANCH  10  11
ENDBRANCH   8   9
ENDBRANCH   5   8
ENDBRANCH   3   5
BRANCH   2  14
HETATM   14  C2  UNL     1      25.423   2.820  50.503  1.00  0.00     0.142 C 
BRANCH  14  15
HETATM   15  C3  UNL     1      25.854   4.102  49.945  1.00  0.00    -0.049 A 
HETATM   16  C4  UNL     1      25.231   5.328  50.120  1.00  0.00     0.011 A 
HETATM   17  C5  UNL     1      25.783   6.456  49.511  1.00  0.00     0.043 A 
HETATM   18  C6  UNL     1      26.929   6.328  48.752  1.00  0.00     0.116 A 
HETATM   19  F1  UNL     1      27.469   7.440  48.154  1.00  0.00    -0.206 F 
HETATM   20  C7  UNL     1      27.571   5.112  48.562  1.00  0.00     0.043 A 
HETATM   21  C8  UNL     1      27.009   4.007  49.173  1.00  0.00     0.011 A 
ENDBRANCH  14  15
ENDBRANCH   2  14
TORSDOF 7
ENDMDL
MODEL 7
REMARK VINA RESULT:      -6.3      5.344      8.107
REMARK  7 active torsions:
REMARK  status: ('A' for Active; 'I' for Inactive)
REMARK    1  A    between atoms: C1_2  and  C2_3 
REMARK       I    between atoms: C1_2  and  N1_11 
REMARK    2  A    between atoms: C2_3  and  C3_4 
REMARK    3  A    between atoms: N1_11  and  S1_12 
REMARK    4  A    between atoms: S1_12  and  C9_15 
REMARK    5  A    between atoms: C9_15  and  C10_16 
REMARK    6  A    between atoms: C11_17  and  C12_18 
REMARK    7  A    between atoms: C12_18  and  C13_19 
ROOT
HETATM    1  O1  UNL     1      24.621   2.900  49.321  1.00  0.00    -0.272 OA
HETATM    2  C1  UNL     1      24.971   4.000  49.850  1.00  0.00     0.235 C 
HETATM    3  N1  UNL     1      25.299   4.002  51.249  1.00  0.00    -0.254 N 
HETATM    4  H7  UNL     1      25.598   4.891  51.744  1.00  0.00     0.181 HD
ENDROOT
BRANCH   3   5
HETATM    5  S1  UNL     1      25.188   2.490  52.105  1.00  0.00     0.236 S 
HETATM    6  O2  UNL     1      25.094   2.743  53.568  1.00  0.00    -0.205 OA
HETATM    7  O3  UNL     1      23.975   1.783  51.606  1.00  0.00    -0.205 OA
BRANCH   5   8
HETATM    8  C9  UNL     1      26.623   1.518  51.687  1.00  0.00     0.190 C 
BRANCH   8   9
HETATM    9  C10 UNL     1      26.442   0.104  52.057  1.00  0.00    -0.014 C 
HETATM   10  C11 UNL     1      26.763  -0.420  53.229  1.00  0.00    -0.029 C 
BRANCH  10  11
HETATM   11  C12 UNL     1      27.354   0.190  54.440  1.00  0.00     0.037 C 
BRANCH  11  12
HETATM   12  C13 UNL     1      28.863   0.299  54.206  1.00  0.00     0.089 C 
HETATM   13 BR1  UNL     1      29.533  -1.344  53.480  1.00  0.00    -0.096 Br
ENDBRANCH  11  12
ENDBRANCH  10  11
ENDBRANCH   8   9
ENDBRANCH   5   8
ENDBRANCH   3   5
BRANCH   2  14
HETATM   14  C2  UNL     1      25.080   5.302  49.173  1.00  0.00     0.142 C 
BRANCH  14  15
HETATM   15  C3  UNL     1      26.445   5.684  48.810  1.00  0.00    -0.049 A 
HETATM   16  C4  UNL     1      27.529   4.832  48.667  1.00  0.00     0.011 A 
HETATM   17  C5  UNL     1      28.767   5.371  48.314  1.00  0.00     0.043 A 
HETATM   18  C6  UNL     1      28.885   6.733  48.118  1.00  0.00     0.116 A 
HETATM   19  F1  UNL     1      30.105   7.260  47.771  1.00  0.00    -0.206 F 
HETATM   20  C7  UNL     1      27.815   7.606  48.256  1.00  0.00     0.043 A 
HETATM   21  C8  UNL     1      26.599   7.053  48.605  1.00  0.00     0.011 A 
ENDBRANCH  14  15
ENDBRANCH   2  14
TORSDOF 7
ENDMDL
MODEL 8
REMARK VINA RESULT:      -6.3      4.898      7.504
REMARK  7 active torsions:
REMARK  status: ('A' for Active; 'I' for Inactive)
REMARK    1  A    between atoms: C1_2  and  C2_3 
REMARK       I    between atoms: C1_2  and  N1_11 
REMARK    2  A    between atoms: C2_3  and  C3_4 
REMARK    3  A    between atoms: N1_11  and  S1_12 
REMARK    4  A    between atoms: S1_12  and  C9_15 
REMARK    5  A    between atoms: C9_15  and  C10_16 
REMARK    6  A    between atoms: C11_17  and  C12_18 
REMARK    7  A    between atoms: C12_18  and  C13_19 
ROOT
HETATM    1  O1  UNL     1      27.261   2.675  51.429  1.00  0.00    -0.272 OA
HETATM    2  C1  UNL     1      26.221   2.719  50.703  1.00  0.00     0.235 C 
HETATM    3  N1  UNL     1      24.989   2.229  51.258  1.00  0.00    -0.254 N 
HETATM    4  H7  UNL     1      24.088   2.242  50.699  1.00  0.00     0.181 HD
ENDROOT
BRANCH   3   5
HETATM    5  S1  UNL     1      25.027   1.613  52.887  1.00  0.00     0.236 S 
HETATM    6  O2  UNL     1      25.640   2.620  53.793  1.00  0.00    -0.205 OA
HETATM    7  O3  UNL     1      23.622   1.320  53.286  1.00  0.00    -0.205 OA
BRANCH   5   8
HETATM    8  C9  UNL     1      25.944   0.084  52.871  1.00  0.00     0.190 C 
BRANCH   8   9
HETATM    9  C10 UNL     1      26.576  -0.178  54.176  1.00  0.00    -0.014 C 
HETATM   10  C11 UNL     1      27.849   0.043  54.460  1.00  0.00    -0.029 C 
BRANCH  10  11
HETATM   11  C12 UNL     1      28.952   0.578  53.633  1.00  0.00     0.037 C 
BRANCH  11  12
HETATM   12  C13 UNL     1      29.971  -0.551  53.444  1.00  0.00     0.089 C 
HETATM   13 BR1  UNL     1      29.060  -2.226  53.245  1.00  0.00    -0.096 Br
ENDBRANCH  11  12
ENDBRANCH  10  11
ENDBRANCH   8   9
ENDBRANCH   5   8
ENDBRANCH   3   5
BRANCH   2  14
HETATM   14  C2  UNL     1      26.134   3.228  49.324  1.00  0.00     0.142 C 
BRANCH  14  15
HETATM   15  C3  UNL     1      26.530   4.627  49.169  1.00  0.00    -0.049 A 
HETATM   16  C4  UNL     1      25.790   5.740  49.535  1.00  0.00     0.011 A 
HETATM   17  C5  UNL     1      26.325   7.009  49.312  1.00  0.00     0.043 A 
HETATM   18  C6  UNL     1      27.574   7.129  48.734  1.00  0.00     0.116 A 
HETATM   19  F1  UNL     1      28.098   8.379  48.516  1.00  0.00    -0.206 F 
HETATM   20  C7  UNL     1      28.335   6.030  48.358  1.00  0.00     0.043 A 
HETATM   21  C8  UNL     1      27.786   4.783  48.587  1.00  0.00     0.011 A 
ENDBRANCH  14  15
ENDBRANCH   2  14
TORSDOF 7
ENDMDL
MODEL 9
REMARK VINA RESULT:      -6.3      4.409      6.306
REMARK  7 active torsions:
REMARK  status: ('A' for Active; 'I' for Inactive)
REMARK    1  A    between atoms: C1_2  and  C2_3 
REMARK       I    between atoms: C1_2  and  N1_11 
REMARK    2  A    between atoms: C2_3  and  C3_4 
REMARK    3  A    between atoms: N1_11  and  S1_12 
REMARK    4  A    between atoms: S1_12  and  C9_15 
REMARK    5  A    between atoms: C9_15  and  C10_16 
REMARK    6  A    between atoms: C11_17  and  C12_18 
REMARK    7  A    between atoms: C12_18  and  C13_19 
ROOT
HETATM    1  O1  UNL     1      24.550   2.399  53.527  1.00  0.00    -0.272 OA
HETATM    2  C1  UNL     1      24.513   1.301  52.891  1.00  0.00     0.235 C 
HETATM    3  N1  UNL     1      24.077   1.327  51.522  1.00  0.00    -0.254 N 
HETATM    4  H7  UNL     1      24.027   0.442  50.941  1.00  0.00     0.181 HD
ENDROOT
BRANCH   3   5
HETATM    5  S1  UNL     1      23.632   2.870  50.848  1.00  0.00     0.236 S 
HETATM    6  O2  UNL     1      24.710   3.863  51.103  1.00  0.00    -0.205 OA
HETATM    7  O3  UNL     1      23.421   2.674  49.386  1.00  0.00    -0.205 OA
BRANCH   5   8
HETATM    8  C9  UNL     1      22.084   3.362  51.583  1.00  0.00     0.190 C 
BRANCH   8   9
HETATM    9  C10 UNL     1      20.994   2.444  51.209  1.00  0.00    -0.014 C 
HETATM   10  C11 UNL     1      20.496   1.500  51.991  1.00  0.00    -0.029 C 
BRANCH  10  11
HETATM   11  C12 UNL     1      20.840   1.098  53.373  1.00  0.00     0.037 C 
BRANCH  11  12
HETATM   12  C13 UNL     1      20.147  -0.241  53.645  1.00  0.00     0.089 C 
HETATM   13 BR1  UNL     1      21.420  -1.514  54.305  1.00  0.00    -0.096 Br
ENDBRANCH  11  12
ENDBRANCH  10  11
ENDBRANCH   8   9
ENDBRANCH   5   8
ENDBRANCH   3   5
BRANCH   2  14
HETATM   14  C2  UNL     1      24.877  -0.027  53.412  1.00  0.00     0.142 C 
BRANCH  14  15
HETATM   15  C3  UNL     1      26.306  -0.205  53.672  1.00  0.00    -0.049 A 
HETATM   16  C4  UNL     1      27.050   0.426  54.656  1.00  0.00     0.011 A 
HETATM   17  C5  UNL     1      28.411   0.135  54.762  1.00  0.00     0.043 A 
HETATM   18  C6  UNL     1      28.984  -0.768  53.889  1.00  0.00     0.116 A 
HETATM   19  F1  UNL     1      30.323  -1.052  53.995  1.00  0.00    -0.206 F 
HETATM   20  C7  UNL     1      28.260  -1.413  52.895  1.00  0.00     0.043 A 
HETATM   21  C8  UNL     1      26.915  -1.112  52.807  1.00  0.00     0.011 A 
ENDBRANCH  14  15
ENDBRANCH   2  14
TORSDOF 7
ENDMDL
