MODEL 1
REMARK VINA RESULT:      -7.4      0.000      0.000
REMARK  4 active torsions:
REMARK  status: ('A' for Active; 'I' for Inactive)
REMARK    1  A    between atoms: O1_2  and  C2_3 
REMARK    2  A    between atoms: C6_9  and  N3_10 
REMARK    3  A    between atoms: C9_13  and  S1_14 
REMARK    4  A    between atoms: C15_20  and  O2_21 
ROOT
HETATM    1  C2  UNL     1      20.617   2.856  52.274  1.00  0.00     0.103 A 
HETATM    2  C3  UNL     1      20.150   1.720  52.904  1.00  0.00     0.072 A 
HETATM    3  C4  UNL     1      20.986   0.736  53.390  1.00  0.00     0.075 A 
HETATM    4  N1  UNL     1      20.472  -0.343  53.993  1.00  0.00    -0.241 NA
HETATM    5  C5  UNL     1      21.277  -1.330  54.482  1.00  0.00     0.236 A 
HETATM    6  N2  UNL     1      22.619  -1.227  54.361  1.00  0.00    -0.223 NA
HETATM    7  C6  UNL     1      23.135  -0.134  53.750  1.00  0.00     0.148 A 
HETATM    8  C13 UNL     1      22.344   0.883  53.245  1.00  0.00     0.042 A 
HETATM    9  C14 UNL     1      22.862   1.998  52.623  1.00  0.00     0.057 A 
HETATM   10  C15 UNL     1      21.997   2.983  52.139  1.00  0.00     0.102 A 
ENDROOT
BRANCH   7  11
HETATM   11  N3  UNL     1      24.556  -0.032  53.626  1.00  0.00    -0.297 N 
HETATM   12  C7  UNL     1      25.775  -0.325  52.954  1.00  0.00     0.046 A 
HETATM   13  C8  UNL     1      25.844   0.412  54.041  1.00  0.00     0.059 A 
HETATM   14  C12 UNL     1      26.956  -0.721  52.135  1.00  0.00     0.086 C 
HETATM   15  C9  UNL     1      27.254   0.788  54.330  1.00  0.00     0.119 C 
HETATM   16  C10 UNL     1      28.167  -0.378  54.182  1.00  0.00    -0.009 C 
HETATM   17  C11 UNL     1      28.032  -1.136  53.098  1.00  0.00    -0.023 C 
BRANCH  15  18
HETATM   18  S1  UNL     1      27.839   2.080  53.182  1.00  0.00    -0.167 SA
HETATM   19  H7  UNL     1      29.185   2.426  53.488  1.00  0.00     0.102 HD
ENDBRANCH  15  18
ENDBRANCH   7  11
BRANCH  10  20
HETATM   20  O2  UNL     1      22.527   4.104  51.512  1.00  0.00    -0.353 OA
HETATM   21  C16 UNL     1      23.351   4.969  52.286  1.00  0.00     0.210 C 
ENDBRANCH  10  20
BRANCH   1  22
HETATM   22  O1  UNL     1      19.840   3.877  51.766  1.00  0.00    -0.353 OA
HETATM   23  C1  UNL     1      18.573   3.649  51.181  1.00  0.00     0.210 C 
ENDBRANCH   1  22
TORSDOF 4
ENDMDL
MODEL 2
REMARK VINA RESULT:      -7.4      3.636      7.019
REMARK  4 active torsions:
REMARK  status: ('A' for Active; 'I' for Inactive)
REMARK    1  A    between atoms: O1_2  and  C2_3 
REMARK    2  A    between atoms: C6_9  and  N3_10 
REMARK    3  A    between atoms: C9_13  and  S1_14 
REMARK    4  A    between atoms: C15_20  and  O2_21 
ROOT
HETATM    1  C2  UNL     1      27.310   0.069  53.635  1.00  0.00     0.103 A 
HETATM    2  C3  UNL     1      27.583   1.042  52.694  1.00  0.00     0.072 A 
HETATM    3  C4  UNL     1      26.596   1.695  51.984  1.00  0.00     0.075 A 
HETATM    4  N1  UNL     1      26.925   2.631  51.085  1.00  0.00    -0.241 NA
HETATM    5  C5  UNL     1      25.969   3.291  50.370  1.00  0.00     0.236 A 
HETATM    6  N2  UNL     1      24.663   3.002  50.564  1.00  0.00    -0.223 NA
HETATM    7  C6  UNL     1      24.335   2.053  51.474  1.00  0.00     0.148 A 
HETATM    8  C13 UNL     1      25.283   1.369  52.214  1.00  0.00     0.042 A 
HETATM    9  C14 UNL     1      24.956   0.404  53.142  1.00  0.00     0.057 A 
HETATM   10  C15 UNL     1      25.971  -0.244  53.851  1.00  0.00     0.102 A 
ENDROOT
BRANCH   7  11
HETATM   11  N3  UNL     1      22.951   1.754  51.674  1.00  0.00    -0.297 N 
HETATM   12  C7  UNL     1      21.865   1.362  52.505  1.00  0.00     0.046 A 
HETATM   13  C8  UNL     1      21.602   1.608  51.240  1.00  0.00     0.059 A 
HETATM   14  C12 UNL     1      20.843   0.943  53.506  1.00  0.00     0.086 C 
HETATM   15  C9  UNL     1      20.156   1.408  50.958  1.00  0.00     0.119 C 
HETATM   16  C10 UNL     1      19.650   0.152  51.576  1.00  0.00    -0.009 C 
HETATM   17  C11 UNL     1      19.983  -0.093  52.840  1.00  0.00    -0.023 C 
BRANCH  15  18
HETATM   18  S1  UNL     1      19.158   2.780  51.634  1.00  0.00    -0.167 SA
HETATM   19  H7  UNL     1      17.821   2.344  51.855  1.00  0.00     0.102 HD
ENDBRANCH  15  18
ENDBRANCH   7  11
BRANCH  10  20
HETATM   20  O2  UNL     1      25.634  -1.216  54.784  1.00  0.00    -0.353 OA
HETATM   21  C16 UNL     1      24.328  -1.169  55.349  1.00  0.00     0.210 C 
ENDBRANCH  10  20
BRANCH   1  22
HETATM   22  O1  UNL     1      28.245  -0.621  54.379  1.00  0.00    -0.353 OA
HETATM   23  C1  UNL     1      29.551  -0.882  53.906  1.00  0.00     0.210 C 
ENDBRANCH   1  22
TORSDOF 4
ENDMDL
MODEL 3
REMARK VINA RESULT:      -7.3      3.034      6.258
REMARK  4 active torsions:
REMARK  status: ('A' for Active; 'I' for Inactive)
REMARK    1  A    between atoms: O1_2  and  C2_3 
REMARK    2  A    between atoms: C6_9  and  N3_10 
REMARK    3  A    between atoms: C9_13  and  S1_14 
REMARK    4  A    between atoms: C15_20  and  O2_21 
ROOT
HETATM    1  C2  UNL     1      27.506   0.733  53.536  1.00  0.00     0.103 A 
HETATM    2  C3  UNL     1      26.887  -0.085  54.460  1.00  0.00     0.072 A 
HETATM    3  C4  UNL     1      25.530  -0.334  54.448  1.00  0.00     0.075 A 
HETATM    4  N1  UNL     1      24.987  -1.138  55.371  1.00  0.00    -0.241 NA
HETATM    5  C5  UNL     1      23.649  -1.401  55.381  1.00  0.00     0.236 A 
HETATM    6  N2  UNL     1      22.846  -0.846  54.447  1.00  0.00    -0.223 NA
HETATM    7  C6  UNL     1      23.399  -0.033  53.514  1.00  0.00     0.148 A 
HETATM    8  C13 UNL     1      24.753   0.252  53.479  1.00  0.00     0.042 A 
HETATM    9  C14 UNL     1      25.321   1.077  52.534  1.00  0.00     0.057 A 
HETATM   10  C15 UNL     1      26.698   1.316  52.564  1.00  0.00     0.102 A 
ENDROOT
BRANCH   7  11
HETATM   11  N3  UNL     1      22.543   0.551  52.529  1.00  0.00    -0.297 N 
HETATM   12  C7  UNL     1      21.676   1.588  52.083  1.00  0.00     0.046 A 
HETATM   13  C8  UNL     1      21.888   0.580  51.264  1.00  0.00     0.059 A 
HETATM   14  C12 UNL     1      20.800   2.751  51.769  1.00  0.00     0.086 C 
HETATM   15  C9  UNL     1      21.133   0.769  49.997  1.00  0.00     0.119 C 
HETATM   16  C10 UNL     1      19.738   1.214  50.257  1.00  0.00    -0.009 C 
HETATM   17  C11 UNL     1      19.555   2.197  51.134  1.00  0.00    -0.023 C 
BRANCH  15  18
HETATM   18  S1  UNL     1      21.917   2.040  48.947  1.00  0.00    -0.167 SA
HETATM   19  H7  UNL     1      21.292   3.300  49.162  1.00  0.00     0.102 HD
ENDBRANCH  15  18
ENDBRANCH   7  11
BRANCH  10  20
HETATM   20  O2  UNL     1      27.264   2.150  51.608  1.00  0.00    -0.353 OA
HETATM   21  C16 UNL     1      26.384   2.854  50.738  1.00  0.00     0.210 C 
ENDBRANCH  10  20
BRANCH   1  22
HETATM   22  O1  UNL     1      28.854   1.025  53.491  1.00  0.00    -0.353 OA
HETATM   23  C1  UNL     1      29.852   0.029  53.579  1.00  0.00     0.210 C 
ENDBRANCH   1  22
TORSDOF 4
ENDMDL
MODEL 4
REMARK VINA RESULT:      -7.3      3.477      6.247
REMARK  4 active torsions:
REMARK  status: ('A' for Active; 'I' for Inactive)
REMARK    1  A    between atoms: O1_2  and  C2_3 
REMARK    2  A    between atoms: C6_9  and  N3_10 
REMARK    3  A    between atoms: C9_13  and  S1_14 
REMARK    4  A    between atoms: C15_20  and  O2_21 
ROOT
HETATM    1  C2  UNL     1      27.115  -0.306  53.625  1.00  0.00     0.103 A 
HETATM    2  C3  UNL     1      25.848  -0.834  53.775  1.00  0.00     0.072 A 
HETATM    3  C4  UNL     1      24.714  -0.200  53.310  1.00  0.00     0.075 A 
HETATM    4  N1  UNL     1      23.512  -0.763  53.485  1.00  0.00    -0.241 NA
HETATM    5  C5  UNL     1      22.375  -0.158  53.036  1.00  0.00     0.236 A 
HETATM    6  N2  UNL     1      22.452   1.033  52.401  1.00  0.00    -0.223 NA
HETATM    7  C6  UNL     1      23.671   1.599  52.226  1.00  0.00     0.148 A 
HETATM    8  C13 UNL     1      24.840   1.008  52.670  1.00  0.00     0.042 A 
HETATM    9  C14 UNL     1      26.082   1.579  52.495  1.00  0.00     0.057 A 
HETATM   10  C15 UNL     1      27.218   0.920  52.973  1.00  0.00     0.102 A 
ENDROOT
BRANCH   7  11
HETATM   11  N3  UNL     1      23.743   2.859  51.552  1.00  0.00    -0.297 N 
HETATM   12  C7  UNL     1      23.822   3.637  50.364  1.00  0.00     0.046 A 
HETATM   13  C8  UNL     1      23.793   4.282  51.510  1.00  0.00     0.059 A 
HETATM   14  C12 UNL     1      23.904   4.301  49.033  1.00  0.00     0.086 C 
HETATM   15  C9  UNL     1      23.853   5.751  51.286  1.00  0.00     0.119 C 
HETATM   16  C10 UNL     1      24.890   6.104  50.279  1.00  0.00    -0.009 C 
HETATM   17  C11 UNL     1      24.928   5.394  49.154  1.00  0.00    -0.023 C 
BRANCH  15  18
HETATM   18  S1  UNL     1      22.259   6.387  50.665  1.00  0.00    -0.167 SA
HETATM   19  H7  UNL     1      22.439   6.976  49.382  1.00  0.00     0.102 HD
ENDBRANCH  15  18
ENDBRANCH   7  11
BRANCH  10  20
HETATM   20  O2  UNL     1      28.467   1.501  52.793  1.00  0.00    -0.353 OA
HETATM   21  C16 UNL     1      28.880   2.489  53.732  1.00  0.00     0.210 C 
ENDBRANCH  10  20
BRANCH   1  22
HETATM   22  O1  UNL     1      28.289  -0.884  54.064  1.00  0.00    -0.353 OA
HETATM   23  C1  UNL     1      29.018  -1.812  53.285  1.00  0.00     0.210 C 
ENDBRANCH   1  22
TORSDOF 4
ENDMDL
MODEL 5
REMARK VINA RESULT:      -6.8      2.024      2.418
REMARK  4 active torsions:
REMARK  status: ('A' for Active; 'I' for Inactive)
REMARK    1  A    between atoms: O1_2  and  C2_3 
REMARK    2  A    between atoms: C6_9  and  N3_10 
REMARK    3  A    between atoms: C9_13  and  S1_14 
REMARK    4  A    between atoms: C15_20  and  O2_21 
ROOT
HETATM    1  C2  UNL     1      19.672   0.200  51.886  1.00  0.00     0.103 A 
HETATM    2  C3  UNL     1      19.803  -0.585  53.014  1.00  0.00     0.072 A 
HETATM    3  C4  UNL     1      21.008  -0.772  53.660  1.00  0.00     0.075 A 
HETATM    4  N1  UNL     1      21.071  -1.545  54.751  1.00  0.00    -0.241 NA
HETATM    5  C5  UNL     1      22.249  -1.746  55.408  1.00  0.00     0.236 A 
HETATM    6  N2  UNL     1      23.381  -1.159  54.958  1.00  0.00    -0.223 NA
HETATM    7  C6  UNL     1      23.312  -0.378  53.853  1.00  0.00     0.148 A 
HETATM    8  C13 UNL     1      22.131  -0.156  53.167  1.00  0.00     0.042 A 
HETATM    9  C14 UNL     1      22.055   0.637  52.043  1.00  0.00     0.057 A 
HETATM   10  C15 UNL     1      20.824   0.814  51.404  1.00  0.00     0.102 A 
ENDROOT
BRANCH   7  11
HETATM   11  N3  UNL     1      24.514   0.239  53.382  1.00  0.00    -0.297 N 
HETATM   12  C7  UNL     1      25.830   0.163  52.848  1.00  0.00     0.046 A 
HETATM   13  C8  UNL     1      25.337   1.361  53.079  1.00  0.00     0.059 A 
HETATM   14  C12 UNL     1      27.189  -0.088  52.291  1.00  0.00     0.086 C 
HETATM   15  C9  UNL     1      26.321   2.412  52.708  1.00  0.00     0.119 C 
HETATM   16  C10 UNL     1      27.684   2.079  53.204  1.00  0.00    -0.009 C 
HETATM   17  C11 UNL     1      28.130   0.841  53.005  1.00  0.00    -0.023 C 
BRANCH  15  18
HETATM   18  S1  UNL     1      26.437   2.596  50.896  1.00  0.00    -0.167 SA
HETATM   19  H7  UNL     1      26.081   1.374  50.260  1.00  0.00     0.102 HD
ENDBRANCH  15  18
ENDBRANCH   7  11
BRANCH  10  20
HETATM   20  O2  UNL     1      20.756   1.615  50.272  1.00  0.00    -0.353 OA
HETATM   21  C16 UNL     1      21.499   1.211  49.127  1.00  0.00     0.210 C 
ENDBRANCH  10  20
BRANCH   1  22
HETATM   22  O1  UNL     1      18.501   0.430  51.193  1.00  0.00    -0.353 OA
HETATM   23  C1  UNL     1      17.284  -0.210  51.521  1.00  0.00     0.210 C 
ENDBRANCH   1  22
TORSDOF 4
ENDMDL
MODEL 6
REMARK VINA RESULT:      -6.8      3.387      5.712
REMARK  4 active torsions:
REMARK  status: ('A' for Active; 'I' for Inactive)
REMARK    1  A    between atoms: O1_2  and  C2_3 
REMARK    2  A    between atoms: C6_9  and  N3_10 
REMARK    3  A    between atoms: C9_13  and  S1_14 
REMARK    4  A    between atoms: C15_20  and  O2_21 
ROOT
HETATM    1  C2  UNL     1      23.257  -0.414  53.158  1.00  0.00     0.103 A 
HETATM    2  C3  UNL     1      24.573  -0.570  53.546  1.00  0.00     0.072 A 
HETATM    3  C4  UNL     1      25.580   0.280  53.135  1.00  0.00     0.075 A 
HETATM    4  N1  UNL     1      26.838   0.077  53.547  1.00  0.00    -0.241 NA
HETATM    5  C5  UNL     1      27.851   0.902  53.156  1.00  0.00     0.236 A 
HETATM    6  N2  UNL     1      27.593   1.946  52.337  1.00  0.00    -0.223 NA
HETATM    7  C6  UNL     1      26.319   2.147  51.923  1.00  0.00     0.148 A 
HETATM    8  C13 UNL     1      25.271   1.328  52.304  1.00  0.00     0.042 A 
HETATM    9  C14 UNL     1      23.973   1.527  51.886  1.00  0.00     0.057 A 
HETATM   10  C15 UNL     1      22.968   0.656  52.315  1.00  0.00     0.102 A 
ENDROOT
BRANCH   7  11
HETATM   11  N3  UNL     1      26.053   3.254  51.058  1.00  0.00    -0.297 N 
HETATM   12  C7  UNL     1      26.357   4.049  49.917  1.00  0.00     0.046 A 
HETATM   13  C8  UNL     1      25.319   4.403  50.643  1.00  0.00     0.059 A 
HETATM   14  C12 UNL     1      26.809   4.772  48.695  1.00  0.00     0.086 C 
HETATM   15  C9  UNL     1      24.671   5.614  50.074  1.00  0.00     0.119 C 
HETATM   16  C10 UNL     1      25.678   6.642  49.696  1.00  0.00    -0.009 C 
HETATM   17  C11 UNL     1      26.745   6.240  49.011  1.00  0.00    -0.023 C 
BRANCH  15  18
HETATM   18  S1  UNL     1      23.724   5.207  48.567  1.00  0.00    -0.167 SA
HETATM   19  H7  UNL     1      23.491   3.805  48.504  1.00  0.00     0.102 HD
ENDBRANCH  15  18
ENDBRANCH   7  11
BRANCH  10  20
HETATM   20  O2  UNL     1      21.662   0.863  51.889  1.00  0.00    -0.353 OA
HETATM   21  C16 UNL     1      21.364   0.619  50.519  1.00  0.00     0.210 C 
ENDBRANCH  10  20
BRANCH   1  22
HETATM   22  O1  UNL     1      22.203  -1.223  53.529  1.00  0.00    -0.353 OA
HETATM   23  C1  UNL     1      21.920  -1.531  54.880  1.00  0.00     0.210 C 
ENDBRANCH   1  22
TORSDOF 4
ENDMDL
MODEL 7
REMARK VINA RESULT:      -6.6      2.569      4.732
REMARK  4 active torsions:
REMARK  status: ('A' for Active; 'I' for Inactive)
REMARK    1  A    between atoms: O1_2  and  C2_3 
REMARK    2  A    between atoms: C6_9  and  N3_10 
REMARK    3  A    between atoms: C9_13  and  S1_14 
REMARK    4  A    between atoms: C15_20  and  O2_21 
ROOT
HETATM    1  C2  UNL     1      19.647  -0.602  53.456  1.00  0.00     0.103 A 
HETATM    2  C3  UNL     1      20.759  -1.112  54.096  1.00  0.00     0.072 A 
HETATM    3  C4  UNL     1      22.031  -0.618  53.895  1.00  0.00     0.075 A 
HETATM    4  N1  UNL     1      23.070  -1.155  54.547  1.00  0.00    -0.241 NA
HETATM    5  C5  UNL     1      24.338  -0.685  54.366  1.00  0.00     0.236 A 
HETATM    6  N2  UNL     1      24.561   0.341  53.515  1.00  0.00    -0.223 NA
HETATM    7  C6  UNL     1      23.507   0.881  52.858  1.00  0.00     0.148 A 
HETATM    8  C13 UNL     1      22.211   0.426  53.021  1.00  0.00     0.042 A 
HETATM    9  C14 UNL     1      21.135   0.971  52.356  1.00  0.00     0.057 A 
HETATM   10  C15 UNL     1      19.854   0.456  52.575  1.00  0.00     0.102 A 
ENDROOT
BRANCH   7  11
HETATM   11  N3  UNL     1      23.752   1.967  51.959  1.00  0.00    -0.297 N 
HETATM   12  C7  UNL     1      23.783   3.357  51.660  1.00  0.00     0.046 A 
HETATM   13  C8  UNL     1      24.140   2.523  50.707  1.00  0.00     0.059 A 
HETATM   14  C12 UNL     1      23.761   4.839  51.509  1.00  0.00     0.086 C 
HETATM   15  C9  UNL     1      24.513   3.266  49.474  1.00  0.00     0.119 C 
HETATM   16  C10 UNL     1      23.530   4.341  49.169  1.00  0.00    -0.009 C 
HETATM   17  C11 UNL     1      23.146   5.130  50.169  1.00  0.00    -0.023 C 
BRANCH  15  18
HETATM   18  S1  UNL     1      26.144   4.065  49.654  1.00  0.00    -0.167 SA
HETATM   19  H7  UNL     1      25.989   5.479  49.707  1.00  0.00     0.102 HD
ENDBRANCH  15  18
ENDBRANCH   7  11
BRANCH  10  20
HETATM   20  O2  UNL     1      18.775   1.011  51.899  1.00  0.00    -0.353 OA
HETATM   21  C16 UNL     1      18.631   0.708  50.516  1.00  0.00     0.210 C 
ENDBRANCH  10  20
BRANCH   1  22
HETATM   22  O1  UNL     1      18.351  -1.047  53.609  1.00  0.00    -0.353 OA
HETATM   23  C1  UNL     1      17.997  -2.411  53.505  1.00  0.00     0.210 C 
ENDBRANCH   1  22
TORSDOF 4
ENDMDL
MODEL 8
REMARK VINA RESULT:      -6.4      3.188      5.722
REMARK  4 active torsions:
REMARK  status: ('A' for Active; 'I' for Inactive)
REMARK    1  A    between atoms: O1_2  and  C2_3 
REMARK    2  A    between atoms: C6_9  and  N3_10 
REMARK    3  A    between atoms: C9_13  and  S1_14 
REMARK    4  A    between atoms: C15_20  and  O2_21 
ROOT
HETATM    1  C2  UNL     1      25.517   4.486  49.488  1.00  0.00     0.103 A 
HETATM    2  C3  UNL     1      26.558   3.872  50.155  1.00  0.00     0.072 A 
HETATM    3  C4  UNL     1      26.366   2.857  51.070  1.00  0.00     0.075 A 
HETATM    4  N1  UNL     1      27.417   2.301  51.685  1.00  0.00    -0.241 NA
HETATM    5  C5  UNL     1      27.254   1.296  52.593  1.00  0.00     0.236 A 
HETATM    6  N2  UNL     1      26.014   0.846  52.885  1.00  0.00    -0.223 NA
HETATM    7  C6  UNL     1      24.953   1.412  52.261  1.00  0.00     0.148 A 
HETATM    8  C13 UNL     1      25.087   2.432  51.335  1.00  0.00     0.042 A 
HETATM    9  C14 UNL     1      24.013   3.011  50.697  1.00  0.00     0.057 A 
HETATM   10  C15 UNL     1      24.230   4.038  49.773  1.00  0.00     0.102 A 
ENDROOT
BRANCH   7  11
HETATM   11  N3  UNL     1      23.644   0.930  52.575  1.00  0.00    -0.297 N 
HETATM   12  C7  UNL     1      22.364   0.446  52.186  1.00  0.00     0.046 A 
HETATM   13  C8  UNL     1      22.603   0.559  53.474  1.00  0.00     0.059 A 
HETATM   14  C12 UNL     1      21.078  -0.044  51.614  1.00  0.00     0.086 C 
HETATM   15  C9  UNL     1      21.418   0.133  54.266  1.00  0.00     0.119 C 
HETATM   16  C10 UNL     1      20.160   0.698  53.707  1.00  0.00    -0.009 C 
HETATM   17  C11 UNL     1      19.976   0.617  52.391  1.00  0.00    -0.023 C 
BRANCH  15  18
HETATM   18  S1  UNL     1      21.242  -1.684  54.260  1.00  0.00    -0.167 SA
HETATM   19  H7  UNL     1      20.013  -2.050  53.643  1.00  0.00     0.102 HD
ENDBRANCH  15  18
ENDBRANCH   7  11
BRANCH  10  20
HETATM   20  O2  UNL     1      23.141   4.618  49.134  1.00  0.00    -0.353 OA
HETATM   21  C16 UNL     1      22.286   5.453  49.906  1.00  0.00     0.210 C 
ENDBRANCH  10  20
BRANCH   1  22
HETATM   22  O1  UNL     1      25.637   5.503  48.564  1.00  0.00    -0.353 OA
HETATM   23  C1  UNL     1      26.730   6.399  48.556  1.00  0.00     0.210 C 
ENDBRANCH   1  22
TORSDOF 4
ENDMDL
MODEL 9
REMARK VINA RESULT:      -6.4      3.058      6.223
REMARK  4 active torsions:
REMARK  status: ('A' for Active; 'I' for Inactive)
REMARK    1  A    between atoms: O1_2  and  C2_3 
REMARK    2  A    between atoms: C6_9  and  N3_10 
REMARK    3  A    between atoms: C9_13  and  S1_14 
REMARK    4  A    between atoms: C15_20  and  O2_21 
ROOT
HETATM    1  C2  UNL     1      25.566   0.266  53.259  1.00  0.00     0.103 A 
HETATM    2  C3  UNL     1      24.755  -0.570  54.000  1.00  0.00     0.072 A 
HETATM    3  C4  UNL     1      23.377  -0.528  53.935  1.00  0.00     0.075 A 
HETATM    4  N1  UNL     1      22.644  -1.366  54.678  1.00  0.00    -0.241 NA
HETATM    5  C5  UNL     1      21.281  -1.344  54.632  1.00  0.00     0.236 A 
HETATM    6  N2  UNL     1      20.648  -0.464  53.825  1.00  0.00    -0.223 NA
HETATM    7  C6  UNL     1      21.394   0.382  53.075  1.00  0.00     0.148 A 
HETATM    8  C13 UNL     1      22.777   0.383  53.101  1.00  0.00     0.042 A 
HETATM    9  C14 UNL     1      23.541   1.241  52.340  1.00  0.00     0.057 A 
HETATM   10  C15 UNL     1      24.935   1.180  52.420  1.00  0.00     0.102 A 
ENDROOT
BRANCH   7  11
HETATM   11  N3  UNL     1      20.716   1.310  52.223  1.00  0.00    -0.297 N 
HETATM   12  C7  UNL     1      20.146   1.669  50.970  1.00  0.00     0.046 A 
HETATM   13  C8  UNL     1      20.091   2.558  51.938  1.00  0.00     0.059 A 
HETATM   14  C12 UNL     1      19.598   1.887  49.602  1.00  0.00     0.086 C 
HETATM   15  C9  UNL     1      19.410   3.796  51.473  1.00  0.00     0.119 C 
HETATM   16  C10 UNL     1      19.898   4.212  50.131  1.00  0.00    -0.009 C 
HETATM   17  C11 UNL     1      19.997   3.276  49.190  1.00  0.00    -0.023 C 
BRANCH  15  18
HETATM   18  S1  UNL     1      17.607   3.544  51.336  1.00  0.00    -0.167 SA
HETATM   19  H7  UNL     1      16.934   4.310  52.329  1.00  0.00     0.102 HD
ENDBRANCH  15  18
ENDBRANCH   7  11
BRANCH  10  20
HETATM   20  O2  UNL     1      25.698   2.049  51.650  1.00  0.00    -0.353 OA
HETATM   21  C16 UNL     1      25.011   3.024  50.872  1.00  0.00     0.210 C 
ENDBRANCH  10  20
BRANCH   1  22
HETATM   22  O1  UNL     1      26.945   0.277  53.275  1.00  0.00    -0.353 OA
HETATM   23  C1  UNL     1      27.693   0.173  54.470  1.00  0.00     0.210 C 
ENDBRANCH   1  22
TORSDOF 4
ENDMDL
