MODEL 1
REMARK VINA RESULT:      -8.4      0.000      0.000
REMARK  4 active torsions:
REMARK  status: ('A' for Active; 'I' for Inactive)
REMARK    1  A    between atoms: C7_7  and  N1_8 
REMARK    2  A    between atoms: N1_8  and  C8_9 
REMARK    3  A    between atoms: C12_15  and  C13_16 
REMARK    4  A    between atoms: C13_16  and  C14_17 
ROOT
HETATM    1  C1  UNL     1      28.777  -2.810  53.080  1.00  0.00     0.018 C 
HETATM    2  C2  UNL     1      28.735  -1.622  53.231  1.00  0.00    -0.078 C 
HETATM    3  C3  UNL     1      28.669  -0.211  53.429  1.00  0.00     0.019 A 
HETATM    4  C4  UNL     1      29.482   0.546  54.238  1.00  0.00     0.021 A 
HETATM    5  C5  UNL     1      29.402   1.893  54.413  1.00  0.00     0.004 A 
HETATM    6  C6  UNL     1      28.390   2.484  53.679  1.00  0.00     0.029 A 
HETATM    7  C7  UNL     1      27.482   1.839  52.812  1.00  0.00     0.035 A 
HETATM    8  C19 UNL     1      27.682   0.448  52.729  1.00  0.00     0.050 A 
ENDROOT
BRANCH   7   9
HETATM    9  N1  UNL     1      26.572   2.745  52.143  1.00  0.00    -0.340 N 
HETATM   10  H5  UNL     1      27.475   3.257  52.132  1.00  0.00     0.167 HD
BRANCH   9  11
HETATM   11  C8  UNL     1      25.302   2.090  52.125  1.00  0.00     0.144 A 
HETATM   12  N2  UNL     1      24.994   1.333  53.190  1.00  0.00    -0.223 NA
HETATM   13  C9  UNL     1      23.820   0.646  53.322  1.00  0.00     0.236 A 
HETATM   14  N3  UNL     1      23.004   0.803  52.282  1.00  0.00    -0.241 NA
HETATM   15  C10 UNL     1      23.255   1.542  51.197  1.00  0.00     0.074 A 
HETATM   16  C11 UNL     1      24.427   2.220  51.079  1.00  0.00     0.068 A 
HETATM   17  C18 UNL     1      22.214   1.440  50.411  1.00  0.00     0.034 A 
HETATM   18  C12 UNL     1      24.868   3.006  50.118  1.00  0.00     0.069 A 
HETATM   19  O1  UNL     1      24.148   3.281  48.968  1.00  0.00    -0.326 OA
HETATM   20  C16 UNL     1      22.881   2.865  48.509  1.00  0.00     0.142 A 
HETATM   21  C17 UNL     1      22.020   2.067  49.112  1.00  0.00     0.027 A 
BRANCH  18  22
HETATM   22  C13 UNL     1      26.191   3.627  50.269  1.00  0.00     0.066 C 
BRANCH  22  23
HETATM   23  C14 UNL     1      26.049   4.774  49.187  1.00  0.00     0.002 C 
HETATM   24  C15 UNL     1      27.363   5.177  48.630  1.00  0.00     0.005 C 
ENDBRANCH  22  23
ENDBRANCH  18  22
ENDBRANCH   9  11
ENDBRANCH   7   9
TORSDOF 4
ENDMDL
MODEL 2
REMARK VINA RESULT:      -8.4      2.685      4.110
REMARK  4 active torsions:
REMARK  status: ('A' for Active; 'I' for Inactive)
REMARK    1  A    between atoms: C7_7  and  N1_8 
REMARK    2  A    between atoms: N1_8  and  C8_9 
REMARK    3  A    between atoms: C12_15  and  C13_16 
REMARK    4  A    between atoms: C13_16  and  C14_17 
ROOT
HETATM    1  C1  UNL     1      28.955  -2.320  53.082  1.00  0.00     0.018 C 
HETATM    2  C2  UNL     1      28.232  -1.364  53.122  1.00  0.00    -0.078 C 
HETATM    3  C3  UNL     1      27.364  -0.236  53.192  1.00  0.00     0.019 A 
HETATM    4  C4  UNL     1      27.664   1.004  53.706  1.00  0.00     0.021 A 
HETATM    5  C5  UNL     1      26.819   2.070  53.763  1.00  0.00     0.004 A 
HETATM    6  C6  UNL     1      25.567   1.807  53.240  1.00  0.00     0.029 A 
HETATM    7  C7  UNL     1      25.117   0.591  52.681  1.00  0.00     0.035 A 
HETATM    8  C19 UNL     1      26.095  -0.422  52.688  1.00  0.00     0.050 A 
ENDROOT
BRANCH   7   9
HETATM    9  N1  UNL     1      23.766   0.652  52.165  1.00  0.00    -0.340 N 
HETATM   10  H5  UNL     1      24.314   1.194  51.470  1.00  0.00     0.167 HD
BRANCH   9  11
HETATM   11  C8  UNL     1      22.956  -0.083  53.085  1.00  0.00     0.144 A 
HETATM   12  N2  UNL     1      23.575  -0.606  54.156  1.00  0.00    -0.223 NA
HETATM   13  C9  UNL     1      22.940  -1.330  55.124  1.00  0.00     0.236 A 
HETATM   14  N3  UNL     1      21.635  -1.468  54.901  1.00  0.00    -0.241 NA
HETATM   15  C10 UNL     1      20.964  -0.972  53.857  1.00  0.00     0.074 A 
HETATM   16  C11 UNL     1      21.609  -0.252  52.901  1.00  0.00     0.068 A 
HETATM   17  C18 UNL     1      19.712  -1.322  54.001  1.00  0.00     0.034 A 
HETATM   18  C12 UNL     1      21.149   0.332  51.813  1.00  0.00     0.069 A 
HETATM   19  O1  UNL     1      19.819   0.291  51.431  1.00  0.00    -0.326 OA
HETATM   20  C16 UNL     1      18.677  -0.309  52.001  1.00  0.00     0.142 A 
HETATM   21  C17 UNL     1      18.599  -1.015  53.114  1.00  0.00     0.027 A 
BRANCH  18  22
HETATM   22  C13 UNL     1      22.091   1.067  50.958  1.00  0.00     0.066 C 
BRANCH  22  23
HETATM   23  C14 UNL     1      21.102   1.463  49.788  1.00  0.00     0.002 C 
HETATM   24  C15 UNL     1      21.718   1.275  48.452  1.00  0.00     0.005 C 
ENDBRANCH  22  23
ENDBRANCH  18  22
ENDBRANCH   9  11
ENDBRANCH   7   9
TORSDOF 4
ENDMDL
MODEL 3
REMARK VINA RESULT:      -7.9      2.427      5.844
REMARK  4 active torsions:
REMARK  status: ('A' for Active; 'I' for Inactive)
REMARK    1  A    between atoms: C7_7  and  N1_8 
REMARK    2  A    between atoms: N1_8  and  C8_9 
REMARK    3  A    between atoms: C12_15  and  C13_16 
REMARK    4  A    between atoms: C13_16  and  C14_17 
ROOT
HETATM    1  C1  UNL     1      23.536   7.566  50.828  1.00  0.00     0.018 C 
HETATM    2  C2  UNL     1      24.209   6.599  50.606  1.00  0.00    -0.078 C 
HETATM    3  C3  UNL     1      24.994   5.443  50.327  1.00  0.00     0.019 A 
HETATM    4  C4  UNL     1      25.998   5.335  49.394  1.00  0.00     0.021 A 
HETATM    5  C5  UNL     1      26.737   4.219  49.142  1.00  0.00     0.004 A 
HETATM    6  C6  UNL     1      26.390   3.140  49.934  1.00  0.00     0.029 A 
HETATM    7  C7  UNL     1      25.387   3.102  50.927  1.00  0.00     0.035 A 
HETATM    8  C19 UNL     1      24.705   4.325  51.078  1.00  0.00     0.050 A 
ENDROOT
BRANCH   7   9
HETATM    9  N1  UNL     1      25.305   1.836  51.624  1.00  0.00    -0.340 N 
HETATM   10  H5  UNL     1      26.311   2.085  51.692  1.00  0.00     0.167 HD
BRANCH   9  11
HETATM   11  C8  UNL     1      23.934   1.439  51.565  1.00  0.00     0.144 A 
HETATM   12  N2  UNL     1      23.209   1.908  50.537  1.00  0.00    -0.223 NA
HETATM   13  C9  UNL     1      21.888   1.619  50.341  1.00  0.00     0.236 A 
HETATM   14  N3  UNL     1      21.386   0.817  51.277  1.00  0.00    -0.241 NA
HETATM   15  C10 UNL     1      22.056   0.318  52.321  1.00  0.00     0.074 A 
HETATM   16  C11 UNL     1      23.370   0.615  52.503  1.00  0.00     0.068 A 
HETATM   17  C18 UNL     1      21.217  -0.418  53.003  1.00  0.00     0.034 A 
HETATM   18  C12 UNL     1      24.213   0.228  53.439  1.00  0.00     0.069 A 
HETATM   19  O1  UNL     1      23.859  -0.607  54.485  1.00  0.00    -0.326 OA
HETATM   20  C16 UNL     1      22.646  -1.229  54.845  1.00  0.00     0.142 A 
HETATM   21  C17 UNL     1      21.483  -1.166  54.222  1.00  0.00     0.027 A 
BRANCH  18  22
HETATM   22  C13 UNL     1      25.602   0.703  53.374  1.00  0.00     0.066 C 
BRANCH  22  23
HETATM   23  C14 UNL     1      26.340  -0.643  53.760  1.00  0.00     0.002 C 
HETATM   24  C15 UNL     1      26.646  -1.471  52.568  1.00  0.00     0.005 C 
ENDBRANCH  22  23
ENDBRANCH  18  22
ENDBRANCH   9  11
ENDBRANCH   7   9
TORSDOF 4
ENDMDL
MODEL 4
REMARK VINA RESULT:      -7.7      1.683      3.653
REMARK  4 active torsions:
REMARK  status: ('A' for Active; 'I' for Inactive)
REMARK    1  A    between atoms: C7_7  and  N1_8 
REMARK    2  A    between atoms: N1_8  and  C8_9 
REMARK    3  A    between atoms: C12_15  and  C13_16 
REMARK    4  A    between atoms: C13_16  and  C14_17 
ROOT
HETATM    1  C1  UNL     1      28.949  -2.589  53.085  1.00  0.00     0.018 C 
HETATM    2  C2  UNL     1      28.575  -1.453  53.181  1.00  0.00    -0.078 C 
HETATM    3  C3  UNL     1      28.130  -0.106  53.319  1.00  0.00     0.019 A 
HETATM    4  C4  UNL     1      28.917   1.009  53.477  1.00  0.00     0.021 A 
HETATM    5  C5  UNL     1      28.472   2.289  53.608  1.00  0.00     0.004 A 
HETATM    6  C6  UNL     1      27.093   2.397  53.567  1.00  0.00     0.029 A 
HETATM    7  C7  UNL     1      26.162   1.348  53.411  1.00  0.00     0.035 A 
HETATM    8  C19 UNL     1      26.765   0.081  53.288  1.00  0.00     0.050 A 
ENDROOT
BRANCH   7   9
HETATM    9  N1  UNL     1      24.786   1.794  53.351  1.00  0.00    -0.340 N 
HETATM   10  H5  UNL     1      24.907   1.515  54.343  1.00  0.00     0.167 HD
BRANCH   9  11
HETATM   11  C8  UNL     1      24.559   2.195  51.998  1.00  0.00     0.144 A 
HETATM   12  N2  UNL     1      25.482   2.992  51.437  1.00  0.00    -0.223 NA
HETATM   13  C9  UNL     1      25.409   3.458  50.155  1.00  0.00     0.236 A 
HETATM   14  N3  UNL     1      24.322   3.040  49.510  1.00  0.00    -0.241 NA
HETATM   15  C10 UNL     1      23.371   2.248  50.014  1.00  0.00     0.074 A 
HETATM   16  C11 UNL     1      23.457   1.792  51.291  1.00  0.00     0.068 A 
HETATM   17  C18 UNL     1      22.479   2.069  49.073  1.00  0.00     0.034 A 
HETATM   18  C12 UNL     1      22.653   1.002  51.975  1.00  0.00     0.069 A 
HETATM   19  O1  UNL     1      21.482   0.475  51.457  1.00  0.00    -0.326 OA
HETATM   20  C16 UNL     1      20.851   0.596  50.202  1.00  0.00     0.142 A 
HETATM   21  C17 UNL     1      21.258   1.280  49.148  1.00  0.00     0.027 A 
BRANCH  18  22
HETATM   22  C13 UNL     1      23.013   0.659  53.357  1.00  0.00     0.066 C 
BRANCH  22  23
HETATM   23  C14 UNL     1      21.620   0.081  53.837  1.00  0.00     0.002 C 
HETATM   24  C15 UNL     1      21.775  -1.185  54.594  1.00  0.00     0.005 C 
ENDBRANCH  22  23
ENDBRANCH  18  22
ENDBRANCH   9  11
ENDBRANCH   7   9
TORSDOF 4
ENDMDL
MODEL 5
REMARK VINA RESULT:      -7.5      2.913      5.108
REMARK  4 active torsions:
REMARK  status: ('A' for Active; 'I' for Inactive)
REMARK    1  A    between atoms: C7_7  and  N1_8 
REMARK    2  A    between atoms: N1_8  and  C8_9 
REMARK    3  A    between atoms: C12_15  and  C13_16 
REMARK    4  A    between atoms: C13_16  and  C14_17 
ROOT
HETATM    1  C1  UNL     1      27.259  -2.421  52.504  1.00  0.00     0.018 C 
HETATM    2  C2  UNL     1      26.747  -1.341  52.408  1.00  0.00    -0.078 C 
HETATM    3  C3  UNL     1      26.146  -0.052  52.316  1.00  0.00     0.019 A 
HETATM    4  C4  UNL     1      26.719   1.090  51.809  1.00  0.00     0.021 A 
HETATM    5  C5  UNL     1      26.127   2.313  51.730  1.00  0.00     0.004 A 
HETATM    6  C6  UNL     1      24.835   2.331  52.224  1.00  0.00     0.029 A 
HETATM    7  C7  UNL     1      24.119   1.245  52.772  1.00  0.00     0.035 A 
HETATM    8  C19 UNL     1      24.856   0.044  52.790  1.00  0.00     0.050 A 
ENDROOT
BRANCH   7   9
HETATM    9  N1  UNL     1      22.761   1.573  53.149  1.00  0.00    -0.340 N 
HETATM   10  H5  UNL     1      23.277   1.609  54.049  1.00  0.00     0.167 HD
BRANCH   9  11
HETATM   11  C8  UNL     1      21.996   1.540  51.942  1.00  0.00     0.144 A 
HETATM   12  N2  UNL     1      22.535   2.130  50.864  1.00  0.00    -0.223 NA
HETATM   13  C9  UNL     1      21.930   2.181  49.641  1.00  0.00     0.236 A 
HETATM   14  N3  UNL     1      20.743   1.581  49.621  1.00  0.00    -0.241 NA
HETATM   15  C10 UNL     1      20.155   0.977  50.659  1.00  0.00     0.074 A 
HETATM   16  C11 UNL     1      20.769   0.934  51.870  1.00  0.00     0.068 A 
HETATM   17  C18 UNL     1      19.007   0.514  50.237  1.00  0.00     0.034 A 
HETATM   18  C12 UNL     1      20.384   0.388  53.007  1.00  0.00     0.069 A 
HETATM   19  O1  UNL     1      19.180  -0.277  53.162  1.00  0.00    -0.326 OA
HETATM   20  C16 UNL     1      18.115  -0.549  52.279  1.00  0.00     0.142 A 
HETATM   21  C17 UNL     1      18.011  -0.218  51.004  1.00  0.00     0.027 A 
BRANCH  18  22
HETATM   22  C13 UNL     1      21.275   0.486  54.171  1.00  0.00     0.066 C 
BRANCH  22  23
HETATM   23  C14 UNL     1      21.272  -1.034  54.611  1.00  0.00     0.002 C 
HETATM   24  C15 UNL     1      22.572  -1.446  55.195  1.00  0.00     0.005 C 
ENDBRANCH  22  23
ENDBRANCH  18  22
ENDBRANCH   9  11
ENDBRANCH   7   9
TORSDOF 4
ENDMDL
MODEL 6
REMARK VINA RESULT:      -7.5      2.451      5.926
REMARK  4 active torsions:
REMARK  status: ('A' for Active; 'I' for Inactive)
REMARK    1  A    between atoms: C7_7  and  N1_8 
REMARK    2  A    between atoms: N1_8  and  C8_9 
REMARK    3  A    between atoms: C12_15  and  C13_16 
REMARK    4  A    between atoms: C13_16  and  C14_17 
ROOT
HETATM    1  C1  UNL     1      27.846   7.087  47.851  1.00  0.00     0.018 C 
HETATM    2  C2  UNL     1      26.968   6.686  48.563  1.00  0.00    -0.078 C 
HETATM    3  C3  UNL     1      25.941   6.204  49.426  1.00  0.00     0.019 A 
HETATM    4  C4  UNL     1      25.226   6.936  50.344  1.00  0.00     0.021 A 
HETATM    5  C5  UNL     1      24.248   6.456  51.159  1.00  0.00     0.004 A 
HETATM    6  C6  UNL     1      24.008   5.104  50.992  1.00  0.00     0.029 A 
HETATM    7  C7  UNL     1      24.658   4.229  50.095  1.00  0.00     0.035 A 
HETATM    8  C19 UNL     1      25.646   4.863  49.317  1.00  0.00     0.050 A 
ENDROOT
BRANCH   7   9
HETATM    9  N1  UNL     1      24.138   2.878  50.118  1.00  0.00    -0.340 N 
HETATM   10  H5  UNL     1      23.645   3.313  49.316  1.00  0.00     0.167 HD
BRANCH   9  11
HETATM   11  C8  UNL     1      24.786   2.224  51.211  1.00  0.00     0.144 A 
HETATM   12  N2  UNL     1      26.061   2.567  51.456  1.00  0.00    -0.223 NA
HETATM   13  C9  UNL     1      26.813   2.033  52.464  1.00  0.00     0.236 A 
HETATM   14  N3  UNL     1      26.153   1.131  53.186  1.00  0.00    -0.241 NA
HETATM   15  C10 UNL     1      24.887   0.749  52.992  1.00  0.00     0.074 A 
HETATM   16  C11 UNL     1      24.150   1.289  51.985  1.00  0.00     0.068 A 
HETATM   17  C18 UNL     1      24.609  -0.147  53.903  1.00  0.00     0.034 A 
HETATM   18  C12 UNL     1      22.900   1.073  51.628  1.00  0.00     0.069 A 
HETATM   19  O1  UNL     1      22.069   0.171  52.271  1.00  0.00    -0.326 OA
HETATM   20  C16 UNL     1      22.262  -0.694  53.367  1.00  0.00     0.142 A 
HETATM   21  C17 UNL     1      23.352  -0.855  54.095  1.00  0.00     0.027 A 
BRANCH  18  22
HETATM   22  C13 UNL     1      22.354   1.824  50.489  1.00  0.00     0.066 C 
BRANCH  22  23
HETATM   23  C14 UNL     1      21.347   0.735  49.936  1.00  0.00     0.002 C 
HETATM   24  C15 UNL     1      20.024   1.318  49.608  1.00  0.00     0.005 C 
ENDBRANCH  22  23
ENDBRANCH  18  22
ENDBRANCH   9  11
ENDBRANCH   7   9
TORSDOF 4
ENDMDL
MODEL 7
REMARK VINA RESULT:      -7.4      2.672      6.074
REMARK  4 active torsions:
REMARK  status: ('A' for Active; 'I' for Inactive)
REMARK    1  A    between atoms: C7_7  and  N1_8 
REMARK    2  A    between atoms: N1_8  and  C8_9 
REMARK    3  A    between atoms: C12_15  and  C13_16 
REMARK    4  A    between atoms: C13_16  and  C14_17 
ROOT
HETATM    1  C1  UNL     1      24.829   6.649  47.969  1.00  0.00     0.018 C 
HETATM    2  C2  UNL     1      24.553   6.048  48.970  1.00  0.00    -0.078 C 
HETATM    3  C3  UNL     1      24.248   5.338  50.167  1.00  0.00     0.019 A 
HETATM    4  C4  UNL     1      23.728   5.863  51.327  1.00  0.00     0.021 A 
HETATM    5  C5  UNL     1      23.444   5.166  52.461  1.00  0.00     0.004 A 
HETATM    6  C6  UNL     1      23.729   3.816  52.363  1.00  0.00     0.029 A 
HETATM    7  C7  UNL     1      24.261   3.139  51.244  1.00  0.00     0.035 A 
HETATM    8  C19 UNL     1      24.506   3.985  50.145  1.00  0.00     0.050 A 
ENDROOT
BRANCH   7   9
HETATM    9  N1  UNL     1      24.391   1.710  51.436  1.00  0.00    -0.340 N 
HETATM   10  H5  UNL     1      25.372   2.029  51.321  1.00  0.00     0.167 HD
BRANCH   9  11
HETATM   11  C8  UNL     1      23.063   1.210  51.602  1.00  0.00     0.144 A 
HETATM   12  N2  UNL     1      22.148   1.604  50.703  1.00  0.00    -0.223 NA
HETATM   13  C9  UNL     1      20.839   1.213  50.725  1.00  0.00     0.236 A 
HETATM   14  N3  UNL     1      20.558   0.393  51.735  1.00  0.00    -0.241 NA
HETATM   15  C10 UNL     1      21.424  -0.034  52.659  1.00  0.00     0.074 A 
HETATM   16  C11 UNL     1      22.723   0.364  52.625  1.00  0.00     0.068 A 
HETATM   17  C18 UNL     1      20.765  -0.819  53.473  1.00  0.00     0.034 A 
HETATM   18  C12 UNL     1      23.733   0.059  53.414  1.00  0.00     0.069 A 
HETATM   19  O1  UNL     1      23.618  -0.781  54.509  1.00  0.00    -0.326 OA
HETATM   20  C16 UNL     1      22.531  -1.486  55.064  1.00  0.00     0.142 A 
HETATM   21  C17 UNL     1      21.281  -1.522  54.637  1.00  0.00     0.027 A 
BRANCH  18  22
HETATM   22  C13 UNL     1      25.053   0.636  53.121  1.00  0.00     0.066 C 
BRANCH  22  23
HETATM   23  C14 UNL     1      25.950  -0.628  53.445  1.00  0.00     0.002 C 
HETATM   24  C15 UNL     1      27.001  -0.839  52.421  1.00  0.00     0.005 C 
ENDBRANCH  22  23
ENDBRANCH  18  22
ENDBRANCH   9  11
ENDBRANCH   7   9
TORSDOF 4
ENDMDL
MODEL 8
REMARK VINA RESULT:      -7.4      2.169      7.076
REMARK  4 active torsions:
REMARK  status: ('A' for Active; 'I' for Inactive)
REMARK    1  A    between atoms: C7_7  and  N1_8 
REMARK    2  A    between atoms: N1_8  and  C8_9 
REMARK    3  A    between atoms: C12_15  and  C13_16 
REMARK    4  A    between atoms: C13_16  and  C14_17 
ROOT
HETATM    1  C1  UNL     1      21.908   3.631  45.998  1.00  0.00     0.018 C 
HETATM    2  C2  UNL     1      21.900   3.639  47.197  1.00  0.00    -0.078 C 
HETATM    3  C3  UNL     1      21.911   3.661  48.622  1.00  0.00     0.019 A 
HETATM    4  C4  UNL     1      21.293   4.581  49.436  1.00  0.00     0.021 A 
HETATM    5  C5  UNL     1      21.316   4.584  50.797  1.00  0.00     0.004 A 
HETATM    6  C6  UNL     1      22.044   3.540  51.337  1.00  0.00     0.029 A 
HETATM    7  C7  UNL     1      22.728   2.526  50.632  1.00  0.00     0.035 A 
HETATM    8  C19 UNL     1      22.618   2.649  49.234  1.00  0.00     0.050 A 
ENDROOT
BRANCH   7   9
HETATM    9  N1  UNL     1      23.351   1.539  51.488  1.00  0.00    -0.340 N 
HETATM   10  H5  UNL     1      22.356   1.247  51.467  1.00  0.00     0.167 HD
BRANCH   9  11
HETATM   11  C8  UNL     1      24.735   1.891  51.557  1.00  0.00     0.144 A 
HETATM   12  N2  UNL     1      25.195   2.732  50.617  1.00  0.00    -0.223 NA
HETATM   13  C9  UNL     1      26.490   3.163  50.548  1.00  0.00     0.236 A 
HETATM   14  N3  UNL     1      27.257   2.664  51.515  1.00  0.00    -0.241 NA
HETATM   15  C10 UNL     1      26.857   1.826  52.476  1.00  0.00     0.074 A 
HETATM   16  C11 UNL     1      25.566   1.406  52.532  1.00  0.00     0.068 A 
HETATM   17  C18 UNL     1      27.899   1.571  53.225  1.00  0.00     0.034 A 
HETATM   18  C12 UNL     1      24.962   0.605  53.387  1.00  0.00     0.069 A 
HETATM   19  O1  UNL     1      25.608   0.002  54.453  1.00  0.00    -0.326 OA
HETATM   20  C16 UNL     1      26.942   0.040  54.908  1.00  0.00     0.142 A 
HETATM   21  C17 UNL     1      27.958   0.710  54.397  1.00  0.00     0.027 A 
BRANCH  18  22
HETATM   22  C13 UNL     1      23.528   0.336  53.207  1.00  0.00     0.066 C 
BRANCH  22  23
HETATM   23  C14 UNL     1      23.361  -0.823  54.272  1.00  0.00     0.002 C 
HETATM   24  C15 UNL     1      21.988  -0.868  54.832  1.00  0.00     0.005 C 
ENDBRANCH  22  23
ENDBRANCH  18  22
ENDBRANCH   9  11
ENDBRANCH   7   9
TORSDOF 4
ENDMDL
MODEL 9
REMARK VINA RESULT:      -7.4      2.306      5.887
REMARK  4 active torsions:
REMARK  status: ('A' for Active; 'I' for Inactive)
REMARK    1  A    between atoms: C7_7  and  N1_8 
REMARK    2  A    between atoms: N1_8  and  C8_9 
REMARK    3  A    between atoms: C12_15  and  C13_16 
REMARK    4  A    between atoms: C13_16  and  C14_17 
ROOT
HETATM    1  C1  UNL     1      24.979   8.931  48.368  1.00  0.00     0.018 C 
HETATM    2  C2  UNL     1      25.453   7.858  48.619  1.00  0.00    -0.078 C 
HETATM    3  C3  UNL     1      26.002   6.572  48.899  1.00  0.00     0.019 A 
HETATM    4  C4  UNL     1      27.139   6.025  48.352  1.00  0.00     0.021 A 
HETATM    5  C5  UNL     1      27.647   4.794  48.633  1.00  0.00     0.004 A 
HETATM    6  C6  UNL     1      26.900   4.091  49.560  1.00  0.00     0.029 A 
HETATM    7  C7  UNL     1      25.719   4.520  50.203  1.00  0.00     0.035 A 
HETATM    8  C19 UNL     1      25.311   5.811  49.816  1.00  0.00     0.050 A 
ENDROOT
BRANCH   7   9
HETATM    9  N1  UNL     1      25.204   3.572  51.169  1.00  0.00    -0.340 N 
HETATM   10  H5  UNL     1      25.998   4.018  51.668  1.00  0.00     0.167 HD
BRANCH   9  11
HETATM   11  C8  UNL     1      24.100   2.923  50.536  1.00  0.00     0.144 A 
HETATM   12  N2  UNL     1      23.835   3.272  49.267  1.00  0.00    -0.223 NA
HETATM   13  C9  UNL     1      22.817   2.741  48.528  1.00  0.00     0.236 A 
HETATM   14  N3  UNL     1      22.107   1.833  49.194  1.00  0.00    -0.241 NA
HETATM   15  C10 UNL     1      22.322   1.444  50.455  1.00  0.00     0.074 A 
HETATM   16  C11 UNL     1      23.339   1.982  51.178  1.00  0.00     0.068 A 
HETATM   17  C18 UNL     1      21.417   0.544  50.741  1.00  0.00     0.034 A 
HETATM   18  C12 UNL     1      23.734   1.739  52.412  1.00  0.00     0.069 A 
HETATM   19  O1  UNL     1      23.111   0.824  53.245  1.00  0.00    -0.326 OA
HETATM   20  C16 UNL     1      22.001  -0.028  53.070  1.00  0.00     0.142 A 
HETATM   21  C17 UNL     1      21.246  -0.172  51.997  1.00  0.00     0.027 A 
BRANCH  18  22
HETATM   22  C13 UNL     1      24.894   2.472  52.937  1.00  0.00     0.066 C 
BRANCH  22  23
HETATM   23  C14 UNL     1      25.650   1.268  53.634  1.00  0.00     0.002 C 
HETATM   24  C15 UNL     1      26.661   0.654  52.740  1.00  0.00     0.005 C 
ENDBRANCH  22  23
ENDBRANCH  18  22
ENDBRANCH   9  11
ENDBRANCH   7   9
TORSDOF 4
ENDMDL
