MODEL 1
REMARK VINA RESULT:      -8.9      0.000      0.000
REMARK  2 active torsions:
REMARK  status: ('A' for Active; 'I' for Inactive)
REMARK    1  A    between atoms: C8_11  and  N3_12 
REMARK    2  A    between atoms: N3_12  and  C9_13 
ROOT
HETATM    1  O1  UNL     1      26.412   1.052  55.329  1.00  0.00    -0.269 OA
HETATM    2  C1  UNL     1      26.876  -0.055  54.886  1.00  0.00     0.242 C 
HETATM    3  C2  UNL     1      28.218  -0.149  54.371  1.00  0.00     0.086 C 
HETATM    4  C3  UNL     1      28.299  -0.683  53.192  1.00  0.00    -0.020 C 
HETATM    5  C4  UNL     1      27.316  -0.519  52.363  1.00  0.00     0.015 C 
HETATM    6  C5  UNL     1      26.017  -0.015  52.472  1.00  0.00     0.033 C 
HETATM    7  C6  UNL     1      24.743   0.360  52.700  1.00  0.00     0.072 A 
HETATM    8  N1  UNL     1      24.789   1.249  51.716  1.00  0.00    -0.241 NA
HETATM    9  C7  UNL     1      23.724   2.006  51.394  1.00  0.00     0.236 A 
HETATM   10  N2  UNL     1      22.620   1.804  52.126  1.00  0.00    -0.224 NA
HETATM   11  C8  UNL     1      22.624   0.896  53.112  1.00  0.00     0.141 A 
HETATM   12  C15 UNL     1      23.667   0.094  53.499  1.00  0.00     0.036 A 
HETATM   13  C16 UNL     1      23.354  -0.545  54.617  1.00  0.00     0.010 C 
HETATM   14  C17 UNL     1      24.383  -1.305  55.480  1.00  0.00     0.151 C 
HETATM   15  N4  UNL     1      25.653  -0.675  55.176  1.00  0.00    -0.354 N 
HETATM   16  H13 UNL     1      26.253  -1.534  54.943  1.00  0.00     0.163 HD
ENDROOT
BRANCH  11  17
HETATM   17  N3  UNL     1      21.330   0.861  53.746  1.00  0.00    -0.340 N 
HETATM   18  H5  UNL     1      20.909   1.145  54.677  1.00  0.00     0.167 HD
BRANCH  17  19
HETATM   19  C9  UNL     1      20.193   0.334  53.116  1.00  0.00     0.035 A 
HETATM   20  C10 UNL     1      19.659   0.990  52.016  1.00  0.00     0.029 A 
HETATM   21  C11 UNL     1      18.524   0.535  51.370  1.00  0.00     0.004 A 
HETATM   22  C12 UNL     1      17.852  -0.605  51.783  1.00  0.00     0.019 A 
HETATM   23  C13 UNL     1      18.341  -1.295  52.869  1.00  0.00     0.013 A 
HETATM   24 BR1  UNL     1      17.565  -2.891  53.605  1.00  0.00    -0.051 Br
HETATM   25  C14 UNL     1      19.469  -0.801  53.475  1.00  0.00     0.048 A 
ENDBRANCH  17  19
ENDBRANCH  11  17
TORSDOF 2
ENDMDL
MODEL 2
REMARK VINA RESULT:      -8.3      4.495      7.333
REMARK  2 active torsions:
REMARK  status: ('A' for Active; 'I' for Inactive)
REMARK    1  A    between atoms: C8_11  and  N3_12 
REMARK    2  A    between atoms: N3_12  and  C9_13 
ROOT
HETATM    1  O1  UNL     1      20.068   1.438  52.781  1.00  0.00    -0.269 OA
HETATM    2  C1  UNL     1      20.372   0.199  52.688  1.00  0.00     0.242 C 
HETATM    3  C2  UNL     1      20.225  -0.693  53.809  1.00  0.00     0.086 C 
HETATM    4  C3  UNL     1      21.290  -1.381  54.085  1.00  0.00    -0.020 C 
HETATM    5  C4  UNL     1      22.451  -0.858  53.843  1.00  0.00     0.015 C 
HETATM    6  C5  UNL     1      22.890   0.277  53.157  1.00  0.00     0.033 C 
HETATM    7  C6  UNL     1      23.228   1.314  52.365  1.00  0.00     0.072 A 
HETATM    8  N1  UNL     1      23.974   1.851  53.322  1.00  0.00    -0.241 NA
HETATM    9  C7  UNL     1      24.659   2.994  53.130  1.00  0.00     0.236 A 
HETATM   10  N2  UNL     1      24.539   3.551  51.917  1.00  0.00    -0.224 NA
HETATM   11  C8  UNL     1      23.770   2.972  50.985  1.00  0.00     0.141 A 
HETATM   12  C15 UNL     1      23.044   1.815  51.107  1.00  0.00     0.036 A 
HETATM   13  C16 UNL     1      22.272   1.652  50.042  1.00  0.00     0.010 C 
HETATM   14  C17 UNL     1      21.127   0.620  49.969  1.00  0.00     0.151 C 
HETATM   15  N4  UNL     1      20.745   0.399  51.351  1.00  0.00    -0.354 N 
HETATM   16  H13 UNL     1      20.774  -0.672  51.400  1.00  0.00     0.163 HD
ENDROOT
BRANCH  11  17
HETATM   17  N3  UNL     1      23.804   3.752  49.773  1.00  0.00    -0.340 N 
HETATM   18  H5  UNL     1      23.140   3.999  48.985  1.00  0.00     0.167 HD
BRANCH  17  19
HETATM   19  C9  UNL     1      24.950   4.442  49.350  1.00  0.00     0.035 A 
HETATM   20  C10 UNL     1      26.169   3.779  49.314  1.00  0.00     0.029 A 
HETATM   21  C11 UNL     1      27.338   4.412  48.933  1.00  0.00     0.004 A 
HETATM   22  C12 UNL     1      27.362   5.748  48.563  1.00  0.00     0.019 A 
HETATM   23  C13 UNL     1      26.179   6.452  48.581  1.00  0.00     0.013 A 
HETATM   24 BR1  UNL     1      25.990   8.305  48.111  1.00  0.00    -0.051 Br
HETATM   25  C14 UNL     1      25.048   5.778  48.967  1.00  0.00     0.048 A 
ENDBRANCH  17  19
ENDBRANCH  11  17
TORSDOF 2
ENDMDL
MODEL 3
REMARK VINA RESULT:      -8.1      4.973      7.528
REMARK  2 active torsions:
REMARK  status: ('A' for Active; 'I' for Inactive)
REMARK    1  A    between atoms: C8_11  and  N3_12 
REMARK    2  A    between atoms: N3_12  and  C9_13 
ROOT
HETATM    1  O1  UNL     1      25.160   0.856  52.152  1.00  0.00    -0.269 OA
HETATM    2  C1  UNL     1      24.152   0.733  52.930  1.00  0.00     0.242 C 
HETATM    3  C2  UNL     1      23.594  -0.561  53.230  1.00  0.00     0.086 C 
HETATM    4  C3  UNL     1      22.314  -0.646  53.037  1.00  0.00    -0.020 C 
HETATM    5  C4  UNL     1      21.775   0.071  52.101  1.00  0.00     0.015 C 
HETATM    6  C5  UNL     1      22.220   1.117  51.289  1.00  0.00     0.033 C 
HETATM    7  C6  UNL     1      22.693   2.205  50.648  1.00  0.00     0.072 A 
HETATM    8  N1  UNL     1      22.367   1.695  49.466  1.00  0.00    -0.241 NA
HETATM    9  C7  UNL     1      22.581   2.368  48.321  1.00  0.00     0.236 A 
HETATM   10  N2  UNL     1      23.141   3.579  48.450  1.00  0.00    -0.224 NA
HETATM   11  C8  UNL     1      23.455   4.048  49.665  1.00  0.00     0.141 A 
HETATM   12  C15 UNL     1      23.271   3.422  50.871  1.00  0.00     0.036 A 
HETATM   13  C16 UNL     1      23.862   4.114  51.834  1.00  0.00     0.010 C 
HETATM   14  C17 UNL     1      24.097   3.565  53.258  1.00  0.00     0.151 C 
HETATM   15  N4  UNL     1      24.120   2.125  53.095  1.00  0.00    -0.354 N 
HETATM   16  H13 UNL     1      23.415   1.826  53.846  1.00  0.00     0.163 HD
ENDROOT
BRANCH  11  17
HETATM   17  N3  UNL     1      24.038   5.361  49.544  1.00  0.00    -0.340 N 
HETATM   18  H5  UNL     1      23.744   6.365  49.719  1.00  0.00     0.167 HD
BRANCH  17  19
HETATM   19  C9  UNL     1      25.343   5.568  49.074  1.00  0.00     0.035 A 
HETATM   20  C10 UNL     1      26.283   4.557  49.209  1.00  0.00     0.029 A 
HETATM   21  C11 UNL     1      27.593   4.711  48.791  1.00  0.00     0.004 A 
HETATM   22  C12 UNL     1      28.044   5.886  48.210  1.00  0.00     0.019 A 
HETATM   23  C13 UNL     1      27.150   6.922  48.051  1.00  0.00     0.013 A 
HETATM   24 BR1  UNL     1      27.565   8.630  47.276  1.00  0.00    -0.051 Br
HETATM   25  C14 UNL     1      25.864   6.718  48.484  1.00  0.00     0.048 A 
ENDBRANCH  17  19
ENDBRANCH  11  17
TORSDOF 2
ENDMDL
MODEL 4
REMARK VINA RESULT:      -8.0      2.081      3.074
REMARK  2 active torsions:
REMARK  status: ('A' for Active; 'I' for Inactive)
REMARK    1  A    between atoms: C8_11  and  N3_12 
REMARK    2  A    between atoms: N3_12  and  C9_13 
ROOT
HETATM    1  O1  UNL     1      26.889  -0.554  51.656  1.00  0.00    -0.269 OA
HETATM    2  C1  UNL     1      27.326   0.254  52.545  1.00  0.00     0.242 C 
HETATM    3  C2  UNL     1      28.202  -0.196  53.597  1.00  0.00     0.086 C 
HETATM    4  C3  UNL     1      27.809   0.128  54.791  1.00  0.00    -0.020 C 
HETATM    5  C4  UNL     1      26.537   0.222  55.025  1.00  0.00     0.015 C 
HETATM    6  C5  UNL     1      25.392   0.227  54.226  1.00  0.00     0.033 C 
HETATM    7  C6  UNL     1      24.358   0.357  53.370  1.00  0.00     0.072 A 
HETATM    8  N1  UNL     1      23.680  -0.604  53.985  1.00  0.00    -0.241 NA
HETATM    9  C7  UNL     1      22.447  -0.969  53.586  1.00  0.00     0.236 A 
HETATM   10  N2  UNL     1      21.952  -0.302  52.534  1.00  0.00    -0.224 NA
HETATM   11  C8  UNL     1      22.677   0.658  51.945  1.00  0.00     0.141 A 
HETATM   12  C15 UNL     1      23.935   1.081  52.291  1.00  0.00     0.036 A 
HETATM   13  C16 UNL     1      24.398   1.920  51.376  1.00  0.00     0.010 C 
HETATM   14  C17 UNL     1      25.873   2.367  51.297  1.00  0.00     0.151 C 
HETATM   15  N4  UNL     1      26.614   1.297  51.936  1.00  0.00    -0.354 N 
HETATM   16  H13 UNL     1      27.207   1.853  52.636  1.00  0.00     0.163 HD
ENDROOT
BRANCH  11  17
HETATM   17  N3  UNL     1      21.934   1.225  50.847  1.00  0.00    -0.340 N 
HETATM   18  H5  UNL     1      22.122   1.513  49.844  1.00  0.00     0.167 HD
BRANCH  17  19
HETATM   19  C9  UNL     1      20.577   1.564  50.949  1.00  0.00     0.035 A 
HETATM   20  C10 UNL     1      20.217   2.757  51.560  1.00  0.00     0.029 A 
HETATM   21  C11 UNL     1      18.895   3.133  51.715  1.00  0.00     0.004 A 
HETATM   22  C12 UNL     1      17.850   2.339  51.267  1.00  0.00     0.019 A 
HETATM   23  C13 UNL     1      18.152   1.145  50.653  1.00  0.00     0.013 A 
HETATM   24 BR1  UNL     1      16.862  -0.101  49.964  1.00  0.00    -0.051 Br
HETATM   25  C14 UNL     1      19.479   0.818  50.524  1.00  0.00     0.048 A 
ENDBRANCH  17  19
ENDBRANCH  11  17
TORSDOF 2
ENDMDL
MODEL 5
REMARK VINA RESULT:      -7.8      3.508      7.242
REMARK  2 active torsions:
REMARK  status: ('A' for Active; 'I' for Inactive)
REMARK    1  A    between atoms: C8_11  and  N3_12 
REMARK    2  A    between atoms: N3_12  and  C9_13 
ROOT
HETATM    1  O1  UNL     1      20.607   0.417  50.727  1.00  0.00    -0.269 OA
HETATM    2  C1  UNL     1      20.031   1.132  51.618  1.00  0.00     0.242 C 
HETATM    3  C2  UNL     1      19.170   2.228  51.253  1.00  0.00     0.086 C 
HETATM    4  C3  UNL     1      19.463   3.351  51.833  1.00  0.00    -0.020 C 
HETATM    5  C4  UNL     1      20.701   3.594  52.133  1.00  0.00     0.015 C 
HETATM    6  C5  UNL     1      21.873   2.834  52.145  1.00  0.00     0.033 C 
HETATM    7  C6  UNL     1      22.921   1.993  52.254  1.00  0.00     0.072 A 
HETATM    8  N1  UNL     1      23.684   2.790  51.515  1.00  0.00    -0.241 NA
HETATM    9  C7  UNL     1      24.970   2.493  51.249  1.00  0.00     0.236 A 
HETATM   10  N2  UNL     1      25.427   1.349  51.776  1.00  0.00    -0.224 NA
HETATM   11  C8  UNL     1      24.616   0.577  52.513  1.00  0.00     0.141 A 
HETATM   12  C15 UNL     1      23.300   0.811  52.822  1.00  0.00     0.036 A 
HETATM   13  C16 UNL     1      22.781  -0.253  53.416  1.00  0.00     0.010 C 
HETATM   14  C17 UNL     1      21.266  -0.448  53.645  1.00  0.00     0.151 C 
HETATM   15  N4  UNL     1      20.635   0.359  52.619  1.00  0.00    -0.354 N 
HETATM   16  H13 UNL     1      19.945   0.931  53.209  1.00  0.00     0.163 HD
ENDROOT
BRANCH  11  17
HETATM   17  N3  UNL     1      25.333  -0.588  52.966  1.00  0.00    -0.340 N 
HETATM   18  H5  UNL     1      25.106  -1.587  53.241  1.00  0.00     0.167 HD
BRANCH  17  19
HETATM   19  C9  UNL     1      26.722  -0.591  53.167  1.00  0.00     0.035 A 
HETATM   20  C10 UNL     1      27.445  -1.745  52.905  1.00  0.00     0.029 A 
HETATM   21  C11 UNL     1      28.811  -1.818  53.109  1.00  0.00     0.004 A 
HETATM   22  C12 UNL     1      29.539  -0.741  53.589  1.00  0.00     0.019 A 
HETATM   23  C13 UNL     1      28.869   0.430  53.865  1.00  0.00     0.013 A 
HETATM   24 BR1  UNL     1      29.682   2.036  54.537  1.00  0.00    -0.051 Br
HETATM   25  C14 UNL     1      27.515   0.450  53.646  1.00  0.00     0.048 A 
ENDBRANCH  17  19
ENDBRANCH  11  17
TORSDOF 2
ENDMDL
MODEL 6
REMARK VINA RESULT:      -7.8      3.749      4.924
REMARK  2 active torsions:
REMARK  status: ('A' for Active; 'I' for Inactive)
REMARK    1  A    between atoms: C8_11  and  N3_12 
REMARK    2  A    between atoms: N3_12  and  C9_13 
ROOT
HETATM    1  O1  UNL     1      23.349   6.370  50.152  1.00  0.00    -0.269 OA
HETATM    2  C1  UNL     1      24.577   6.109  50.398  1.00  0.00     0.242 C 
HETATM    3  C2  UNL     1      25.615   6.453  49.461  1.00  0.00     0.086 C 
HETATM    4  C3  UNL     1      26.405   5.469  49.157  1.00  0.00    -0.020 C 
HETATM    5  C4  UNL     1      25.927   4.263  49.155  1.00  0.00     0.015 C 
HETATM    6  C5  UNL     1      24.732   3.683  49.587  1.00  0.00     0.033 C 
HETATM    7  C6  UNL     1      23.612   3.192  50.153  1.00  0.00     0.072 A 
HETATM    8  N1  UNL     1      23.274   2.567  49.031  1.00  0.00    -0.241 NA
HETATM    9  C7  UNL     1      22.162   1.814  48.946  1.00  0.00     0.236 A 
HETATM   10  N2  UNL     1      21.423   1.735  50.061  1.00  0.00    -0.224 NA
HETATM   11  C8  UNL     1      21.804   2.387  51.168  1.00  0.00     0.141 A 
HETATM   12  C15 UNL     1      22.916   3.172  51.329  1.00  0.00     0.036 A 
HETATM   13  C16 UNL     1      22.868   3.790  52.500  1.00  0.00     0.010 C 
HETATM   14  C17 UNL     1      23.801   4.956  52.889  1.00  0.00     0.151 C 
HETATM   15  N4  UNL     1      24.202   5.541  51.624  1.00  0.00    -0.354 N 
HETATM   16  H13 UNL     1      25.268   5.564  51.741  1.00  0.00     0.163 HD
ENDROOT
BRANCH  11  17
HETATM   17  N3  UNL     1      20.854   2.147  52.225  1.00  0.00    -0.340 N 
HETATM   18  H5  UNL     1      20.095   2.688  52.730  1.00  0.00     0.167 HD
BRANCH  17  19
HETATM   19  C9  UNL     1      20.767   0.919  52.898  1.00  0.00     0.035 A 
HETATM   20  C10 UNL     1      21.876   0.435  53.577  1.00  0.00     0.029 A 
HETATM   21  C11 UNL     1      21.861  -0.781  54.236  1.00  0.00     0.004 A 
HETATM   22  C12 UNL     1      20.734  -1.589  54.258  1.00  0.00     0.019 A 
HETATM   23  C13 UNL     1      19.606  -1.155  53.600  1.00  0.00     0.013 A 
HETATM   24 BR1  UNL     1      17.946  -2.117  53.502  1.00  0.00    -0.051 Br
HETATM   25  C14 UNL     1      19.673   0.058  52.961  1.00  0.00     0.048 A 
ENDBRANCH  17  19
ENDBRANCH  11  17
TORSDOF 2
ENDMDL
MODEL 7
REMARK VINA RESULT:      -7.7     11.313     13.498
REMARK  2 active torsions:
REMARK  status: ('A' for Active; 'I' for Inactive)
REMARK    1  A    between atoms: C8_11  and  N3_12 
REMARK    2  A    between atoms: N3_12  and  C9_13 
ROOT
HETATM    1  O1  UNL     1      33.955   5.882  45.734  1.00  0.00    -0.269 OA
HETATM    2  C1  UNL     1      34.513   4.953  46.414  1.00  0.00     0.242 C 
HETATM    3  C2  UNL     1      34.635   3.616  45.892  1.00  0.00     0.086 C 
HETATM    4  C3  UNL     1      34.191   2.692  46.688  1.00  0.00    -0.020 C 
HETATM    5  C4  UNL     1      33.204   2.972  47.480  1.00  0.00     0.015 C 
HETATM    6  C5  UNL     1      32.547   4.148  47.849  1.00  0.00     0.033 C 
HETATM    7  C6  UNL     1      32.065   5.343  48.246  1.00  0.00     0.072 A 
HETATM    8  N1  UNL     1      30.819   4.969  47.983  1.00  0.00    -0.241 NA
HETATM    9  C7  UNL     1      29.771   5.784  48.206  1.00  0.00     0.236 A 
HETATM   10  N2  UNL     1      30.067   6.990  48.711  1.00  0.00    -0.224 NA
HETATM   11  C8  UNL     1      31.341   7.323  48.957  1.00  0.00     0.141 A 
HETATM   12  C15 UNL     1      32.456   6.550  48.752  1.00  0.00     0.036 A 
HETATM   13  C16 UNL     1      33.549   7.274  48.944  1.00  0.00     0.010 C 
HETATM   14  C17 UNL     1      34.962   6.811  48.530  1.00  0.00     0.151 C 
HETATM   15  N4  UNL     1      34.737   5.862  47.458  1.00  0.00    -0.354 N 
HETATM   16  H13 UNL     1      35.320   5.029  47.800  1.00  0.00     0.163 HD
ENDROOT
BRANCH  11  17
HETATM   17  N3  UNL     1      31.401   8.659  49.493  1.00  0.00    -0.340 N 
HETATM   18  H5  UNL     1      31.634   9.118  50.420  1.00  0.00     0.167 HD
BRANCH  17  19
HETATM   19  C9  UNL     1      31.093   9.795  48.730  1.00  0.00     0.035 A 
HETATM   20  C10 UNL     1      31.855  10.088  47.608  1.00  0.00     0.029 A 
HETATM   21  C11 UNL     1      31.617  11.208  46.832  1.00  0.00     0.004 A 
HETATM   22  C12 UNL     1      30.602  12.104  47.129  1.00  0.00     0.019 A 
HETATM   23  C13 UNL     1      29.816  11.859  48.232  1.00  0.00     0.013 A 
HETATM   24 BR1  UNL     1      28.363  12.970  48.821  1.00  0.00    -0.051 Br
HETATM   25  C14 UNL     1      30.093  10.735  48.969  1.00  0.00     0.048 A 
ENDBRANCH  17  19
ENDBRANCH  11  17
TORSDOF 2
ENDMDL
MODEL 8
REMARK VINA RESULT:      -7.6      3.916      5.821
REMARK  2 active torsions:
REMARK  status: ('A' for Active; 'I' for Inactive)
REMARK    1  A    between atoms: C8_11  and  N3_12 
REMARK    2  A    between atoms: N3_12  and  C9_13 
ROOT
HETATM    1  O1  UNL     1      22.906   6.972  50.652  1.00  0.00    -0.269 OA
HETATM    2  C1  UNL     1      24.169   6.972  50.855  1.00  0.00     0.242 C 
HETATM    3  C2  UNL     1      25.066   7.675  49.974  1.00  0.00     0.086 C 
HETATM    4  C3  UNL     1      26.049   6.954  49.530  1.00  0.00    -0.020 C 
HETATM    5  C4  UNL     1      25.862   5.683  49.356  1.00  0.00     0.015 C 
HETATM    6  C5  UNL     1      24.849   4.786  49.704  1.00  0.00     0.033 C 
HETATM    7  C6  UNL     1      23.892   3.973  50.197  1.00  0.00     0.072 A 
HETATM    8  N1  UNL     1      23.668   3.450  48.998  1.00  0.00    -0.241 NA
HETATM    9  C7  UNL     1      22.756   2.478  48.808  1.00  0.00     0.236 A 
HETATM   10  N2  UNL     1      22.096   2.075  49.902  1.00  0.00    -0.224 NA
HETATM   11  C8  UNL     1      22.356   2.637  51.091  1.00  0.00     0.141 A 
HETATM   12  C15 UNL     1      23.263   3.630  51.359  1.00  0.00     0.036 A 
HETATM   13  C16 UNL     1      23.115   4.050  52.607  1.00  0.00     0.010 C 
HETATM   14  C17 UNL     1      23.769   5.336  53.157  1.00  0.00     0.151 C 
HETATM   15  N4  UNL     1      23.979   6.168  51.988  1.00  0.00    -0.354 N 
HETATM   16  H13 UNL     1      25.014   6.422  52.104  1.00  0.00     0.163 HD
ENDROOT
BRANCH  11  17
HETATM   17  N3  UNL     1      21.525   2.038  52.105  1.00  0.00    -0.340 N 
HETATM   18  H5  UNL     1      20.541   2.158  52.479  1.00  0.00     0.167 HD
BRANCH  17  19
HETATM   19  C9  UNL     1      21.975   0.998  52.933  1.00  0.00     0.035 A 
HETATM   20  C10 UNL     1      21.066   0.332  53.742  1.00  0.00     0.029 A 
HETATM   21  C11 UNL     1      21.452  -0.682  54.600  1.00  0.00     0.004 A 
HETATM   22  C12 UNL     1      22.772  -1.094  54.701  1.00  0.00     0.019 A 
HETATM   23  C13 UNL     1      23.715  -0.465  53.919  1.00  0.00     0.013 A 
HETATM   24 BR1  UNL     1      25.591  -0.876  53.906  1.00  0.00    -0.051 Br
HETATM   25  C14 UNL     1      23.280   0.535  53.086  1.00  0.00     0.048 A 
ENDBRANCH  17  19
ENDBRANCH  11  17
TORSDOF 2
ENDMDL
MODEL 9
REMARK VINA RESULT:      -7.6      4.161      7.103
REMARK  2 active torsions:
REMARK  status: ('A' for Active; 'I' for Inactive)
REMARK    1  A    between atoms: C8_11  and  N3_12 
REMARK    2  A    between atoms: N3_12  and  C9_13 
ROOT
HETATM    1  O1  UNL     1      26.195   7.230  49.738  1.00  0.00    -0.269 OA
HETATM    2  C1  UNL     1      25.870   6.909  48.543  1.00  0.00     0.242 C 
HETATM    3  C2  UNL     1      25.061   7.780  47.730  1.00  0.00     0.086 C 
HETATM    4  C3  UNL     1      24.024   7.204  47.202  1.00  0.00    -0.020 C 
HETATM    5  C4  UNL     1      23.455   6.233  47.846  1.00  0.00     0.015 C 
HETATM    6  C5  UNL     1      23.790   5.475  48.970  1.00  0.00     0.033 C 
HETATM    7  C6  UNL     1      24.256   4.709  49.977  1.00  0.00     0.072 A 
HETATM    8  N1  UNL     1      23.141   4.882  50.675  1.00  0.00    -0.241 NA
HETATM    9  C7  UNL     1      22.959   4.302  51.876  1.00  0.00     0.236 A 
HETATM   10  N2  UNL     1      23.970   3.543  52.318  1.00  0.00    -0.224 NA
HETATM   11  C8  UNL     1      25.079   3.402  51.578  1.00  0.00     0.141 A 
HETATM   12  C15 UNL     1      25.336   3.962  50.352  1.00  0.00     0.036 A 
HETATM   13  C16 UNL     1      26.598   3.742  50.012  1.00  0.00     0.010 C 
HETATM   14  C17 UNL     1      27.303   4.461  48.842  1.00  0.00     0.151 C 
HETATM   15  N4  UNL     1      26.573   5.704  48.684  1.00  0.00    -0.354 N 
HETATM   16  H13 UNL     1      26.365   5.683  47.632  1.00  0.00     0.163 HD
ENDROOT
BRANCH  11  17
HETATM   17  N3  UNL     1      26.014   2.543  52.259  1.00  0.00    -0.340 N 
HETATM   18  H5  UNL     1      27.066   2.459  52.361  1.00  0.00     0.167 HD
BRANCH  17  19
HETATM   19  C9  UNL     1      25.606   1.457  53.049  1.00  0.00     0.035 A 
HETATM   20  C10 UNL     1      26.460   0.970  54.028  1.00  0.00     0.029 A 
HETATM   21  C11 UNL     1      26.127  -0.114  54.820  1.00  0.00     0.004 A 
HETATM   22  C12 UNL     1      24.918  -0.779  54.682  1.00  0.00     0.019 A 
HETATM   23  C13 UNL     1      24.033  -0.335  53.724  1.00  0.00     0.013 A 
HETATM   24 BR1  UNL     1      22.312  -1.110  53.366  1.00  0.00    -0.051 Br
HETATM   25  C14 UNL     1      24.412   0.744  52.965  1.00  0.00     0.048 A 
ENDBRANCH  17  19
ENDBRANCH  11  17
TORSDOF 2
ENDMDL
