MODEL 1
REMARK VINA RESULT:      -7.3      0.000      0.000
REMARK  9 active torsions:
REMARK  status: ('A' for Active; 'I' for Inactive)
REMARK    1  A    between atoms: N1_1  and  C1_2 
REMARK    2  A    between atoms: C1_2  and  N2_4 
REMARK    3  A    between atoms: N2_4  and  C2_5 
REMARK    4  A    between atoms: C2_5  and  C3_6 
REMARK    5  A    between atoms: C2_5  and  C10_14 
REMARK    6  A    between atoms: C3_6  and  O1_7 
REMARK    7  A    between atoms: O1_7  and  C4_8 
REMARK    8  A    between atoms: C10_14  and  C11_15 
REMARK    9  A    between atoms: C16_20  and  N3_21 
ROOT
HETATM    1  C2  UNL     1      25.915   2.073  52.094  1.00  0.00     0.112 C 
ENDROOT
BRANCH   1   2
HETATM    2  N2  UNL     1      26.428   3.294  51.442  1.00  0.00    -0.360 N 
HETATM    3  H3  UNL     1      27.192   3.811  51.912  1.00  0.00     0.162 HD
BRANCH   2   4
HETATM    4  C1  UNL     1      25.792   3.586  50.253  1.00  0.00     0.165 C 
HETATM    5  S1  UNL     1      26.871   4.349  49.236  1.00  0.00    -0.041 SA
BRANCH   4   6
HETATM    6  N1  UNL     1      24.812   3.696  49.247  1.00  0.00    -0.376 N 
HETATM    7  H1  UNL     1      24.219   4.563  49.074  1.00  0.00     0.158 HD
HETATM    8  H2  UNL     1      24.563   2.914  48.565  1.00  0.00     0.158 HD
ENDBRANCH   4   6
ENDBRANCH   2   4
ENDBRANCH   1   2
BRANCH   1   9
HETATM    9  C3  UNL     1      24.462   2.397  52.369  1.00  0.00     0.201 C 
BRANCH   9  10
HETATM   10  O1  UNL     1      23.552   1.447  51.920  1.00  0.00    -0.349 OA
BRANCH  10  11
HETATM   11  C4  UNL     1      22.835   0.740  52.887  1.00  0.00     0.068 A 
HETATM   12  C5  UNL     1      21.500   0.985  53.205  1.00  0.00     0.037 A 
HETATM   13  C6  UNL     1      20.864   0.239  54.174  1.00  0.00     0.003 A 
HETATM   14  C7  UNL     1      21.556  -0.766  54.842  1.00  0.00     0.000 A 
HETATM   15  C8  UNL     1      22.860  -1.001  54.530  1.00  0.00     0.003 A 
HETATM   16  C9  UNL     1      23.524  -0.258  53.551  1.00  0.00     0.037 A 
ENDBRANCH  10  11
ENDBRANCH   9  10
ENDBRANCH   1   9
BRANCH   1  17
HETATM   17  C10 UNL     1      26.614   1.890  53.415  1.00  0.00     0.068 C 
BRANCH  17  18
HETATM   18  C11 UNL     1      27.588   0.771  53.392  1.00  0.00    -0.030 A 
HETATM   19  C12 UNL     1      27.239  -0.504  53.005  1.00  0.00     0.009 A 
HETATM   20  C13 UNL     1      28.166  -1.558  52.985  1.00  0.00     0.001 A 
HETATM   21  C14 UNL     1      29.469  -1.232  53.383  1.00  0.00     0.002 A 
HETATM   22  C15 UNL     1      29.858   0.026  53.776  1.00  0.00     0.029 A 
HETATM   23  C16 UNL     1      28.892   1.017  53.772  1.00  0.00     0.032 A 
BRANCH  23  24
HETATM   24  N3  UNL     1      29.387   2.302  54.194  1.00  0.00    -0.399 N 
HETATM   25  H18 UNL     1      28.903   3.220  54.419  1.00  0.00     0.156 HD
HETATM   26  H19 UNL     1      30.429   2.169  54.250  1.00  0.00     0.156 HD
ENDBRANCH  23  24
ENDBRANCH  17  18
ENDBRANCH   1  17
TORSDOF 9
ENDMDL
MODEL 2
REMARK VINA RESULT:      -7.2      3.272      4.314
REMARK  9 active torsions:
REMARK  status: ('A' for Active; 'I' for Inactive)
REMARK    1  A    between atoms: N1_1  and  C1_2 
REMARK    2  A    between atoms: C1_2  and  N2_4 
REMARK    3  A    between atoms: N2_4  and  C2_5 
REMARK    4  A    between atoms: C2_5  and  C3_6 
REMARK    5  A    between atoms: C2_5  and  C10_14 
REMARK    6  A    between atoms: C3_6  and  O1_7 
REMARK    7  A    between atoms: O1_7  and  C4_8 
REMARK    8  A    between atoms: C10_14  and  C11_15 
REMARK    9  A    between atoms: C16_20  and  N3_21 
ROOT
HETATM    1  C2  UNL     1      24.932   0.970  53.310  1.00  0.00     0.112 C 
ENDROOT
BRANCH   1   2
HETATM    2  N2  UNL     1      24.164  -0.288  53.389  1.00  0.00    -0.360 N 
HETATM    3  H3  UNL     1      23.649  -0.597  52.546  1.00  0.00     0.162 HD
BRANCH   2   4
HETATM    4  C1  UNL     1      24.242  -0.897  54.625  1.00  0.00     0.165 C 
HETATM    5  S1  UNL     1      22.708  -1.334  55.110  1.00  0.00    -0.041 SA
BRANCH   4   6
HETATM    6  N1  UNL     1      24.743  -1.434  55.827  1.00  0.00    -0.376 N 
HETATM    7  H1  UNL     1      25.743  -1.776  55.965  1.00  0.00     0.158 HD
HETATM    8  H2  UNL     1      24.165  -1.559  56.714  1.00  0.00     0.158 HD
ENDBRANCH   4   6
ENDBRANCH   2   4
ENDBRANCH   1   2
BRANCH   1   9
HETATM    9  C3  UNL     1      23.921   1.977  52.805  1.00  0.00     0.201 C 
BRANCH   9  10
HETATM   10  O1  UNL     1      22.751   1.429  52.293  1.00  0.00    -0.349 OA
BRANCH  10  11
HETATM   11  C4  UNL     1      22.523   1.575  50.923  1.00  0.00     0.068 A 
HETATM   12  C5  UNL     1      21.577   0.845  50.205  1.00  0.00     0.037 A 
HETATM   13  C6  UNL     1      21.414   1.051  48.852  1.00  0.00     0.003 A 
HETATM   14  C7  UNL     1      22.197   1.993  48.194  1.00  0.00     0.000 A 
HETATM   15  C8  UNL     1      23.120   2.703  48.898  1.00  0.00     0.003 A 
HETATM   16  C9  UNL     1      23.303   2.511  50.270  1.00  0.00     0.037 A 
ENDBRANCH  10  11
ENDBRANCH   9  10
ENDBRANCH   1   9
BRANCH   1  17
HETATM   17  C10 UNL     1      26.008   0.823  52.267  1.00  0.00     0.068 C 
BRANCH  17  18
HETATM   18  C11 UNL     1      27.275   0.293  52.829  1.00  0.00    -0.030 A 
HETATM   19  C12 UNL     1      27.635  -1.032  52.720  1.00  0.00     0.009 A 
HETATM   20  C13 UNL     1      28.836  -1.526  53.253  1.00  0.00     0.001 A 
HETATM   21  C14 UNL     1      29.646  -0.587  53.905  1.00  0.00     0.002 A 
HETATM   22  C15 UNL     1      29.323   0.743  54.036  1.00  0.00     0.029 A 
HETATM   23  C16 UNL     1      28.124   1.161  53.486  1.00  0.00     0.032 A 
BRANCH  23  24
HETATM   24  N3  UNL     1      27.869   2.566  53.668  1.00  0.00    -0.399 N 
HETATM   25  H18 UNL     1      27.073   3.198  53.360  1.00  0.00     0.156 HD
HETATM   26  H19 UNL     1      28.696   2.908  54.221  1.00  0.00     0.156 HD
ENDBRANCH  23  24
ENDBRANCH  17  18
ENDBRANCH   1  17
TORSDOF 9
ENDMDL
MODEL 3
REMARK VINA RESULT:      -7.2      2.808      5.793
REMARK  9 active torsions:
REMARK  status: ('A' for Active; 'I' for Inactive)
REMARK    1  A    between atoms: N1_1  and  C1_2 
REMARK    2  A    between atoms: C1_2  and  N2_4 
REMARK    3  A    between atoms: N2_4  and  C2_5 
REMARK    4  A    between atoms: C2_5  and  C3_6 
REMARK    5  A    between atoms: C2_5  and  C10_14 
REMARK    6  A    between atoms: C3_6  and  O1_7 
REMARK    7  A    between atoms: O1_7  and  C4_8 
REMARK    8  A    between atoms: C10_14  and  C11_15 
REMARK    9  A    between atoms: C16_20  and  N3_21 
ROOT
HETATM    1  C2  UNL     1      26.213  -0.499  52.764  1.00  0.00     0.112 C 
ENDROOT
BRANCH   1   2
HETATM    2  N2  UNL     1      27.428  -1.167  53.272  1.00  0.00    -0.360 N 
HETATM    3  H3  UNL     1      27.572  -2.162  53.031  1.00  0.00     0.162 HD
BRANCH   2   4
HETATM    4  C1  UNL     1      28.231  -0.336  54.027  1.00  0.00     0.165 C 
HETATM    5  S1  UNL     1      29.828  -0.674  53.688  1.00  0.00    -0.041 SA
BRANCH   4   6
HETATM    6  N1  UNL     1      28.664   0.651  54.935  1.00  0.00    -0.376 N 
HETATM    7  H1  UNL     1      28.088   1.500  55.222  1.00  0.00     0.158 HD
HETATM    8  H2  UNL     1      29.616   0.647  55.415  1.00  0.00     0.158 HD
ENDBRANCH   4   6
ENDBRANCH   2   4
ENDBRANCH   1   2
BRANCH   1   9
HETATM    9  C3  UNL     1      26.753   0.637  51.923  1.00  0.00     0.201 C 
BRANCH   9  10
HETATM   10  O1  UNL     1      26.265   1.896  52.251  1.00  0.00    -0.349 OA
BRANCH  10  11
HETATM   11  C4  UNL     1      25.711   2.656  51.219  1.00  0.00     0.068 A 
HETATM   12  C5  UNL     1      24.342   2.791  50.994  1.00  0.00     0.037 A 
HETATM   13  C6  UNL     1      23.878   3.563  49.951  1.00  0.00     0.003 A 
HETATM   14  C7  UNL     1      24.778   4.215  49.116  1.00  0.00     0.000 A 
HETATM   15  C8  UNL     1      26.114   4.081  49.338  1.00  0.00     0.003 A 
HETATM   16  C9  UNL     1      26.607   3.303  50.389  1.00  0.00     0.037 A 
ENDBRANCH  10  11
ENDBRANCH   9  10
ENDBRANCH   1   9
BRANCH   1  17
HETATM   17  C10 UNL     1      25.458   0.094  53.924  1.00  0.00     0.068 C 
BRANCH  17  18
HETATM   18  C11 UNL     1      24.056  -0.387  53.994  1.00  0.00    -0.030 A 
HETATM   19  C12 UNL     1      23.119  -0.074  53.034  1.00  0.00     0.009 A 
HETATM   20  C13 UNL     1      21.794  -0.534  53.105  1.00  0.00     0.001 A 
HETATM   21  C14 UNL     1      21.484  -1.331  54.215  1.00  0.00     0.002 A 
HETATM   22  C15 UNL     1      22.389  -1.665  55.195  1.00  0.00     0.029 A 
HETATM   23  C16 UNL     1      23.676  -1.177  55.060  1.00  0.00     0.032 A 
BRANCH  23  24
HETATM   24  N3  UNL     1      24.556  -1.578  56.128  1.00  0.00    -0.399 N 
HETATM   25  H18 UNL     1      24.376  -1.921  57.117  1.00  0.00     0.156 HD
HETATM   26  H19 UNL     1      25.520  -1.463  55.723  1.00  0.00     0.156 HD
ENDBRANCH  23  24
ENDBRANCH  17  18
ENDBRANCH   1  17
TORSDOF 9
ENDMDL
MODEL 4
REMARK VINA RESULT:      -7.2      2.266      5.801
REMARK  9 active torsions:
REMARK  status: ('A' for Active; 'I' for Inactive)
REMARK    1  A    between atoms: N1_1  and  C1_2 
REMARK    2  A    between atoms: C1_2  and  N2_4 
REMARK    3  A    between atoms: N2_4  and  C2_5 
REMARK    4  A    between atoms: C2_5  and  C3_6 
REMARK    5  A    between atoms: C2_5  and  C10_14 
REMARK    6  A    between atoms: C3_6  and  O1_7 
REMARK    7  A    between atoms: O1_7  and  C4_8 
REMARK    8  A    between atoms: C10_14  and  C11_15 
REMARK    9  A    between atoms: C16_20  and  N3_21 
ROOT
HETATM    1  C2  UNL     1      24.584   2.101  52.938  1.00  0.00     0.112 C 
ENDROOT
BRANCH   1   2
HETATM    2  N2  UNL     1      24.184   3.171  52.004  1.00  0.00    -0.360 N 
HETATM    3  H3  UNL     1      24.234   2.974  50.990  1.00  0.00     0.162 HD
BRANCH   2   4
HETATM    4  C1  UNL     1      23.787   4.329  52.640  1.00  0.00     0.165 C 
HETATM    5  S1  UNL     1      22.215   4.674  52.202  1.00  0.00    -0.041 SA
BRANCH   4   6
HETATM    6  N1  UNL     1      23.785   5.486  53.445  1.00  0.00    -0.376 N 
HETATM    7  H1  UNL     1      24.266   6.401  53.187  1.00  0.00     0.158 HD
HETATM    8  H2  UNL     1      23.307   5.554  54.396  1.00  0.00     0.158 HD
ENDBRANCH   4   6
ENDBRANCH   2   4
ENDBRANCH   1   2
BRANCH   1   9
HETATM    9  C3  UNL     1      26.093   2.208  52.983  1.00  0.00     0.201 C 
BRANCH   9  10
HETATM   10  O1  UNL     1      26.694   1.598  54.078  1.00  0.00    -0.349 OA
BRANCH  10  11
HETATM   11  C4  UNL     1      27.636   0.601  53.818  1.00  0.00     0.068 A 
HETATM   12  C5  UNL     1      27.317  -0.675  53.358  1.00  0.00     0.037 A 
HETATM   13  C6  UNL     1      28.310  -1.603  53.124  1.00  0.00     0.003 A 
HETATM   14  C7  UNL     1      29.640  -1.266  53.348  1.00  0.00     0.000 A 
HETATM   15  C8  UNL     1      29.948  -0.019  53.797  1.00  0.00     0.003 A 
HETATM   16  C9  UNL     1      28.958   0.937  54.041  1.00  0.00     0.037 A 
ENDBRANCH  10  11
ENDBRANCH   9  10
ENDBRANCH   1   9
BRANCH   1  17
HETATM   17  C10 UNL     1      24.225   0.767  52.338  1.00  0.00     0.068 C 
BRANCH  17  18
HETATM   18  C11 UNL     1      23.252   0.014  53.168  1.00  0.00    -0.030 A 
HETATM   19  C12 UNL     1      23.623  -0.668  54.306  1.00  0.00     0.009 A 
HETATM   20  C13 UNL     1      22.697  -1.377  55.086  1.00  0.00     0.001 A 
HETATM   21  C14 UNL     1      21.370  -1.348  54.636  1.00  0.00     0.002 A 
HETATM   22  C15 UNL     1      20.960  -0.681  53.507  1.00  0.00     0.029 A 
HETATM   23  C16 UNL     1      21.926  -0.003  52.785  1.00  0.00     0.032 A 
BRANCH  23  24
HETATM   24  N3  UNL     1      21.407   0.669  51.622  1.00  0.00    -0.399 N 
HETATM   25  H18 UNL     1      21.052   1.656  51.461  1.00  0.00     0.156 HD
HETATM   26  H19 UNL     1      21.439  -0.063  50.868  1.00  0.00     0.156 HD
ENDBRANCH  23  24
ENDBRANCH  17  18
ENDBRANCH   1  17
TORSDOF 9
ENDMDL
MODEL 5
REMARK VINA RESULT:      -7.2      2.495      5.366
REMARK  9 active torsions:
REMARK  status: ('A' for Active; 'I' for Inactive)
REMARK    1  A    between atoms: N1_1  and  C1_2 
REMARK    2  A    between atoms: C1_2  and  N2_4 
REMARK    3  A    between atoms: N2_4  and  C2_5 
REMARK    4  A    between atoms: C2_5  and  C3_6 
REMARK    5  A    between atoms: C2_5  and  C10_14 
REMARK    6  A    between atoms: C3_6  and  O1_7 
REMARK    7  A    between atoms: O1_7  and  C4_8 
REMARK    8  A    between atoms: C10_14  and  C11_15 
REMARK    9  A    between atoms: C16_20  and  N3_21 
ROOT
HETATM    1  C2  UNL     1      23.559   2.961  51.769  1.00  0.00     0.112 C 
ENDROOT
BRANCH   1   2
HETATM    2  N2  UNL     1      22.846   4.174  51.320  1.00  0.00    -0.360 N 
HETATM    3  H3  UNL     1      21.984   4.051  50.761  1.00  0.00     0.162 HD
BRANCH   2   4
HETATM    4  C1  UNL     1      23.454   5.344  51.724  1.00  0.00     0.165 C 
HETATM    5  S1  UNL     1      23.001   6.573  50.691  1.00  0.00    -0.041 SA
BRANCH   4   6
HETATM    6  N1  UNL     1      24.234   6.274  52.440  1.00  0.00    -0.376 N 
HETATM    7  H1  UNL     1      24.855   6.028  53.269  1.00  0.00     0.158 HD
HETATM    8  H2  UNL     1      24.270   7.318  52.224  1.00  0.00     0.158 HD
ENDBRANCH   4   6
ENDBRANCH   2   4
ENDBRANCH   1   2
BRANCH   1   9
HETATM    9  C3  UNL     1      24.826   2.964  50.942  1.00  0.00     0.201 C 
BRANCH   9  10
HETATM   10  O1  UNL     1      26.007   2.971  51.675  1.00  0.00    -0.349 OA
BRANCH  10  11
HETATM   11  C4  UNL     1      26.299   1.832  52.428  1.00  0.00     0.068 A 
HETATM   12  C5  UNL     1      26.343   1.805  53.821  1.00  0.00     0.037 A 
HETATM   13  C6  UNL     1      26.638   0.636  54.489  1.00  0.00     0.003 A 
HETATM   14  C7  UNL     1      26.895  -0.528  53.771  1.00  0.00     0.000 A 
HETATM   15  C8  UNL     1      26.852  -0.498  52.411  1.00  0.00     0.003 A 
HETATM   16  C9  UNL     1      26.554   0.676  51.714  1.00  0.00     0.037 A 
ENDBRANCH  10  11
ENDBRANCH   9  10
ENDBRANCH   1   9
BRANCH   1  17
HETATM   17  C10 UNL     1      22.752   1.748  51.387  1.00  0.00     0.068 C 
BRANCH  17  18
HETATM   18  C11 UNL     1      22.382   0.920  52.562  1.00  0.00    -0.030 A 
HETATM   19  C12 UNL     1      23.222  -0.038  53.085  1.00  0.00     0.009 A 
HETATM   20  C13 UNL     1      22.866  -0.817  54.197  1.00  0.00     0.001 A 
HETATM   21  C14 UNL     1      21.602  -0.559  54.743  1.00  0.00     0.002 A 
HETATM   22  C15 UNL     1      20.734   0.387  54.251  1.00  0.00     0.029 A 
HETATM   23  C16 UNL     1      21.150   1.118  53.153  1.00  0.00     0.032 A 
BRANCH  23  24
HETATM   24  N3  UNL     1      20.181   2.086  52.707  1.00  0.00    -0.399 N 
HETATM   25  H18 UNL     1      19.284   2.455  53.139  1.00  0.00     0.156 HD
HETATM   26  H19 UNL     1      20.548   2.405  51.775  1.00  0.00     0.156 HD
ENDBRANCH  23  24
ENDBRANCH  17  18
ENDBRANCH   1  17
TORSDOF 9
ENDMDL
MODEL 6
REMARK VINA RESULT:      -7.0      1.599      2.060
REMARK  9 active torsions:
REMARK  status: ('A' for Active; 'I' for Inactive)
REMARK    1  A    between atoms: N1_1  and  C1_2 
REMARK    2  A    between atoms: C1_2  and  N2_4 
REMARK    3  A    between atoms: N2_4  and  C2_5 
REMARK    4  A    between atoms: C2_5  and  C3_6 
REMARK    5  A    between atoms: C2_5  and  C10_14 
REMARK    6  A    between atoms: C3_6  and  O1_7 
REMARK    7  A    between atoms: O1_7  and  C4_8 
REMARK    8  A    between atoms: C10_14  and  C11_15 
REMARK    9  A    between atoms: C16_20  and  N3_21 
ROOT
HETATM    1  C2  UNL     1      24.728   2.145  51.453  1.00  0.00     0.112 C 
ENDROOT
BRANCH   1   2
HETATM    2  N2  UNL     1      24.676   3.520  50.919  1.00  0.00    -0.360 N 
HETATM    3  H3  UNL     1      25.044   3.685  49.966  1.00  0.00     0.162 HD
BRANCH   2   4
HETATM    4  C1  UNL     1      24.122   4.426  51.800  1.00  0.00     0.165 C 
HETATM    5  S1  UNL     1      23.780   5.837  50.979  1.00  0.00    -0.041 SA
BRANCH   4   6
HETATM    6  N1  UNL     1      23.619   5.022  52.973  1.00  0.00    -0.376 N 
HETATM    7  H1  UNL     1      23.161   4.487  53.773  1.00  0.00     0.158 HD
HETATM    8  H2  UNL     1      23.641   6.070  53.170  1.00  0.00     0.158 HD
ENDBRANCH   4   6
ENDBRANCH   2   4
ENDBRANCH   1   2
BRANCH   1   9
HETATM    9  C3  UNL     1      23.275   1.797  51.692  1.00  0.00     0.201 C 
BRANCH   9  10
HETATM   10  O1  UNL     1      22.896   1.738  53.028  1.00  0.00    -0.349 OA
BRANCH  10  11
HETATM   11  C4  UNL     1      22.187   0.609  53.442  1.00  0.00     0.068 A 
HETATM   12  C5  UNL     1      22.760  -0.476  54.104  1.00  0.00     0.037 A 
HETATM   13  C6  UNL     1      21.987  -1.553  54.481  1.00  0.00     0.003 A 
HETATM   14  C7  UNL     1      20.625  -1.562  54.200  1.00  0.00     0.000 A 
HETATM   15  C8  UNL     1      20.069  -0.501  53.553  1.00  0.00     0.003 A 
HETATM   16  C9  UNL     1      20.833   0.601  53.162  1.00  0.00     0.037 A 
ENDBRANCH  10  11
ENDBRANCH   9  10
ENDBRANCH   1   9
BRANCH   1  17
HETATM   17  C10 UNL     1      25.432   2.162  52.785  1.00  0.00     0.068 C 
BRANCH  17  18
HETATM   18  C11 UNL     1      26.412   1.057  52.924  1.00  0.00    -0.030 A 
HETATM   19  C12 UNL     1      26.119  -0.239  52.561  1.00  0.00     0.009 A 
HETATM   20  C13 UNL     1      27.052  -1.280  52.694  1.00  0.00     0.001 A 
HETATM   21  C14 UNL     1      28.299  -0.919  53.220  1.00  0.00     0.002 A 
HETATM   22  C15 UNL     1      28.630   0.362  53.595  1.00  0.00     0.029 A 
HETATM   23  C16 UNL     1      27.662   1.338  53.436  1.00  0.00     0.032 A 
BRANCH  23  24
HETATM   24  N3  UNL     1      28.096   2.647  53.851  1.00  0.00    -0.399 N 
HETATM   25  H18 UNL     1      28.181   3.572  53.336  1.00  0.00     0.156 HD
HETATM   26  H19 UNL     1      28.344   2.525  54.865  1.00  0.00     0.156 HD
ENDBRANCH  23  24
ENDBRANCH  17  18
ENDBRANCH   1  17
TORSDOF 9
ENDMDL
MODEL 7
REMARK VINA RESULT:      -6.9      2.386      6.323
REMARK  9 active torsions:
REMARK  status: ('A' for Active; 'I' for Inactive)
REMARK    1  A    between atoms: N1_1  and  C1_2 
REMARK    2  A    between atoms: C1_2  and  N2_4 
REMARK    3  A    between atoms: N2_4  and  C2_5 
REMARK    4  A    between atoms: C2_5  and  C3_6 
REMARK    5  A    between atoms: C2_5  and  C10_14 
REMARK    6  A    between atoms: C3_6  and  O1_7 
REMARK    7  A    between atoms: O1_7  and  C4_8 
REMARK    8  A    between atoms: C10_14  and  C11_15 
REMARK    9  A    between atoms: C16_20  and  N3_21 
ROOT
HETATM    1  C2  UNL     1      25.931   0.982  52.002  1.00  0.00     0.112 C 
ENDROOT
BRANCH   1   2
HETATM    2  N2  UNL     1      27.162   0.449  52.618  1.00  0.00    -0.360 N 
HETATM    3  H3  UNL     1      27.406  -0.540  52.438  1.00  0.00     0.162 HD
BRANCH   2   4
HETATM    4  C1  UNL     1      27.838   1.381  53.378  1.00  0.00     0.165 C 
HETATM    5  S1  UNL     1      29.000   0.599  54.284  1.00  0.00    -0.041 SA
BRANCH   4   6
HETATM    6  N1  UNL     1      28.253   2.599  53.952  1.00  0.00    -0.376 N 
HETATM    7  H1  UNL     1      28.687   3.405  53.409  1.00  0.00     0.158 HD
HETATM    8  H2  UNL     1      28.179   2.827  54.992  1.00  0.00     0.158 HD
ENDBRANCH   4   6
ENDBRANCH   2   4
ENDBRANCH   1   2
BRANCH   1   9
HETATM    9  C3  UNL     1      26.421   2.147  51.170  1.00  0.00     0.201 C 
BRANCH   9  10
HETATM   10  O1  UNL     1      25.431   3.028  50.751  1.00  0.00    -0.349 OA
BRANCH  10  11
HETATM   11  C4  UNL     1      25.841   4.162  50.045  1.00  0.00     0.068 A 
HETATM   12  C5  UNL     1      25.165   5.380  50.062  1.00  0.00     0.037 A 
HETATM   13  C6  UNL     1      25.638   6.453  49.337  1.00  0.00     0.003 A 
HETATM   14  C7  UNL     1      26.798   6.322  48.582  1.00  0.00     0.000 A 
HETATM   15  C8  UNL     1      27.456   5.130  48.567  1.00  0.00     0.003 A 
HETATM   16  C9  UNL     1      26.994   4.030  49.294  1.00  0.00     0.037 A 
ENDBRANCH  10  11
ENDBRANCH   9  10
ENDBRANCH   1   9
BRANCH   1  17
HETATM   17  C10 UNL     1      25.034   1.522  53.085  1.00  0.00     0.068 C 
BRANCH  17  18
HETATM   18  C11 UNL     1      23.718   0.839  53.126  1.00  0.00    -0.030 A 
HETATM   19  C12 UNL     1      23.549  -0.406  53.692  1.00  0.00     0.009 A 
HETATM   20  C13 UNL     1      22.300  -1.046  53.728  1.00  0.00     0.001 A 
HETATM   21  C14 UNL     1      21.236  -0.340  53.152  1.00  0.00     0.002 A 
HETATM   22  C15 UNL     1      21.362   0.902  52.578  1.00  0.00     0.029 A 
HETATM   23  C16 UNL     1      22.622   1.474  52.577  1.00  0.00     0.032 A 
BRANCH  23  24
HETATM   24  N3  UNL     1      22.661   2.774  51.959  1.00  0.00    -0.399 N 
HETATM   25  H18 UNL     1      22.671   3.087  50.944  1.00  0.00     0.156 HD
HETATM   26  H19 UNL     1      22.680   3.443  52.770  1.00  0.00     0.156 HD
ENDBRANCH  23  24
ENDBRANCH  17  18
ENDBRANCH   1  17
TORSDOF 9
ENDMDL
MODEL 8
REMARK VINA RESULT:      -6.8      3.117      5.090
REMARK  9 active torsions:
REMARK  status: ('A' for Active; 'I' for Inactive)
REMARK    1  A    between atoms: N1_1  and  C1_2 
REMARK    2  A    between atoms: C1_2  and  N2_4 
REMARK    3  A    between atoms: N2_4  and  C2_5 
REMARK    4  A    between atoms: C2_5  and  C3_6 
REMARK    5  A    between atoms: C2_5  and  C10_14 
REMARK    6  A    between atoms: C3_6  and  O1_7 
REMARK    7  A    between atoms: O1_7  and  C4_8 
REMARK    8  A    between atoms: C10_14  and  C11_15 
REMARK    9  A    between atoms: C16_20  and  N3_21 
ROOT
HETATM    1  C2  UNL     1      24.957   0.110  53.120  1.00  0.00     0.112 C 
ENDROOT
BRANCH   1   2
HETATM    2  N2  UNL     1      23.841  -0.793  53.462  1.00  0.00    -0.360 N 
HETATM    3  H3  UNL     1      24.039  -1.806  53.529  1.00  0.00     0.162 HD
BRANCH   2   4
HETATM    4  C1  UNL     1      22.644  -0.133  53.652  1.00  0.00     0.165 C 
HETATM    5  S1  UNL     1      21.600  -1.135  54.479  1.00  0.00    -0.041 SA
BRANCH   4   6
HETATM    6  N1  UNL     1      21.636   0.851  53.630  1.00  0.00    -0.376 N 
HETATM    7  H1  UNL     1      21.815   1.899  53.683  1.00  0.00     0.158 HD
HETATM    8  H2  UNL     1      20.593   0.638  53.569  1.00  0.00     0.158 HD
ENDBRANCH   4   6
ENDBRANCH   2   4
ENDBRANCH   1   2
BRANCH   1   9
HETATM    9  C3  UNL     1      24.338   1.095  52.151  1.00  0.00     0.201 C 
BRANCH   9  10
HETATM   10  O1  UNL     1      24.659   2.427  52.381  1.00  0.00    -0.349 OA
BRANCH  10  11
HETATM   11  C4  UNL     1      25.151   3.163  51.301  1.00  0.00     0.068 A 
HETATM   12  C5  UNL     1      26.265   2.796  50.548  1.00  0.00     0.037 A 
HETATM   13  C6  UNL     1      26.684   3.579  49.493  1.00  0.00     0.003 A 
HETATM   14  C7  UNL     1      25.993   4.743  49.176  1.00  0.00     0.000 A 
HETATM   15  C8  UNL     1      24.906   5.098  49.913  1.00  0.00     0.003 A 
HETATM   16  C9  UNL     1      24.464   4.320  50.986  1.00  0.00     0.037 A 
ENDBRANCH  10  11
ENDBRANCH   9  10
ENDBRANCH   1   9
BRANCH   1  17
HETATM   17  C10 UNL     1      26.014  -0.671  52.384  1.00  0.00     0.068 C 
BRANCH  17  18
HETATM   18  C11 UNL     1      27.381  -0.390  52.887  1.00  0.00    -0.030 A 
HETATM   19  C12 UNL     1      27.833   0.890  53.122  1.00  0.00     0.009 A 
HETATM   20  C13 UNL     1      29.128   1.148  53.599  1.00  0.00     0.001 A 
HETATM   21  C14 UNL     1      29.933   0.023  53.820  1.00  0.00     0.002 A 
HETATM   22  C15 UNL     1      29.521  -1.269  53.596  1.00  0.00     0.029 A 
HETATM   23  C16 UNL     1      28.232  -1.450  53.126  1.00  0.00     0.032 A 
BRANCH  23  24
HETATM   24  N3  UNL     1      27.885  -2.833  52.924  1.00  0.00    -0.399 N 
HETATM   25  H18 UNL     1      27.757  -3.421  52.049  1.00  0.00     0.156 HD
HETATM   26  H19 UNL     1      27.763  -3.212  53.897  1.00  0.00     0.156 HD
ENDBRANCH  23  24
ENDBRANCH  17  18
ENDBRANCH   1  17
TORSDOF 9
ENDMDL
MODEL 9
REMARK VINA RESULT:      -6.6      6.733      8.612
REMARK  9 active torsions:
REMARK  status: ('A' for Active; 'I' for Inactive)
REMARK    1  A    between atoms: N1_1  and  C1_2 
REMARK    2  A    between atoms: C1_2  and  N2_4 
REMARK    3  A    between atoms: N2_4  and  C2_5 
REMARK    4  A    between atoms: C2_5  and  C3_6 
REMARK    5  A    between atoms: C2_5  and  C10_14 
REMARK    6  A    between atoms: C3_6  and  O1_7 
REMARK    7  A    between atoms: O1_7  and  C4_8 
REMARK    8  A    between atoms: C10_14  and  C11_15 
REMARK    9  A    between atoms: C16_20  and  N3_21 
ROOT
HETATM    1  C2  UNL     1      31.167   5.825  47.693  1.00  0.00     0.112 C 
ENDROOT
BRANCH   1   2
HETATM    2  N2  UNL     1      31.694   6.175  49.027  1.00  0.00    -0.360 N 
HETATM    3  H3  UNL     1      32.139   5.426  49.585  1.00  0.00     0.162 HD
BRANCH   2   4
HETATM    4  C1  UNL     1      31.511   7.503  49.353  1.00  0.00     0.165 C 
HETATM    5  S1  UNL     1      32.415   8.444  48.313  1.00  0.00    -0.041 SA
BRANCH   4   6
HETATM    6  N1  UNL     1      31.070   8.681  49.988  1.00  0.00    -0.376 N 
HETATM    7  H1  UNL     1      31.564   9.144  50.810  1.00  0.00     0.158 HD
HETATM    8  H2  UNL     1      30.192   9.219  49.710  1.00  0.00     0.158 HD
ENDBRANCH   4   6
ENDBRANCH   2   4
ENDBRANCH   1   2
BRANCH   1   9
HETATM    9  C3  UNL     1      29.669   5.979  47.847  1.00  0.00     0.201 C 
BRANCH   9  10
HETATM   10  O1  UNL     1      29.023   4.894  48.428  1.00  0.00    -0.349 OA
BRANCH  10  11
HETATM   11  C4  UNL     1      27.658   5.029  48.692  1.00  0.00     0.068 A 
HETATM   12  C5  UNL     1      26.862   4.018  49.227  1.00  0.00     0.037 A 
HETATM   13  C6  UNL     1      25.520   4.234  49.459  1.00  0.00     0.003 A 
HETATM   14  C7  UNL     1      24.954   5.468  49.159  1.00  0.00     0.000 A 
HETATM   15  C8  UNL     1      25.735   6.453  48.636  1.00  0.00     0.003 A 
HETATM   16  C9  UNL     1      27.096   6.256  48.393  1.00  0.00     0.037 A 
ENDBRANCH  10  11
ENDBRANCH   9  10
ENDBRANCH   1   9
BRANCH   1  17
HETATM   17  C10 UNL     1      31.463   4.375  47.413  1.00  0.00     0.068 C 
BRANCH  17  18
HETATM   18  C11 UNL     1      32.725   4.190  46.655  1.00  0.00    -0.030 A 
HETATM   19  C12 UNL     1      32.985   4.858  45.478  1.00  0.00     0.009 A 
HETATM   20  C13 UNL     1      34.182   4.678  44.767  1.00  0.00     0.001 A 
HETATM   21  C14 UNL     1      35.096   3.777  45.327  1.00  0.00     0.002 A 
HETATM   22  C15 UNL     1      34.874   3.090  46.497  1.00  0.00     0.029 A 
HETATM   23  C16 UNL     1      33.674   3.315  47.146  1.00  0.00     0.032 A 
BRANCH  23  24
HETATM   24  N3  UNL     1      33.528   2.558  48.363  1.00  0.00    -0.399 N 
HETATM   25  H18 UNL     1      32.883   2.660  49.200  1.00  0.00     0.156 HD
HETATM   26  H19 UNL     1      34.250   1.797  48.279  1.00  0.00     0.156 HD
ENDBRANCH  23  24
ENDBRANCH  17  18
ENDBRANCH   1  17
TORSDOF 9
ENDMDL
