MODEL 1
REMARK VINA RESULT:      -7.8      0.000      0.000
REMARK  4 active torsions:
REMARK  status: ('A' for Active; 'I' for Inactive)
REMARK    1  A    between atoms: C7_7  and  S1_8 
REMARK    2  A    between atoms: S1_8  and  C8_9 
REMARK    3  A    between atoms: C13_15  and  O1_16 
REMARK    4  A    between atoms: C15_18  and  O2_19 
ROOT
HETATM    1  C1  UNL     1      30.393   5.344  47.842  1.00  0.00     0.018 C 
HETATM    2  C2  UNL     1      29.232   5.503  48.154  1.00  0.00    -0.078 C 
HETATM    3  C3  UNL     1      27.874   5.706  48.521  1.00  0.00     0.018 A 
HETATM    4  C4  UNL     1      27.296   6.977  48.525  1.00  0.00     0.020 A 
HETATM    5  C5  UNL     1      25.959   7.169  48.887  1.00  0.00     0.003 A 
HETATM    6  C6  UNL     1      25.219   6.041  49.247  1.00  0.00     0.019 A 
HETATM    7  C7  UNL     1      25.794   4.778  49.243  1.00  0.00     0.007 A 
HETATM    8  C19 UNL     1      27.114   4.608  48.882  1.00  0.00     0.039 A 
ENDROOT
BRANCH   7   9
HETATM    9  S1  UNL     1      24.668   3.495  49.734  1.00  0.00    -0.090 SA
BRANCH   9  10
HETATM   10  C8  UNL     1      25.439   2.542  51.033  1.00  0.00     0.019 A 
HETATM   11  C9  UNL     1      26.780   2.653  51.415  1.00  0.00     0.039 A 
HETATM   12  C10 UNL     1      27.253   1.851  52.443  1.00  0.00     0.118 A 
HETATM   13  N1  UNL     1      26.434   0.979  53.065  1.00  0.00    -0.260 NA
HETATM   14  C11 UNL     1      25.127   0.847  52.720  1.00  0.00     0.070 A 
HETATM   15  C12 UNL     1      24.342  -0.066  53.399  1.00  0.00     0.072 A 
HETATM   16  C18 UNL     1      24.630   1.633  51.697  1.00  0.00     0.013 A 
HETATM   17  C13 UNL     1      23.009  -0.222  53.067  1.00  0.00     0.103 A 
HETATM   18  C15 UNL     1      22.528   0.571  52.046  1.00  0.00     0.102 A 
HETATM   19  C17 UNL     1      23.306   1.485  51.364  1.00  0.00     0.054 A 
BRANCH  17  20
HETATM   20  O1  UNL     1      22.111  -1.094  53.661  1.00  0.00    -0.353 OA
HETATM   21  C14 UNL     1      21.269  -0.800  54.734  1.00  0.00     0.210 C 
ENDBRANCH  17  20
BRANCH  18  22
HETATM   22  O2  UNL     1      21.181   0.467  51.654  1.00  0.00    -0.353 OA
HETATM   23  C16 UNL     1      20.302   1.535  51.864  1.00  0.00     0.210 C 
ENDBRANCH  18  22
ENDBRANCH   9  10
ENDBRANCH   7   9
TORSDOF 4
ENDMDL
MODEL 2
REMARK VINA RESULT:      -7.7      4.599      5.694
REMARK  4 active torsions:
REMARK  status: ('A' for Active; 'I' for Inactive)
REMARK    1  A    between atoms: C7_7  and  S1_8 
REMARK    2  A    between atoms: S1_8  and  C8_9 
REMARK    3  A    between atoms: C13_15  and  O1_16 
REMARK    4  A    between atoms: C15_18  and  O2_19 
ROOT
HETATM    1  C1  UNL     1      29.980   2.185  54.862  1.00  0.00     0.018 C 
HETATM    2  C2  UNL     1      29.173   1.461  54.319  1.00  0.00    -0.078 C 
HETATM    3  C3  UNL     1      28.240   0.600  53.678  1.00  0.00     0.018 A 
HETATM    4  C4  UNL     1      28.563  -0.716  53.344  1.00  0.00     0.020 A 
HETATM    5  C5  UNL     1      27.640  -1.556  52.714  1.00  0.00     0.003 A 
HETATM    6  C6  UNL     1      26.378  -1.031  52.430  1.00  0.00     0.019 A 
HETATM    7  C7  UNL     1      26.057   0.278  52.761  1.00  0.00     0.007 A 
HETATM    8  C19 UNL     1      26.981   1.091  53.383  1.00  0.00     0.039 A 
ENDROOT
BRANCH   7   9
HETATM    9  S1  UNL     1      24.401   0.730  52.307  1.00  0.00    -0.090 SA
BRANCH   9  10
HETATM   10  C8  UNL     1      23.270  -0.143  53.377  1.00  0.00     0.019 A 
HETATM   11  C9  UNL     1      23.634  -0.798  54.559  1.00  0.00     0.039 A 
HETATM   12  C10 UNL     1      22.652  -1.440  55.300  1.00  0.00     0.118 A 
HETATM   13  N1  UNL     1      21.368  -1.432  54.890  1.00  0.00    -0.260 NA
HETATM   14  C11 UNL     1      20.980  -0.806  53.748  1.00  0.00     0.070 A 
HETATM   15  C12 UNL     1      19.647  -0.837  53.385  1.00  0.00     0.072 A 
HETATM   16  C18 UNL     1      21.938  -0.159  52.990  1.00  0.00     0.013 A 
HETATM   17  C13 UNL     1      19.225  -0.208  52.229  1.00  0.00     0.103 A 
HETATM   18  C15 UNL     1      20.192   0.433  51.484  1.00  0.00     0.102 A 
HETATM   19  C17 UNL     1      21.526   0.468  51.841  1.00  0.00     0.054 A 
BRANCH  17  20
HETATM   20  O1  UNL     1      17.926  -0.159  51.747  1.00  0.00    -0.353 OA
HETATM   21  C14 UNL     1      16.784  -0.592  52.422  1.00  0.00     0.210 C 
ENDBRANCH  17  20
BRANCH  18  22
HETATM   22  O2  UNL     1      19.836   1.095  50.294  1.00  0.00    -0.353 OA
HETATM   23  C16 UNL     1      19.812   2.493  50.246  1.00  0.00     0.210 C 
ENDBRANCH  18  22
ENDBRANCH   9  10
ENDBRANCH   7   9
TORSDOF 4
ENDMDL
MODEL 3
REMARK VINA RESULT:      -7.5      2.597      6.437
REMARK  4 active torsions:
REMARK  status: ('A' for Active; 'I' for Inactive)
REMARK    1  A    between atoms: C7_7  and  S1_8 
REMARK    2  A    between atoms: S1_8  and  C8_9 
REMARK    3  A    between atoms: C13_15  and  O1_16 
REMARK    4  A    between atoms: C15_18  and  O2_19 
ROOT
HETATM    1  C1  UNL     1      17.926  -0.698  52.641  1.00  0.00     0.018 C 
HETATM    2  C2  UNL     1      18.786  -0.064  52.069  1.00  0.00    -0.078 C 
HETATM    3  C3  UNL     1      19.794   0.669  51.385  1.00  0.00     0.018 A 
HETATM    4  C4  UNL     1      20.026   0.500  50.018  1.00  0.00     0.020 A 
HETATM    5  C5  UNL     1      21.019   1.224  49.352  1.00  0.00     0.003 A 
HETATM    6  C6  UNL     1      21.775   2.126  50.104  1.00  0.00     0.019 A 
HETATM    7  C7  UNL     1      21.545   2.294  51.462  1.00  0.00     0.007 A 
HETATM    8  C19 UNL     1      20.560   1.570  52.101  1.00  0.00     0.039 A 
ENDROOT
BRANCH   7   9
HETATM    9  S1  UNL     1      22.621   3.490  52.213  1.00  0.00    -0.090 SA
BRANCH   9  10
HETATM   10  C8  UNL     1      24.246   3.308  51.495  1.00  0.00     0.019 A 
HETATM   11  C9  UNL     1      24.788   4.156  50.523  1.00  0.00     0.039 A 
HETATM   12  C10 UNL     1      26.066   3.901  50.048  1.00  0.00     0.118 A 
HETATM   13  N1  UNL     1      26.776   2.855  50.516  1.00  0.00    -0.260 NA
HETATM   14  C11 UNL     1      26.280   2.012  51.459  1.00  0.00     0.070 A 
HETATM   15  C12 UNL     1      27.061   0.958  51.895  1.00  0.00     0.072 A 
HETATM   16  C18 UNL     1      25.008   2.242  51.949  1.00  0.00     0.013 A 
HETATM   17  C13 UNL     1      26.581   0.086  52.854  1.00  0.00     0.103 A 
HETATM   18  C15 UNL     1      25.311   0.329  53.333  1.00  0.00     0.102 A 
HETATM   19  C17 UNL     1      24.525   1.381  52.902  1.00  0.00     0.054 A 
BRANCH  17  20
HETATM   20  O1  UNL     1      27.252  -1.007  53.380  1.00  0.00    -0.353 OA
HETATM   21  C14 UNL     1      28.637  -1.162  53.453  1.00  0.00     0.210 C 
ENDBRANCH  17  20
BRANCH  18  22
HETATM   22  O2  UNL     1      24.757  -0.517  54.311  1.00  0.00    -0.353 OA
HETATM   23  C16 UNL     1      23.397  -0.847  54.268  1.00  0.00     0.210 C 
ENDBRANCH  18  22
ENDBRANCH   9  10
ENDBRANCH   7   9
TORSDOF 4
ENDMDL
MODEL 4
REMARK VINA RESULT:      -7.4      3.372      5.246
REMARK  4 active torsions:
REMARK  status: ('A' for Active; 'I' for Inactive)
REMARK    1  A    between atoms: C7_7  and  S1_8 
REMARK    2  A    between atoms: S1_8  and  C8_9 
REMARK    3  A    between atoms: C13_15  and  O1_16 
REMARK    4  A    between atoms: C15_18  and  O2_19 
ROOT
HETATM    1  C1  UNL     1      27.165  -2.636  52.410  1.00  0.00     0.018 C 
HETATM    2  C2  UNL     1      27.149  -1.450  52.661  1.00  0.00    -0.078 C 
HETATM    3  C3  UNL     1      27.145  -0.060  52.964  1.00  0.00     0.018 A 
HETATM    4  C4  UNL     1      28.300   0.603  53.384  1.00  0.00     0.020 A 
HETATM    5  C5  UNL     1      28.288   1.969  53.680  1.00  0.00     0.003 A 
HETATM    6  C6  UNL     1      27.078   2.651  53.541  1.00  0.00     0.019 A 
HETATM    7  C7  UNL     1      25.930   1.991  53.124  1.00  0.00     0.007 A 
HETATM    8  C19 UNL     1      25.961   0.643  52.836  1.00  0.00     0.039 A 
ENDROOT
BRANCH   7   9
HETATM    9  S1  UNL     1      24.511   3.053  53.017  1.00  0.00    -0.090 SA
BRANCH   9  10
HETATM   10  C8  UNL     1      23.695   2.741  51.460  1.00  0.00     0.019 A 
HETATM   11  C9  UNL     1      24.133   3.218  50.220  1.00  0.00     0.039 A 
HETATM   12  C10 UNL     1      23.403   2.901  49.084  1.00  0.00     0.118 A 
HETATM   13  N1  UNL     1      22.290   2.145  49.172  1.00  0.00    -0.260 NA
HETATM   14  C11 UNL     1      21.837   1.665  50.359  1.00  0.00     0.070 A 
HETATM   15  C12 UNL     1      20.689   0.896  50.379  1.00  0.00     0.072 A 
HETATM   16  C18 UNL     1      22.545   1.967  51.508  1.00  0.00     0.013 A 
HETATM   17  C13 UNL     1      20.206   0.396  51.573  1.00  0.00     0.103 A 
HETATM   18  C15 UNL     1      20.924   0.705  52.710  1.00  0.00     0.102 A 
HETATM   19  C17 UNL     1      22.072   1.472  52.698  1.00  0.00     0.054 A 
BRANCH  17  20
HETATM   20  O1  UNL     1      19.073  -0.385  51.739  1.00  0.00    -0.353 OA
HETATM   21  C14 UNL     1      17.755   0.030  51.549  1.00  0.00     0.210 C 
ENDBRANCH  17  20
BRANCH  18  22
HETATM   22  O2  UNL     1      20.491   0.230  53.962  1.00  0.00    -0.353 OA
HETATM   23  C16 UNL     1      21.302  -0.636  54.705  1.00  0.00     0.210 C 
ENDBRANCH  18  22
ENDBRANCH   9  10
ENDBRANCH   7   9
TORSDOF 4
ENDMDL
MODEL 5
REMARK VINA RESULT:      -7.4      3.224      7.289
REMARK  4 active torsions:
REMARK  status: ('A' for Active; 'I' for Inactive)
REMARK    1  A    between atoms: C7_7  and  S1_8 
REMARK    2  A    between atoms: S1_8  and  C8_9 
REMARK    3  A    between atoms: C13_15  and  O1_16 
REMARK    4  A    between atoms: C15_18  and  O2_19 
ROOT
HETATM    1  C1  UNL     1      16.306  -0.583  49.673  1.00  0.00     0.018 C 
HETATM    2  C2  UNL     1      17.137   0.187  50.105  1.00  0.00    -0.078 C 
HETATM    3  C3  UNL     1      18.099   1.102  50.613  1.00  0.00     0.018 A 
HETATM    4  C4  UNL     1      17.723   2.300  51.223  1.00  0.00     0.020 A 
HETATM    5  C5  UNL     1      18.675   3.196  51.719  1.00  0.00     0.003 A 
HETATM    6  C6  UNL     1      20.021   2.849  51.584  1.00  0.00     0.019 A 
HETATM    7  C7  UNL     1      20.394   1.659  50.976  1.00  0.00     0.007 A 
HETATM    8  C19 UNL     1      19.440   0.788  50.493  1.00  0.00     0.039 A 
ENDROOT
BRANCH   7   9
HETATM    9  S1  UNL     1      22.153   1.427  50.913  1.00  0.00    -0.090 SA
BRANCH   9  10
HETATM   10  C8  UNL     1      22.646   0.495  52.355  1.00  0.00     0.019 A 
HETATM   11  C9  UNL     1      21.780  -0.267  53.147  1.00  0.00     0.039 A 
HETATM   12  C10 UNL     1      22.295  -0.944  54.243  1.00  0.00     0.118 A 
HETATM   13  N1  UNL     1      23.607  -0.871  54.540  1.00  0.00    -0.260 NA
HETATM   14  C11 UNL     1      24.476  -0.140  53.793  1.00  0.00     0.070 A 
HETATM   15  C12 UNL     1      25.810  -0.107  54.154  1.00  0.00     0.072 A 
HETATM   16  C18 UNL     1      23.990   0.545  52.696  1.00  0.00     0.013 A 
HETATM   17  C13 UNL     1      26.714   0.628  53.412  1.00  0.00     0.103 A 
HETATM   18  C15 UNL     1      26.214   1.306  52.319  1.00  0.00     0.102 A 
HETATM   19  C17 UNL     1      24.883   1.277  51.953  1.00  0.00     0.054 A 
BRANCH  17  20
HETATM   20  O1  UNL     1      28.073   0.749  53.658  1.00  0.00    -0.353 OA
HETATM   21  C14 UNL     1      28.791   0.073  54.645  1.00  0.00     0.210 C 
ENDBRANCH  17  20
BRANCH  18  22
HETATM   22  O2  UNL     1      27.076   2.075  51.518  1.00  0.00    -0.353 OA
HETATM   23  C16 UNL     1      26.554   3.015  50.621  1.00  0.00     0.210 C 
ENDBRANCH  18  22
ENDBRANCH   9  10
ENDBRANCH   7   9
TORSDOF 4
ENDMDL
MODEL 6
REMARK VINA RESULT:      -7.3      3.712      8.087
REMARK  4 active torsions:
REMARK  status: ('A' for Active; 'I' for Inactive)
REMARK    1  A    between atoms: C7_7  and  S1_8 
REMARK    2  A    between atoms: S1_8  and  C8_9 
REMARK    3  A    between atoms: C13_15  and  O1_16 
REMARK    4  A    between atoms: C15_18  and  O2_19 
ROOT
HETATM    1  C1  UNL     1      22.402  -0.671  54.015  1.00  0.00     0.018 C 
HETATM    2  C2  UNL     1      23.355  -0.145  53.482  1.00  0.00    -0.078 C 
HETATM    3  C3  UNL     1      24.483   0.467  52.870  1.00  0.00     0.018 A 
HETATM    4  C4  UNL     1      25.781   0.250  53.337  1.00  0.00     0.020 A 
HETATM    5  C5  UNL     1      26.885   0.856  52.731  1.00  0.00     0.003 A 
HETATM    6  C6  UNL     1      26.645   1.690  51.637  1.00  0.00     0.019 A 
HETATM    7  C7  UNL     1      25.355   1.906  51.173  1.00  0.00     0.007 A 
HETATM    8  C19 UNL     1      24.278   1.299  51.785  1.00  0.00     0.039 A 
ENDROOT
BRANCH   7   9
HETATM    9  S1  UNL     1      25.287   2.999  49.775  1.00  0.00    -0.090 SA
BRANCH   9  10
HETATM   10  C8  UNL     1      24.808   4.619  50.355  1.00  0.00     0.019 A 
HETATM   11  C9  UNL     1      23.738   4.872  51.219  1.00  0.00     0.039 A 
HETATM   12  C10 UNL     1      23.474   6.182  51.592  1.00  0.00     0.118 A 
HETATM   13  N1  UNL     1      24.235   7.194  51.131  1.00  0.00    -0.260 NA
HETATM   14  C11 UNL     1      25.282   6.983  50.291  1.00  0.00     0.070 A 
HETATM   15  C12 UNL     1      26.022   8.066  49.855  1.00  0.00     0.072 A 
HETATM   16  C18 UNL     1      25.567   5.688  49.902  1.00  0.00     0.013 A 
HETATM   17  C13 UNL     1      27.091   7.880  48.999  1.00  0.00     0.103 A 
HETATM   18  C15 UNL     1      27.364   6.582  48.621  1.00  0.00     0.102 A 
HETATM   19  C17 UNL     1      26.629   5.495  49.053  1.00  0.00     0.054 A 
BRANCH  17  20
HETATM   20  O1  UNL     1      27.915   8.869  48.487  1.00  0.00    -0.353 OA
HETATM   21  C14 UNL     1      28.912   9.550  49.186  1.00  0.00     0.210 C 
ENDBRANCH  17  20
BRANCH  18  22
HETATM   22  O2  UNL     1      28.437   6.316  47.752  1.00  0.00    -0.353 OA
HETATM   23  C16 UNL     1      29.487   5.486  48.162  1.00  0.00     0.210 C 
ENDBRANCH  18  22
ENDBRANCH   9  10
ENDBRANCH   7   9
TORSDOF 4
ENDMDL
MODEL 7
REMARK VINA RESULT:      -7.3      3.095      5.117
REMARK  4 active torsions:
REMARK  status: ('A' for Active; 'I' for Inactive)
REMARK    1  A    between atoms: C7_7  and  S1_8 
REMARK    2  A    between atoms: S1_8  and  C8_9 
REMARK    3  A    between atoms: C13_15  and  O1_16 
REMARK    4  A    between atoms: C15_18  and  O2_19 
ROOT
HETATM    1  C1  UNL     1      26.795  -1.264  52.444  1.00  0.00     0.018 C 
HETATM    2  C2  UNL     1      26.416  -0.160  52.115  1.00  0.00    -0.078 C 
HETATM    3  C3  UNL     1      25.988   1.137  51.722  1.00  0.00     0.018 A 
HETATM    4  C4  UNL     1      26.758   1.941  50.878  1.00  0.00     0.020 A 
HETATM    5  C5  UNL     1      26.330   3.216  50.497  1.00  0.00     0.003 A 
HETATM    6  C6  UNL     1      25.102   3.660  50.990  1.00  0.00     0.019 A 
HETATM    7  C7  UNL     1      24.338   2.862  51.829  1.00  0.00     0.007 A 
HETATM    8  C19 UNL     1      24.776   1.606  52.194  1.00  0.00     0.039 A 
ENDROOT
BRANCH   7   9
HETATM    9  S1  UNL     1      22.818   3.628  52.332  1.00  0.00    -0.090 SA
BRANCH   9  10
HETATM   10  C8  UNL     1      21.489   2.917  51.374  1.00  0.00     0.019 A 
HETATM   11  C9  UNL     1      21.048   3.403  50.138  1.00  0.00     0.039 A 
HETATM   12  C10 UNL     1      20.002   2.755  49.497  1.00  0.00     0.118 A 
HETATM   13  N1  UNL     1      19.421   1.674  50.055  1.00  0.00    -0.260 NA
HETATM   14  C11 UNL     1      19.824   1.176  51.253  1.00  0.00     0.070 A 
HETATM   15  C12 UNL     1      19.184   0.064  51.768  1.00  0.00     0.072 A 
HETATM   16  C18 UNL     1      20.863   1.803  51.914  1.00  0.00     0.013 A 
HETATM   17  C13 UNL     1      19.574  -0.462  52.985  1.00  0.00     0.103 A 
HETATM   18  C15 UNL     1      20.613   0.174  53.631  1.00  0.00     0.102 A 
HETATM   19  C17 UNL     1      21.257   1.285  53.122  1.00  0.00     0.054 A 
BRANCH  17  20
HETATM   20  O1  UNL     1      19.024  -1.567  53.616  1.00  0.00    -0.353 OA
HETATM   21  C14 UNL     1      17.720  -2.037  53.458  1.00  0.00     0.210 C 
ENDBRANCH  17  20
BRANCH  18  22
HETATM   22  O2  UNL     1      21.064  -0.306  54.874  1.00  0.00    -0.353 OA
HETATM   23  C16 UNL     1      22.252  -1.041  54.957  1.00  0.00     0.210 C 
ENDBRANCH  18  22
ENDBRANCH   9  10
ENDBRANCH   7   9
TORSDOF 4
ENDMDL
MODEL 8
REMARK VINA RESULT:      -7.3      3.532      6.031
REMARK  4 active torsions:
REMARK  status: ('A' for Active; 'I' for Inactive)
REMARK    1  A    between atoms: C7_7  and  S1_8 
REMARK    2  A    between atoms: S1_8  and  C8_9 
REMARK    3  A    between atoms: C13_15  and  O1_16 
REMARK    4  A    between atoms: C15_18  and  O2_19 
ROOT
HETATM    1  C1  UNL     1      27.918  -2.796  52.703  1.00  0.00     0.018 C 
HETATM    2  C2  UNL     1      27.809  -1.607  52.915  1.00  0.00    -0.078 C 
HETATM    3  C3  UNL     1      27.696  -0.213  53.170  1.00  0.00     0.018 A 
HETATM    4  C4  UNL     1      28.808   0.568  53.489  1.00  0.00     0.020 A 
HETATM    5  C5  UNL     1      28.689   1.938  53.740  1.00  0.00     0.003 A 
HETATM    6  C6  UNL     1      27.415   2.502  53.659  1.00  0.00     0.019 A 
HETATM    7  C7  UNL     1      26.309   1.725  53.342  1.00  0.00     0.007 A 
HETATM    8  C19 UNL     1      26.446   0.375  53.098  1.00  0.00     0.039 A 
ENDROOT
BRANCH   7   9
HETATM    9  S1  UNL     1      24.794   2.650  53.296  1.00  0.00    -0.090 SA
BRANCH   9  10
HETATM   10  C8  UNL     1      23.515   1.594  52.634  1.00  0.00     0.019 A 
HETATM   11  C9  UNL     1      22.901   0.550  53.334  1.00  0.00     0.039 A 
HETATM   12  C10 UNL     1      21.918  -0.196  52.701  1.00  0.00     0.118 A 
HETATM   13  N1  UNL     1      21.558   0.081  51.432  1.00  0.00    -0.260 NA
HETATM   14  C11 UNL     1      22.132   1.087  50.723  1.00  0.00     0.070 A 
HETATM   15  C12 UNL     1      21.717   1.318  49.425  1.00  0.00     0.072 A 
HETATM   16  C18 UNL     1      23.116   1.846  51.330  1.00  0.00     0.013 A 
HETATM   17  C13 UNL     1      22.285   2.335  48.682  1.00  0.00     0.103 A 
HETATM   18  C15 UNL     1      23.264   3.083  49.302  1.00  0.00     0.102 A 
HETATM   19  C17 UNL     1      23.684   2.859  50.598  1.00  0.00     0.054 A 
BRANCH  17  20
HETATM   20  O1  UNL     1      21.966   2.675  47.377  1.00  0.00    -0.353 OA
HETATM   21  C14 UNL     1      20.752   3.209  46.942  1.00  0.00     0.210 C 
ENDBRANCH  17  20
BRANCH  18  22
HETATM   22  O2  UNL     1      23.887   4.135  48.606  1.00  0.00    -0.353 OA
HETATM   23  C16 UNL     1      23.674   5.462  48.996  1.00  0.00     0.210 C 
ENDBRANCH  18  22
ENDBRANCH   9  10
ENDBRANCH   7   9
TORSDOF 4
ENDMDL
MODEL 9
REMARK VINA RESULT:      -7.3      1.849      3.533
REMARK  4 active torsions:
REMARK  status: ('A' for Active; 'I' for Inactive)
REMARK    1  A    between atoms: C7_7  and  S1_8 
REMARK    2  A    between atoms: S1_8  and  C8_9 
REMARK    3  A    between atoms: C13_15  and  O1_16 
REMARK    4  A    between atoms: C15_18  and  O2_19 
ROOT
HETATM    1  C1  UNL     1      24.009   8.701  49.464  1.00  0.00     0.018 C 
HETATM    2  C2  UNL     1      24.823   7.814  49.324  1.00  0.00    -0.078 C 
HETATM    3  C3  UNL     1      25.787   6.783  49.148  1.00  0.00     0.018 A 
HETATM    4  C4  UNL     1      26.975   7.000  48.449  1.00  0.00     0.020 A 
HETATM    5  C5  UNL     1      27.917   5.982  48.279  1.00  0.00     0.003 A 
HETATM    6  C6  UNL     1      27.628   4.734  48.836  1.00  0.00     0.019 A 
HETATM    7  C7  UNL     1      26.447   4.519  49.531  1.00  0.00     0.007 A 
HETATM    8  C19 UNL     1      25.529   5.536  49.688  1.00  0.00     0.039 A 
ENDROOT
BRANCH   7   9
HETATM    9  S1  UNL     1      26.290   2.862  50.150  1.00  0.00    -0.090 SA
BRANCH   9  10
HETATM   10  C8  UNL     1      24.554   2.508  50.367  1.00  0.00     0.019 A 
HETATM   11  C9  UNL     1      23.528   3.029  49.571  1.00  0.00     0.039 A 
HETATM   12  C10 UNL     1      22.216   2.672  49.849  1.00  0.00     0.118 A 
HETATM   13  N1  UNL     1      21.934   1.836  50.868  1.00  0.00    -0.260 NA
HETATM   14  C11 UNL     1      22.906   1.311  51.660  1.00  0.00     0.070 A 
HETATM   15  C12 UNL     1      22.548   0.460  52.689  1.00  0.00     0.072 A 
HETATM   16  C18 UNL     1      24.221   1.652  51.406  1.00  0.00     0.013 A 
HETATM   17  C13 UNL     1      23.515  -0.087  53.510  1.00  0.00     0.103 A 
HETATM   18  C15 UNL     1      24.823   0.262  53.243  1.00  0.00     0.102 A 
HETATM   19  C17 UNL     1      25.188   1.111  52.217  1.00  0.00     0.054 A 
BRANCH  17  20
HETATM   20  O1  UNL     1      23.300  -0.950  54.572  1.00  0.00    -0.353 OA
HETATM   21  C14 UNL     1      22.070  -1.483  54.959  1.00  0.00     0.210 C 
ENDBRANCH  17  20
BRANCH  18  22
HETATM   22  O2  UNL     1      25.862  -0.257  54.037  1.00  0.00    -0.353 OA
HETATM   23  C16 UNL     1      26.940   0.557  54.406  1.00  0.00     0.210 C 
ENDBRANCH  18  22
ENDBRANCH   9  10
ENDBRANCH   7   9
TORSDOF 4
ENDMDL
