MODEL 1
REMARK VINA RESULT:      -9.3      0.000      0.000
REMARK  5 active torsions:
REMARK  status: ('A' for Active; 'I' for Inactive)
REMARK    1  A    between atoms: O1_2  and  C2_3 
REMARK    2  A    between atoms: C6_9  and  N3_10 
REMARK    3  A    between atoms: N3_10  and  C7_11 
REMARK    4  A    between atoms: C15_21  and  N4_22 
REMARK       I    between atoms: N4_22  and  C16_23 
REMARK    5  A    between atoms: C16_23  and  C17_25 
ROOT
HETATM    1  C2  UNL     1      21.655   0.764  53.339  1.00  0.00     0.097 A 
HETATM    2  C3  UNL     1      20.479   1.445  53.145  1.00  0.00     0.071 A 
HETATM    3  C4  UNL     1      20.377   2.422  52.177  1.00  0.00     0.075 A 
HETATM    4  N1  UNL     1      19.185   3.025  52.070  1.00  0.00    -0.241 NA
HETATM    5  C5  UNL     1      19.023   3.972  51.158  1.00  0.00     0.236 A 
HETATM    6  N2  UNL     1      20.052   4.278  50.394  1.00  0.00    -0.224 NA
HETATM    7  C6  UNL     1      21.268   3.758  50.403  1.00  0.00     0.142 A 
HETATM    8  C13 UNL     1      21.415   2.782  51.352  1.00  0.00     0.041 A 
HETATM    9  C14 UNL     1      22.570   2.072  51.584  1.00  0.00     0.050 A 
HETATM   10  C15 UNL     1      22.728   1.087  52.536  1.00  0.00     0.069 A 
ENDROOT
BRANCH  10  11
HETATM   11  N4  UNL     1      23.953   0.391  52.726  1.00  0.00    -0.323 N 
HETATM   12  C16 UNL     1      24.902   1.289  53.321  1.00  0.00     0.247 C 
HETATM   13  O2  UNL     1      24.563   2.493  53.584  1.00  0.00    -0.271 OA
HETATM   14  H11 UNL     1      24.395  -0.536  52.584  1.00  0.00     0.169 HD
BRANCH  12  15
HETATM   15  C17 UNL     1      26.300   1.122  53.735  1.00  0.00     0.208 C 
HETATM   16  N5  UNL     1      26.968   2.352  54.094  1.00  0.00    -0.321 N 
HETATM   17  C18 UNL     1      28.360   2.092  53.924  1.00  0.00     0.361 C 
HETATM   18  H13 UNL     1      26.678   3.300  54.419  1.00  0.00     0.165 HD
HETATM   19  O3  UNL     1      29.432   2.615  54.315  1.00  0.00    -0.238 OA
HETATM   20  O4  UNL     1      28.489   0.969  53.116  1.00  0.00    -0.296 OA
HETATM   21  C19 UNL     1      27.204   0.555  52.681  1.00  0.00     0.161 C 
HETATM   22  C20 UNL     1      27.124  -0.954  52.687  1.00  0.00     0.043 C 
ENDBRANCH  12  15
ENDBRANCH  10  11
BRANCH   1  23
HETATM   23  O1  UNL     1      21.734  -0.207  54.310  1.00  0.00    -0.354 OA
HETATM   24  C1  UNL     1      21.212  -1.507  54.228  1.00  0.00     0.210 C 
ENDBRANCH   1  23
BRANCH   7  25
HETATM   25  N3  UNL     1      22.367   4.090  49.579  1.00  0.00    -0.340 N 
HETATM   26  H6  UNL     1      22.529   3.637  48.661  1.00  0.00     0.167 HD
BRANCH  25  27
HETATM   27  C7  UNL     1      23.399   5.032  49.808  1.00  0.00     0.035 A 
HETATM   28  C8  UNL     1      23.324   6.132  50.637  1.00  0.00     0.032 A 
HETATM   29  C9  UNL     1      24.345   7.024  50.839  1.00  0.00     0.046 A 
HETATM   30  C10 UNL     1      25.547   6.861  50.197  1.00  0.00     0.138 A 
HETATM   31  F1  UNL     1      26.490   7.794  50.461  1.00  0.00    -0.204 F 
HETATM   32  C11 UNL     1      25.679   5.777  49.353  1.00  0.00     0.074 A 
HETATM   33 CL1  UNL     1      27.229   5.614  48.560  1.00  0.00    -0.081 Cl
HETATM   34  C12 UNL     1      24.621   4.911  49.187  1.00  0.00     0.056 A 
ENDBRANCH  25  27
ENDBRANCH   7  25
TORSDOF 5
ENDMDL
MODEL 2
REMARK VINA RESULT:      -9.3      3.139      6.089
REMARK  5 active torsions:
REMARK  status: ('A' for Active; 'I' for Inactive)
REMARK    1  A    between atoms: O1_2  and  C2_3 
REMARK    2  A    between atoms: C6_9  and  N3_10 
REMARK    3  A    between atoms: N3_10  and  C7_11 
REMARK    4  A    between atoms: C15_21  and  N4_22 
REMARK       I    between atoms: N4_22  and  C16_23 
REMARK    5  A    between atoms: C16_23  and  C17_25 
ROOT
HETATM    1  C2  UNL     1      20.753   2.605  52.278  1.00  0.00     0.097 A 
HETATM    2  C3  UNL     1      20.532   1.686  53.274  1.00  0.00     0.071 A 
HETATM    3  C4  UNL     1      21.499   0.765  53.618  1.00  0.00     0.075 A 
HETATM    4  N1  UNL     1      21.182  -0.086  54.603  1.00  0.00    -0.241 NA
HETATM    5  C5  UNL     1      22.070  -0.994  54.980  1.00  0.00     0.236 A 
HETATM    6  N2  UNL     1      23.233  -1.016  54.361  1.00  0.00    -0.224 NA
HETATM    7  C6  UNL     1      23.660  -0.236  53.383  1.00  0.00     0.142 A 
HETATM    8  C13 UNL     1      22.728   0.695  53.009  1.00  0.00     0.041 A 
HETATM    9  C14 UNL     1      22.903   1.635  52.019  1.00  0.00     0.050 A 
HETATM   10  C15 UNL     1      21.973   2.577  51.635  1.00  0.00     0.069 A 
ENDROOT
BRANCH  10  11
HETATM   11  N4  UNL     1      22.216   3.522  50.601  1.00  0.00    -0.323 N 
HETATM   12  C16 UNL     1      23.076   4.551  51.117  1.00  0.00     0.247 C 
HETATM   13  O2  UNL     1      23.480   4.496  52.328  1.00  0.00    -0.271 OA
HETATM   14  H11 UNL     1      21.989   3.725  49.610  1.00  0.00     0.169 HD
BRANCH  12  15
HETATM   15  C17 UNL     1      23.648   5.759  50.512  1.00  0.00     0.208 C 
HETATM   16  N5  UNL     1      25.083   5.868  50.639  1.00  0.00    -0.321 N 
HETATM   17  C18 UNL     1      25.370   7.261  50.517  1.00  0.00     0.361 C 
HETATM   18  H13 UNL     1      25.879   5.211  50.787  1.00  0.00     0.165 HD
HETATM   19  O3  UNL     1      26.384   7.957  50.267  1.00  0.00    -0.238 OA
HETATM   20  O4  UNL     1      24.191   7.960  50.746  1.00  0.00    -0.296 OA
HETATM   21  C19 UNL     1      23.167   7.049  51.108  1.00  0.00     0.161 C 
HETATM   22  C20 UNL     1      21.864   7.462  50.466  1.00  0.00     0.043 C 
ENDBRANCH  12  15
ENDBRANCH  10  11
BRANCH   1  23
HETATM   23  O1  UNL     1      19.774   3.513  51.952  1.00  0.00    -0.354 OA
HETATM   24  C1  UNL     1      18.458   3.213  51.568  1.00  0.00     0.210 C 
ENDBRANCH   1  23
BRANCH   7  25
HETATM   25  N3  UNL     1      24.910  -0.264  52.724  1.00  0.00    -0.340 N 
HETATM   26  H6  UNL     1      25.046  -0.737  51.812  1.00  0.00     0.167 HD
BRANCH  25  27
HETATM   27  C7  UNL     1      26.145   0.299  53.131  1.00  0.00     0.035 A 
HETATM   28  C8  UNL     1      26.365   1.620  53.458  1.00  0.00     0.032 A 
HETATM   29  C9  UNL     1      27.574   2.132  53.852  1.00  0.00     0.046 A 
HETATM   30  C10 UNL     1      28.676   1.318  53.944  1.00  0.00     0.138 A 
HETATM   31  F1  UNL     1      29.822   1.918  54.341  1.00  0.00    -0.204 F 
HETATM   32  C11 UNL     1      28.514  -0.015  53.628  1.00  0.00     0.074 A 
HETATM   33 CL1  UNL     1      29.947  -1.007  53.762  1.00  0.00    -0.081 Cl
HETATM   34  C12 UNL     1      27.276  -0.477  53.238  1.00  0.00     0.056 A 
ENDBRANCH  25  27
ENDBRANCH   7  25
TORSDOF 5
ENDMDL
MODEL 3
REMARK VINA RESULT:      -9.3      2.034      2.747
REMARK  5 active torsions:
REMARK  status: ('A' for Active; 'I' for Inactive)
REMARK    1  A    between atoms: O1_2  and  C2_3 
REMARK    2  A    between atoms: C6_9  and  N3_10 
REMARK    3  A    between atoms: N3_10  and  C7_11 
REMARK    4  A    between atoms: C15_21  and  N4_22 
REMARK       I    between atoms: N4_22  and  C16_23 
REMARK    5  A    between atoms: C16_23  and  C17_25 
ROOT
HETATM    1  C2  UNL     1      23.067   1.501  53.057  1.00  0.00     0.097 A 
HETATM    2  C3  UNL     1      21.970   2.038  52.431  1.00  0.00     0.071 A 
HETATM    3  C4  UNL     1      22.023   3.293  51.861  1.00  0.00     0.075 A 
HETATM    4  N1  UNL     1      20.898   3.724  51.275  1.00  0.00    -0.241 NA
HETATM    5  C5  UNL     1      20.885   4.922  50.709  1.00  0.00     0.236 A 
HETATM    6  N2  UNL     1      21.991   5.638  50.752  1.00  0.00    -0.224 NA
HETATM    7  C6  UNL     1      23.154   5.325  51.296  1.00  0.00     0.142 A 
HETATM    8  C13 UNL     1      23.146   4.084  51.875  1.00  0.00     0.041 A 
HETATM    9  C14 UNL     1      24.217   3.502  52.512  1.00  0.00     0.050 A 
HETATM   10  C15 UNL     1      24.221   2.255  53.098  1.00  0.00     0.069 A 
ENDROOT
BRANCH  10  11
HETATM   11  N4  UNL     1      25.364   1.711  53.743  1.00  0.00    -0.323 N 
HETATM   12  C16 UNL     1      26.147   1.004  52.767  1.00  0.00     0.247 C 
HETATM   13  O2  UNL     1      25.757   0.956  51.551  1.00  0.00    -0.271 OA
HETATM   14  H11 UNL     1      25.826   1.647  54.669  1.00  0.00     0.169 HD
BRANCH  12  15
HETATM   15  C17 UNL     1      27.408   0.259  52.859  1.00  0.00     0.208 C 
HETATM   16  N5  UNL     1      27.266  -1.173  52.729  1.00  0.00    -0.321 N 
HETATM   17  C18 UNL     1      28.415  -1.727  53.368  1.00  0.00     0.361 C 
HETATM   18  H13 UNL     1      26.570  -1.826  52.308  1.00  0.00     0.165 HD
HETATM   19  O3  UNL     1      29.010  -2.832  53.357  1.00  0.00    -0.238 OA
HETATM   20  O4  UNL     1      28.960  -0.749  54.189  1.00  0.00    -0.296 OA
HETATM   21  C19 UNL     1      28.128   0.400  54.167  1.00  0.00     0.161 C 
HETATM   22  C20 UNL     1      28.979   1.648  54.159  1.00  0.00     0.043 C 
ENDBRANCH  12  15
ENDBRANCH  10  11
BRANCH   1  23
HETATM   23  O1  UNL     1      22.991   0.247  53.618  1.00  0.00    -0.354 OA
HETATM   24  C1  UNL     1      22.340  -0.869  53.069  1.00  0.00     0.210 C 
ENDBRANCH   1  23
BRANCH   7  25
HETATM   25  N3  UNL     1      24.336   6.098  51.337  1.00  0.00    -0.340 N 
HETATM   26  H6  UNL     1      24.581   6.696  52.147  1.00  0.00     0.167 HD
BRANCH  25  27
HETATM   27  C7  UNL     1      25.358   6.216  50.363  1.00  0.00     0.035 A 
HETATM   28  C8  UNL     1      25.892   5.185  49.619  1.00  0.00     0.032 A 
HETATM   29  C9  UNL     1      26.880   5.334  48.681  1.00  0.00     0.046 A 
HETATM   30  C10 UNL     1      27.411   6.573  48.422  1.00  0.00     0.138 A 
HETATM   31  F1  UNL     1      28.380   6.615  47.480  1.00  0.00    -0.204 F 
HETATM   32  C11 UNL     1      26.914   7.643  49.138  1.00  0.00     0.074 A 
HETATM   33 CL1  UNL     1      27.624   9.198  48.771  1.00  0.00    -0.081 Cl
HETATM   34  C12 UNL     1      25.921   7.437  50.070  1.00  0.00     0.056 A 
ENDBRANCH  25  27
ENDBRANCH   7  25
TORSDOF 5
ENDMDL
MODEL 4
REMARK VINA RESULT:      -9.3      3.967      6.958
REMARK  5 active torsions:
REMARK  status: ('A' for Active; 'I' for Inactive)
REMARK    1  A    between atoms: O1_2  and  C2_3 
REMARK    2  A    between atoms: C6_9  and  N3_10 
REMARK    3  A    between atoms: N3_10  and  C7_11 
REMARK    4  A    between atoms: C15_21  and  N4_22 
REMARK       I    between atoms: N4_22  and  C16_23 
REMARK    5  A    between atoms: C16_23  and  C17_25 
ROOT
HETATM    1  C2  UNL     1      23.380   2.901  49.273  1.00  0.00     0.097 A 
HETATM    2  C3  UNL     1      22.601   2.015  49.975  1.00  0.00     0.071 A 
HETATM    3  C4  UNL     1      23.016   1.516  51.192  1.00  0.00     0.075 A 
HETATM    4  N1  UNL     1      22.181   0.659  51.796  1.00  0.00    -0.241 NA
HETATM    5  C5  UNL     1      22.523   0.146  52.968  1.00  0.00     0.236 A 
HETATM    6  N2  UNL     1      23.679   0.506  53.488  1.00  0.00    -0.224 NA
HETATM    7  C6  UNL     1      24.581   1.337  52.994  1.00  0.00     0.142 A 
HETATM    8  C13 UNL     1      24.209   1.856  51.783  1.00  0.00     0.041 A 
HETATM    9  C14 UNL     1      24.952   2.745  51.042  1.00  0.00     0.050 A 
HETATM   10  C15 UNL     1      24.587   3.275  49.823  1.00  0.00     0.069 A 
ENDROOT
BRANCH  10  11
HETATM   11  N4  UNL     1      25.404   4.191  49.106  1.00  0.00    -0.323 N 
HETATM   12  C16 UNL     1      25.265   5.491  49.703  1.00  0.00     0.247 C 
HETATM   13  O2  UNL     1      24.496   5.650  50.711  1.00  0.00    -0.271 OA
HETATM   14  H11 UNL     1      26.062   4.246  48.307  1.00  0.00     0.169 HD
BRANCH  12  15
HETATM   15  C17 UNL     1      25.861   6.795  49.389  1.00  0.00     0.208 C 
HETATM   16  N5  UNL     1      26.384   7.503  50.534  1.00  0.00    -0.321 N 
HETATM   17  C18 UNL     1      26.396   8.879  50.155  1.00  0.00     0.361 C 
HETATM   18  H13 UNL     1      26.721   7.250  51.488  1.00  0.00     0.165 HD
HETATM   19  O3  UNL     1      26.965   9.923  50.558  1.00  0.00    -0.238 OA
HETATM   20  O4  UNL     1      25.549   9.029  49.065  1.00  0.00    -0.296 OA
HETATM   21  C19 UNL     1      24.913   7.791  48.791  1.00  0.00     0.161 C 
HETATM   22  C20 UNL     1      24.817   7.584  47.298  1.00  0.00     0.043 C 
ENDBRANCH  12  15
ENDBRANCH  10  11
BRANCH   1  23
HETATM   23  O1  UNL     1      22.945   3.385  48.061  1.00  0.00    -0.354 OA
HETATM   24  C1  UNL     1      22.028   4.429  47.866  1.00  0.00     0.210 C 
ENDBRANCH   1  23
BRANCH   7  25
HETATM   25  N3  UNL     1      25.818   1.721  53.559  1.00  0.00    -0.340 N 
HETATM   26  H6  UNL     1      25.957   2.637  54.022  1.00  0.00     0.167 HD
BRANCH  25  27
HETATM   27  C7  UNL     1      27.036   0.999  53.610  1.00  0.00     0.035 A 
HETATM   28  C8  UNL     1      28.261   1.503  53.990  1.00  0.00     0.032 A 
HETATM   29  C9  UNL     1      29.422   0.775  54.031  1.00  0.00     0.046 A 
HETATM   30  C10 UNL     1      29.422  -0.552  53.681  1.00  0.00     0.138 A 
HETATM   31  F1  UNL     1      30.617  -1.183  53.754  1.00  0.00    -0.204 F 
HETATM   32  C11 UNL     1      28.222  -1.110  53.291  1.00  0.00     0.074 A 
HETATM   33 CL1  UNL     1      28.276  -2.803  52.855  1.00  0.00    -0.081 Cl
HETATM   34  C12 UNL     1      27.085  -0.333  53.267  1.00  0.00     0.056 A 
ENDBRANCH  25  27
ENDBRANCH   7  25
TORSDOF 5
ENDMDL
MODEL 5
REMARK VINA RESULT:      -9.1      2.208      2.843
REMARK  5 active torsions:
REMARK  status: ('A' for Active; 'I' for Inactive)
REMARK    1  A    between atoms: O1_2  and  C2_3 
REMARK    2  A    between atoms: C6_9  and  N3_10 
REMARK    3  A    between atoms: N3_10  and  C7_11 
REMARK    4  A    between atoms: C15_21  and  N4_22 
REMARK       I    between atoms: N4_22  and  C16_23 
REMARK    5  A    between atoms: C16_23  and  C17_25 
ROOT
HETATM    1  C2  UNL     1      22.900   1.348  51.454  1.00  0.00     0.097 A 
HETATM    2  C3  UNL     1      22.227   1.461  50.263  1.00  0.00     0.071 A 
HETATM    3  C4  UNL     1      22.440   2.538  49.428  1.00  0.00     0.075 A 
HETATM    4  N1  UNL     1      21.733   2.552  48.290  1.00  0.00    -0.241 NA
HETATM    5  C5  UNL     1      21.893   3.559  47.445  1.00  0.00     0.236 A 
HETATM    6  N2  UNL     1      22.749   4.507  47.768  1.00  0.00    -0.224 NA
HETATM    7  C6  UNL     1      23.500   4.605  48.852  1.00  0.00     0.142 A 
HETATM    8  C13 UNL     1      23.319   3.554  49.712  1.00  0.00     0.041 A 
HETATM    9  C14 UNL     1      23.969   3.396  50.914  1.00  0.00     0.050 A 
HETATM   10  C15 UNL     1      23.795   2.343  51.787  1.00  0.00     0.069 A 
ENDROOT
BRANCH  10  11
HETATM   11  N4  UNL     1      24.499   2.239  53.017  1.00  0.00    -0.323 N 
HETATM   12  C16 UNL     1      25.814   1.726  52.749  1.00  0.00     0.247 C 
HETATM   13  O2  UNL     1      26.159   1.451  51.548  1.00  0.00    -0.271 OA
HETATM   14  H11 UNL     1      24.393   2.404  54.035  1.00  0.00     0.169 HD
BRANCH  12  15
HETATM   15  C17 UNL     1      26.955   1.418  53.619  1.00  0.00     0.208 C 
HETATM   16  N5  UNL     1      27.720   2.573  54.030  1.00  0.00    -0.321 N 
HETATM   17  C18 UNL     1      29.014   2.070  54.364  1.00  0.00     0.361 C 
HETATM   18  H13 UNL     1      27.548   3.597  54.126  1.00  0.00     0.165 HD
HETATM   19  O3  UNL     1      30.000   2.481  55.023  1.00  0.00    -0.238 OA
HETATM   20  O4  UNL     1      29.146   0.815  53.785  1.00  0.00    -0.296 OA
HETATM   21  C19 UNL     1      27.998   0.537  53.000  1.00  0.00     0.161 C 
HETATM   22  C20 UNL     1      27.610  -0.915  53.159  1.00  0.00     0.043 C 
ENDBRANCH  12  15
ENDBRANCH  10  11
BRANCH   1  23
HETATM   23  O1  UNL     1      22.671   0.266  52.272  1.00  0.00    -0.354 OA
HETATM   24  C1  UNL     1      21.580   0.097  53.138  1.00  0.00     0.210 C 
ENDBRANCH   1  23
BRANCH   7  25
HETATM   25  N3  UNL     1      24.417   5.624  49.192  1.00  0.00    -0.340 N 
HETATM   26  H6  UNL     1      24.154   6.433  49.785  1.00  0.00     0.167 HD
BRANCH  25  27
HETATM   27  C7  UNL     1      25.780   5.754  48.827  1.00  0.00     0.035 A 
HETATM   28  C8  UNL     1      26.748   4.780  48.948  1.00  0.00     0.032 A 
HETATM   29  C9  UNL     1      28.060   4.938  48.582  1.00  0.00     0.046 A 
HETATM   30  C10 UNL     1      28.494   6.128  48.054  1.00  0.00     0.138 A 
HETATM   31  F1  UNL     1      29.806   6.184  47.725  1.00  0.00    -0.204 F 
HETATM   32  C11 UNL     1      27.568   7.140  47.911  1.00  0.00     0.074 A 
HETATM   33 CL1  UNL     1      28.173   8.634  47.233  1.00  0.00    -0.081 Cl
HETATM   34  C12 UNL     1      26.262   6.928  48.294  1.00  0.00     0.056 A 
ENDBRANCH  25  27
ENDBRANCH   7  25
TORSDOF 5
ENDMDL
MODEL 6
REMARK VINA RESULT:      -8.8      4.693      7.692
REMARK  5 active torsions:
REMARK  status: ('A' for Active; 'I' for Inactive)
REMARK    1  A    between atoms: O1_2  and  C2_3 
REMARK    2  A    between atoms: C6_9  and  N3_10 
REMARK    3  A    between atoms: N3_10  and  C7_11 
REMARK    4  A    between atoms: C15_21  and  N4_22 
REMARK       I    between atoms: N4_22  and  C16_23 
REMARK    5  A    between atoms: C16_23  and  C17_25 
ROOT
HETATM    1  C2  UNL     1      25.052   0.938  52.191  1.00  0.00     0.097 A 
HETATM    2  C3  UNL     1      25.005   0.041  53.230  1.00  0.00     0.071 A 
HETATM    3  C4  UNL     1      23.802  -0.320  53.801  1.00  0.00     0.075 A 
HETATM    4  N1  UNL     1      23.867  -1.202  54.807  1.00  0.00    -0.241 NA
HETATM    5  C5  UNL     1      22.746  -1.589  55.396  1.00  0.00     0.236 A 
HETATM    6  N2  UNL     1      21.610  -1.083  54.960  1.00  0.00    -0.224 NA
HETATM    7  C6  UNL     1      21.418  -0.213  53.983  1.00  0.00     0.142 A 
HETATM    8  C13 UNL     1      22.589   0.175  53.387  1.00  0.00     0.041 A 
HETATM    9  C14 UNL     1      22.688   1.067  52.345  1.00  0.00     0.050 A 
HETATM   10  C15 UNL     1      23.860   1.464  51.738  1.00  0.00     0.069 A 
ENDROOT
BRANCH  10  11
HETATM   11  N4  UNL     1      23.894   2.394  50.664  1.00  0.00    -0.323 N 
HETATM   12  C16 UNL     1      24.067   3.713  51.206  1.00  0.00     0.247 C 
HETATM   13  O2  UNL     1      24.162   3.875  52.471  1.00  0.00    -0.271 OA
HETATM   14  H11 UNL     1      23.837   2.449  49.630  1.00  0.00     0.169 HD
BRANCH  12  15
HETATM   15  C17 UNL     1      24.171   5.036  50.580  1.00  0.00     0.208 C 
HETATM   16  N5  UNL     1      25.512   5.571  50.534  1.00  0.00    -0.321 N 
HETATM   17  C18 UNL     1      25.352   6.986  50.429  1.00  0.00     0.361 C 
HETATM   18  H13 UNL     1      26.480   5.184  50.558  1.00  0.00     0.165 HD
HETATM   19  O3  UNL     1      26.072   7.953  50.080  1.00  0.00    -0.238 OA
HETATM   20  O4  UNL     1      24.059   7.299  50.825  1.00  0.00    -0.296 OA
HETATM   21  C19 UNL     1      23.408   6.123  51.277  1.00  0.00     0.161 C 
HETATM   22  C20 UNL     1      21.970   6.124  50.816  1.00  0.00     0.043 C 
ENDBRANCH  12  15
ENDBRANCH  10  11
BRANCH   1  23
HETATM   23  O1  UNL     1      26.262   1.283  51.637  1.00  0.00    -0.354 OA
HETATM   24  C1  UNL     1      27.240   2.102  52.225  1.00  0.00     0.210 C 
ENDBRANCH   1  23
BRANCH   7  25
HETATM   25  N3  UNL     1      20.197   0.325  53.519  1.00  0.00    -0.340 N 
HETATM   26  H6  UNL     1      20.026   1.346  53.462  1.00  0.00     0.167 HD
BRANCH  25  27
HETATM   27  C7  UNL     1      19.038  -0.354  53.068  1.00  0.00     0.035 A 
HETATM   28  C8  UNL     1      18.174   0.083  52.086  1.00  0.00     0.032 A 
HETATM   29  C9  UNL     1      17.061  -0.601  51.671  1.00  0.00     0.046 A 
HETATM   30  C10 UNL     1      16.737  -1.809  52.237  1.00  0.00     0.138 A 
HETATM   31  F1  UNL     1      15.620  -2.406  51.759  1.00  0.00    -0.204 F 
HETATM   32  C11 UNL     1      17.568  -2.295  53.225  1.00  0.00     0.074 A 
HETATM   33 CL1  UNL     1      17.111  -3.837  53.913  1.00  0.00    -0.081 Cl
HETATM   34  C12 UNL     1      18.673  -1.567  53.605  1.00  0.00     0.056 A 
ENDBRANCH  25  27
ENDBRANCH   7  25
TORSDOF 5
ENDMDL
MODEL 7
REMARK VINA RESULT:      -8.8      3.645      5.830
REMARK  5 active torsions:
REMARK  status: ('A' for Active; 'I' for Inactive)
REMARK    1  A    between atoms: O1_2  and  C2_3 
REMARK    2  A    between atoms: C6_9  and  N3_10 
REMARK    3  A    between atoms: N3_10  and  C7_11 
REMARK    4  A    between atoms: C15_21  and  N4_22 
REMARK       I    between atoms: N4_22  and  C16_23 
REMARK    5  A    between atoms: C16_23  and  C17_25 
ROOT
HETATM    1  C2  UNL     1      25.175   3.606  50.019  1.00  0.00     0.097 A 
HETATM    2  C3  UNL     1      24.302   3.776  48.972  1.00  0.00     0.071 A 
HETATM    3  C4  UNL     1      22.942   3.636  49.153  1.00  0.00     0.075 A 
HETATM    4  N1  UNL     1      22.179   3.822  48.068  1.00  0.00    -0.241 NA
HETATM    5  C5  UNL     1      20.865   3.702  48.177  1.00  0.00     0.236 A 
HETATM    6  N2  UNL     1      20.367   3.402  49.359  1.00  0.00    -0.224 NA
HETATM    7  C6  UNL     1      21.010   3.196  50.496  1.00  0.00     0.142 A 
HETATM    8  C13 UNL     1      22.367   3.324  50.361  1.00  0.00     0.041 A 
HETATM    9  C14 UNL     1      23.281   3.165  51.377  1.00  0.00     0.050 A 
HETATM   10  C15 UNL     1      24.648   3.293  51.254  1.00  0.00     0.069 A 
ENDROOT
BRANCH  10  11
HETATM   11  N4  UNL     1      25.539   3.114  52.347  1.00  0.00    -0.323 N 
HETATM   12  C16 UNL     1      25.824   1.712  52.480  1.00  0.00     0.247 C 
HETATM   13  O2  UNL     1      25.291   0.874  51.674  1.00  0.00    -0.271 OA
HETATM   14  H11 UNL     1      26.052   3.642  53.077  1.00  0.00     0.169 HD
BRANCH  12  15
HETATM   15  C17 UNL     1      26.664   0.956  53.415  1.00  0.00     0.208 C 
HETATM   16  N5  UNL     1      28.062   0.906  53.054  1.00  0.00    -0.321 N 
HETATM   17  C18 UNL     1      28.580  -0.255  53.704  1.00  0.00     0.361 C 
HETATM   18  H13 UNL     1      28.713   1.480  52.476  1.00  0.00     0.165 HD
HETATM   19  O3  UNL     1      29.717  -0.684  54.016  1.00  0.00    -0.238 OA
HETATM   20  O4  UNL     1      27.506  -1.064  54.050  1.00  0.00    -0.296 OA
HETATM   21  C19 UNL     1      26.308  -0.494  53.549  1.00  0.00     0.161 C 
HETATM   22  C20 UNL     1      25.199  -0.664  54.561  1.00  0.00     0.043 C 
ENDBRANCH  12  15
ENDBRANCH  10  11
BRANCH   1  23
HETATM   23  O1  UNL     1      26.527   3.751  49.815  1.00  0.00    -0.354 OA
HETATM   24  C1  UNL     1      27.142   4.673  48.954  1.00  0.00     0.210 C 
ENDBRANCH   1  23
BRANCH   7  25
HETATM   25  N3  UNL     1      20.470   2.875  51.761  1.00  0.00    -0.340 N 
HETATM   26  H6  UNL     1      20.297   3.592  52.489  1.00  0.00     0.167 HD
BRANCH  25  27
HETATM   27  C7  UNL     1      20.078   1.612  52.268  1.00  0.00     0.035 A 
HETATM   28  C8  UNL     1      18.939   0.916  51.922  1.00  0.00     0.032 A 
HETATM   29  C9  UNL     1      18.591  -0.308  52.431  1.00  0.00     0.046 A 
HETATM   30  C10 UNL     1      19.396  -0.931  53.352  1.00  0.00     0.138 A 
HETATM   31  F1  UNL     1      18.965  -2.136  53.794  1.00  0.00    -0.204 F 
HETATM   32  C11 UNL     1      20.550  -0.280  53.736  1.00  0.00     0.074 A 
HETATM   33 CL1  UNL     1      21.539  -1.116  54.911  1.00  0.00    -0.081 Cl
HETATM   34  C12 UNL     1      20.852   0.949  53.193  1.00  0.00     0.056 A 
ENDBRANCH  25  27
ENDBRANCH   7  25
TORSDOF 5
ENDMDL
MODEL 8
REMARK VINA RESULT:      -8.7      3.241      6.296
REMARK  5 active torsions:
REMARK  status: ('A' for Active; 'I' for Inactive)
REMARK    1  A    between atoms: O1_2  and  C2_3 
REMARK    2  A    between atoms: C6_9  and  N3_10 
REMARK    3  A    between atoms: N3_10  and  C7_11 
REMARK    4  A    between atoms: C15_21  and  N4_22 
REMARK       I    between atoms: N4_22  and  C16_23 
REMARK    5  A    between atoms: C16_23  and  C17_25 
ROOT
HETATM    1  C2  UNL     1      27.196   0.747  53.283  1.00  0.00     0.097 A 
HETATM    2  C3  UNL     1      26.820   0.187  54.478  1.00  0.00     0.071 A 
HETATM    3  C4  UNL     1      25.555  -0.336  54.650  1.00  0.00     0.075 A 
HETATM    4  N1  UNL     1      25.289  -0.859  55.854  1.00  0.00    -0.241 NA
HETATM    5  C5  UNL     1      24.092  -1.378  56.081  1.00  0.00     0.236 A 
HETATM    6  N2  UNL     1      23.211  -1.353  55.100  1.00  0.00    -0.224 NA
HETATM    7  C6  UNL     1      23.352  -0.869  53.878  1.00  0.00     0.142 A 
HETATM    8  C13 UNL     1      24.597  -0.338  53.665  1.00  0.00     0.041 A 
HETATM    9  C14 UNL     1      25.021   0.233  52.487  1.00  0.00     0.050 A 
HETATM   10  C15 UNL     1      26.270   0.770  52.261  1.00  0.00     0.069 A 
ENDROOT
BRANCH  10  11
HETATM   11  N4  UNL     1      26.646   1.347  51.018  1.00  0.00    -0.323 N 
HETATM   12  C16 UNL     1      25.907   2.566  50.838  1.00  0.00     0.247 C 
HETATM   13  O2  UNL     1      25.080   2.948  51.734  1.00  0.00    -0.271 OA
HETATM   14  H11 UNL     1      27.265   1.193  50.200  1.00  0.00     0.169 HD
BRANCH  12  15
HETATM   15  C17 UNL     1      25.886   3.563  49.761  1.00  0.00     0.208 C 
HETATM   16  N5  UNL     1      26.963   4.525  49.817  1.00  0.00    -0.321 N 
HETATM   17  C18 UNL     1      26.492   5.663  49.096  1.00  0.00     0.361 C 
HETATM   18  H13 UNL     1      27.919   4.563  50.232  1.00  0.00     0.165 HD
HETATM   19  O3  UNL     1      27.012   6.671  48.559  1.00  0.00    -0.238 OA
HETATM   20  O4  UNL     1      25.110   5.567  49.004  1.00  0.00    -0.296 OA
HETATM   21  C19 UNL     1      24.668   4.436  49.736  1.00  0.00     0.161 C 
HETATM   22  C20 UNL     1      23.551   3.746  48.988  1.00  0.00     0.043 C 
ENDBRANCH  12  15
ENDBRANCH  10  11
BRANCH   1  23
HETATM   23  O1  UNL     1      28.462   1.262  53.135  1.00  0.00    -0.354 OA
HETATM   24  C1  UNL     1      28.949   2.445  53.712  1.00  0.00     0.210 C 
ENDBRANCH   1  23
BRANCH   7  25
HETATM   25  N3  UNL     1      22.404  -0.847  52.832  1.00  0.00    -0.340 N 
HETATM   26  H6  UNL     1      22.163  -1.693  52.283  1.00  0.00     0.167 HD
BRANCH  25  27
HETATM   27  C7  UNL     1      21.640   0.242  52.344  1.00  0.00     0.035 A 
HETATM   28  C8  UNL     1      21.002   1.193  53.112  1.00  0.00     0.032 A 
HETATM   29  C9  UNL     1      20.272   2.237  52.608  1.00  0.00     0.046 A 
HETATM   30  C10 UNL     1      20.134   2.397  51.251  1.00  0.00     0.138 A 
HETATM   31  F1  UNL     1      19.395   3.458  50.853  1.00  0.00    -0.204 F 
HETATM   32  C11 UNL     1      20.753   1.474  50.433  1.00  0.00     0.074 A 
HETATM   33 CL1  UNL     1      20.547   1.723  48.715  1.00  0.00    -0.081 Cl
HETATM   34  C12 UNL     1      21.474   0.443  50.993  1.00  0.00     0.056 A 
ENDBRANCH  25  27
ENDBRANCH   7  25
TORSDOF 5
ENDMDL
MODEL 9
REMARK VINA RESULT:      -8.5      3.569      5.831
REMARK  5 active torsions:
REMARK  status: ('A' for Active; 'I' for Inactive)
REMARK    1  A    between atoms: O1_2  and  C2_3 
REMARK    2  A    between atoms: C6_9  and  N3_10 
REMARK    3  A    between atoms: N3_10  and  C7_11 
REMARK    4  A    between atoms: C15_21  and  N4_22 
REMARK       I    between atoms: N4_22  and  C16_23 
REMARK    5  A    between atoms: C16_23  and  C17_25 
ROOT
HETATM    1  C2  UNL     1      25.116   4.669  49.465  1.00  0.00     0.097 A 
HETATM    2  C3  UNL     1      24.000   5.248  48.912  1.00  0.00     0.071 A 
HETATM    3  C4  UNL     1      22.819   4.545  48.801  1.00  0.00     0.075 A 
HETATM    4  N1  UNL     1      21.791   5.202  48.247  1.00  0.00    -0.241 NA
HETATM    5  C5  UNL     1      20.628   4.582  48.113  1.00  0.00     0.236 A 
HETATM    6  N2  UNL     1      20.539   3.337  48.534  1.00  0.00    -0.224 NA
HETATM    7  C6  UNL     1      21.474   2.587  49.092  1.00  0.00     0.142 A 
HETATM    8  C13 UNL     1      22.667   3.247  49.222  1.00  0.00     0.041 A 
HETATM    9  C14 UNL     1      23.810   2.712  49.769  1.00  0.00     0.050 A 
HETATM   10  C15 UNL     1      25.016   3.366  49.905  1.00  0.00     0.069 A 
ENDROOT
BRANCH  10  11
HETATM   11  N4  UNL     1      26.163   2.754  50.479  1.00  0.00    -0.323 N 
HETATM   12  C16 UNL     1      25.905   2.515  51.872  1.00  0.00     0.247 C 
HETATM   13  O2  UNL     1      24.779   2.851  52.378  1.00  0.00    -0.271 OA
HETATM   14  H11 UNL     1      27.116   2.421  50.242  1.00  0.00     0.169 HD
BRANCH  12  15
HETATM   15  C17 UNL     1      26.712   1.919  52.942  1.00  0.00     0.208 C 
HETATM   16  N5  UNL     1      27.627   2.837  53.581  1.00  0.00    -0.321 N 
HETATM   17  C18 UNL     1      28.650   2.019  54.148  1.00  0.00     0.361 C 
HETATM   18  H13 UNL     1      27.695   3.870  53.706  1.00  0.00     0.165 HD
HETATM   19  O3  UNL     1      29.535   2.158  55.027  1.00  0.00    -0.238 OA
HETATM   20  O4  UNL     1      28.595   0.777  53.529  1.00  0.00    -0.296 OA
HETATM   21  C19 UNL     1      27.617   0.807  52.502  1.00  0.00     0.161 C 
HETATM   22  C20 UNL     1      26.859  -0.499  52.479  1.00  0.00     0.043 C 
ENDBRANCH  12  15
ENDBRANCH  10  11
BRANCH   1  23
HETATM   23  O1  UNL     1      26.283   5.388  49.566  1.00  0.00    -0.354 OA
HETATM   24  C1  UNL     1      26.819   6.242  48.590  1.00  0.00     0.210 C 
ENDBRANCH   1  23
BRANCH   7  25
HETATM   25  N3  UNL     1      21.371   1.252  49.543  1.00  0.00    -0.340 N 
HETATM   26  H6  UNL     1      21.909   0.478  49.113  1.00  0.00     0.167 HD
BRANCH  25  27
HETATM   27  C7  UNL     1      20.577   0.724  50.591  1.00  0.00     0.035 A 
HETATM   28  C8  UNL     1      19.213   0.524  50.553  1.00  0.00     0.032 A 
HETATM   29  C9  UNL     1      18.474   0.008  51.585  1.00  0.00     0.046 A 
HETATM   30  C10 UNL     1      19.082  -0.353  52.762  1.00  0.00     0.138 A 
HETATM   31  F1  UNL     1      18.268  -0.853  53.719  1.00  0.00    -0.204 F 
HETATM   32  C11 UNL     1      20.447  -0.175  52.856  1.00  0.00     0.074 A 
HETATM   33 CL1  UNL     1      21.173  -0.650  54.375  1.00  0.00    -0.081 Cl
HETATM   34  C12 UNL     1      21.141   0.349  51.788  1.00  0.00     0.056 A 
ENDBRANCH  25  27
ENDBRANCH   7  25
TORSDOF 5
ENDMDL
