MODEL 1
REMARK VINA RESULT:      -6.9      0.000      0.000
REMARK  7 active torsions:
REMARK  status: ('A' for Active; 'I' for Inactive)
REMARK    1  A    between atoms: C2_2  and  C3_3 
REMARK    2  A    between atoms: C6_6  and  N1_7 
REMARK    3  A    between atoms: N1_7  and  N2_8 
REMARK    4  A    between atoms: N2_8  and  C7_9 
REMARK    5  A    between atoms: C12_15  and  C13_16 
REMARK    6  A    between atoms: C13_16  and  N3_17 
REMARK    7  A    between atoms: N3_17  and  C14_18 
ROOT
HETATM    1  C7  UNL     1      22.554   1.198  52.133  1.00  0.00     0.056 A 
HETATM    2  C8  UNL     1      21.752   0.402  51.351  1.00  0.00     0.033 A 
HETATM    3  C9  UNL     1      21.546   0.671  50.021  1.00  0.00     0.026 A 
HETATM    4  C10 UNL     1      22.207   1.793  49.542  1.00  0.00     0.034 A 
HETATM    5 CL1  UNL     1      21.983   2.181  47.845  1.00  0.00    -0.084 Cl
HETATM    6  C11 UNL     1      23.028   2.622  50.304  1.00  0.00     0.035 A 
HETATM    7  C12 UNL     1      23.202   2.304  51.658  1.00  0.00    -0.011 A 
ENDROOT
BRANCH   1   8
HETATM    8  N2  UNL     1      22.739   0.822  53.476  1.00  0.00    -0.300 N 
HETATM    9  H9  UNL     1      22.483   0.912  54.480  1.00  0.00     0.187 HD
BRANCH   8  10
HETATM   10  N1  UNL     1      23.778  -0.145  53.342  1.00  0.00    -0.300 N 
HETATM   11  H8  UNL     1      23.813  -1.137  52.984  1.00  0.00     0.187 HD
BRANCH  10  12
HETATM   12  C6  UNL     1      25.171  -0.133  53.632  1.00  0.00     0.048 A 
HETATM   13  C5  UNL     1      25.845  -0.927  52.692  1.00  0.00     0.031 A 
HETATM   14  C4  UNL     1      27.221  -1.088  52.722  1.00  0.00     0.009 A 
HETATM   15  C3  UNL     1      27.933  -0.436  53.720  1.00  0.00    -0.058 A 
HETATM   16  C16 UNL     1      27.296   0.348  54.653  1.00  0.00     0.009 A 
HETATM   17  C15 UNL     1      25.912   0.492  54.597  1.00  0.00     0.031 A 
BRANCH  15  18
HETATM   18  C2  UNL     1      29.414  -0.606  53.744  1.00  0.00     0.034 C 
HETATM   19  C1  UNL     1      29.860  -1.987  53.418  1.00  0.00     0.010 C 
ENDBRANCH  15  18
ENDBRANCH  10  12
ENDBRANCH   8  10
ENDBRANCH   1   8
BRANCH   7  20
HETATM   20  C13 UNL     1      24.047   3.270  52.397  1.00  0.00     0.162 C 
BRANCH  20  21
HETATM   21  N3  UNL     1      25.432   3.248  52.002  1.00  0.00    -0.364 N 
HETATM   22  H15 UNL     1      25.929   4.150  52.296  1.00  0.00     0.162 HD
BRANCH  21  23
HETATM   23  C14 UNL     1      26.402   2.478  51.363  1.00  0.00     0.348 C 
HETATM   24  O1  UNL     1      27.537   2.491  51.858  1.00  0.00    -0.284 OA
ENDBRANCH  21  23
ENDBRANCH  20  21
ENDBRANCH   7  20
TORSDOF 7
ENDMDL
MODEL 2
REMARK VINA RESULT:      -6.9      3.517      6.080
REMARK  7 active torsions:
REMARK  status: ('A' for Active; 'I' for Inactive)
REMARK    1  A    between atoms: C2_2  and  C3_3 
REMARK    2  A    between atoms: C6_6  and  N1_7 
REMARK    3  A    between atoms: N1_7  and  N2_8 
REMARK    4  A    between atoms: N2_8  and  C7_9 
REMARK    5  A    between atoms: C12_15  and  C13_16 
REMARK    6  A    between atoms: C13_16  and  N3_17 
REMARK    7  A    between atoms: N3_17  and  C14_18 
ROOT
HETATM    1  C7  UNL     1      25.517   1.085  51.980  1.00  0.00     0.056 A 
HETATM    2  C8  UNL     1      24.185   1.417  51.918  1.00  0.00     0.033 A 
HETATM    3  C9  UNL     1      23.249   0.799  52.709  1.00  0.00     0.026 A 
HETATM    4  C10 UNL     1      23.754  -0.170  53.564  1.00  0.00     0.034 A 
HETATM    5 CL1  UNL     1      22.602  -0.989  54.604  1.00  0.00    -0.084 Cl
HETATM    6  C11 UNL     1      25.097  -0.533  53.655  1.00  0.00     0.035 A 
HETATM    7  C12 UNL     1      26.010   0.127  52.822  1.00  0.00    -0.011 A 
ENDROOT
BRANCH   1   8
HETATM    8  N2  UNL     1      26.409   1.799  51.161  1.00  0.00    -0.300 N 
HETATM    9  H9  UNL     1      27.347   1.897  50.722  1.00  0.00     0.187 HD
BRANCH   8  10
HETATM   10  N1  UNL     1      25.590   2.898  50.767  1.00  0.00    -0.300 N 
HETATM   11  H8  UNL     1      24.562   3.115  50.863  1.00  0.00     0.187 HD
BRANCH  10  12
HETATM   12  C6  UNL     1      25.854   4.128  50.102  1.00  0.00     0.048 A 
HETATM   13  C5  UNL     1      27.021   3.997  49.336  1.00  0.00     0.031 A 
HETATM   14  C4  UNL     1      27.512   5.040  48.568  1.00  0.00     0.009 A 
HETATM   15  C3  UNL     1      26.814   6.240  48.573  1.00  0.00    -0.058 A 
HETATM   16  C16 UNL     1      25.667   6.393  49.315  1.00  0.00     0.009 A 
HETATM   17  C15 UNL     1      25.197   5.327  50.077  1.00  0.00     0.031 A 
BRANCH  15  18
HETATM   18  C2  UNL     1      27.342   7.357  47.738  1.00  0.00     0.034 C 
HETATM   19  C1  UNL     1      28.792   7.235  47.428  1.00  0.00     0.010 C 
ENDBRANCH  15  18
ENDBRANCH  10  12
ENDBRANCH   8  10
ENDBRANCH   1   8
BRANCH   7  20
HETATM   20  C13 UNL     1      27.403  -0.360  52.953  1.00  0.00     0.162 C 
BRANCH  20  21
HETATM   21  N3  UNL     1      28.219   0.445  53.825  1.00  0.00    -0.364 N 
HETATM   22  H15 UNL     1      28.332  -0.022  54.782  1.00  0.00     0.162 HD
BRANCH  21  23
HETATM   23  C14 UNL     1      28.940   1.635  53.901  1.00  0.00     0.348 C 
HETATM   24  O1  UNL     1      28.661   2.508  53.068  1.00  0.00    -0.284 OA
ENDBRANCH  21  23
ENDBRANCH  20  21
ENDBRANCH   7  20
TORSDOF 7
ENDMDL
MODEL 3
REMARK VINA RESULT:      -6.9      1.712      2.156
REMARK  7 active torsions:
REMARK  status: ('A' for Active; 'I' for Inactive)
REMARK    1  A    between atoms: C2_2  and  C3_3 
REMARK    2  A    between atoms: C6_6  and  N1_7 
REMARK    3  A    between atoms: N1_7  and  N2_8 
REMARK    4  A    between atoms: N2_8  and  C7_9 
REMARK    5  A    between atoms: C12_15  and  C13_16 
REMARK    6  A    between atoms: C13_16  and  N3_17 
REMARK    7  A    between atoms: N3_17  and  C14_18 
ROOT
HETATM    1  C7  UNL     1      23.961   2.794  52.278  1.00  0.00     0.056 A 
HETATM    2  C8  UNL     1      23.414   1.537  52.380  1.00  0.00     0.033 A 
HETATM    3  C9  UNL     1      22.565   1.039  51.424  1.00  0.00     0.026 A 
HETATM    4  C10 UNL     1      22.312   1.898  50.363  1.00  0.00     0.034 A 
HETATM    5 CL1  UNL     1      21.235   1.311  49.107  1.00  0.00    -0.084 Cl
HETATM    6  C11 UNL     1      22.848   3.177  50.225  1.00  0.00     0.035 A 
HETATM    7  C12 UNL     1      23.707   3.637  51.232  1.00  0.00    -0.011 A 
ENDROOT
BRANCH   1   8
HETATM    8  N2  UNL     1      24.853   3.204  53.284  1.00  0.00    -0.300 N 
HETATM    9  H9  UNL     1      25.023   3.620  54.222  1.00  0.00     0.187 HD
BRANCH   8  10
HETATM   10  N1  UNL     1      26.103   2.859  52.691  1.00  0.00    -0.300 N 
HETATM   11  H8  UNL     1      26.608   3.167  51.818  1.00  0.00     0.187 HD
BRANCH  10  12
HETATM   12  C6  UNL     1      27.152   1.972  53.062  1.00  0.00     0.048 A 
HETATM   13  C5  UNL     1      26.844   0.680  52.611  1.00  0.00     0.031 A 
HETATM   14  C4  UNL     1      27.698  -0.391  52.822  1.00  0.00     0.009 A 
HETATM   15  C3  UNL     1      28.886  -0.155  53.500  1.00  0.00    -0.058 A 
HETATM   16  C16 UNL     1      29.211   1.102  53.952  1.00  0.00     0.009 A 
HETATM   17  C15 UNL     1      28.333   2.159  53.725  1.00  0.00     0.031 A 
BRANCH  15  18
HETATM   18  C2  UNL     1      29.806  -1.308  53.717  1.00  0.00     0.034 C 
HETATM   19  C1  UNL     1      29.222  -2.619  53.322  1.00  0.00     0.010 C 
ENDBRANCH  15  18
ENDBRANCH  10  12
ENDBRANCH   8  10
ENDBRANCH   1   8
BRANCH   7  20
HETATM   20  C13 UNL     1      24.185   5.024  51.025  1.00  0.00     0.162 C 
BRANCH  20  21
HETATM   21  N3  UNL     1      25.485   5.103  50.409  1.00  0.00    -0.364 N 
HETATM   22  H15 UNL     1      26.047   5.924  50.804  1.00  0.00     0.162 HD
BRANCH  21  23
HETATM   23  C14 UNL     1      26.316   4.499  49.468  1.00  0.00     0.348 C 
HETATM   24  O1  UNL     1      27.096   3.634  49.888  1.00  0.00    -0.284 OA
ENDBRANCH  21  23
ENDBRANCH  20  21
ENDBRANCH   7  20
TORSDOF 7
ENDMDL
MODEL 4
REMARK VINA RESULT:      -6.7      3.376      5.719
REMARK  7 active torsions:
REMARK  status: ('A' for Active; 'I' for Inactive)
REMARK    1  A    between atoms: C2_2  and  C3_3 
REMARK    2  A    between atoms: C6_6  and  N1_7 
REMARK    3  A    between atoms: N1_7  and  N2_8 
REMARK    4  A    between atoms: N2_8  and  C7_9 
REMARK    5  A    between atoms: C12_15  and  C13_16 
REMARK    6  A    between atoms: C13_16  and  N3_17 
REMARK    7  A    between atoms: N3_17  and  C14_18 
ROOT
HETATM    1  C7  UNL     1      23.762   3.247  52.610  1.00  0.00     0.056 A 
HETATM    2  C8  UNL     1      22.450   2.998  52.288  1.00  0.00     0.033 A 
HETATM    3  C9  UNL     1      21.915   1.736  52.365  1.00  0.00     0.026 A 
HETATM    4  C10 UNL     1      22.796   0.752  52.790  1.00  0.00     0.034 A 
HETATM    5 CL1  UNL     1      22.164  -0.880  52.912  1.00  0.00    -0.084 Cl
HETATM    6  C11 UNL     1      24.132   0.968  53.125  1.00  0.00     0.035 A 
HETATM    7  C12 UNL     1      24.628   2.275  53.026  1.00  0.00    -0.011 A 
ENDROOT
BRANCH   1   8
HETATM    8  N2  UNL     1      24.212   4.578  52.541  1.00  0.00    -0.300 N 
HETATM    9  H9  UNL     1      24.493   5.459  53.016  1.00  0.00     0.187 HD
BRANCH   8  10
HETATM   10  N1  UNL     1      24.325   4.749  51.130  1.00  0.00    -0.300 N 
HETATM   11  H8  UNL     1      23.628   4.789  50.339  1.00  0.00     0.187 HD
BRANCH  10  12
HETATM   12  C6  UNL     1      25.428   4.944  50.252  1.00  0.00     0.048 A 
HETATM   13  C5  UNL     1      25.543   6.310  49.952  1.00  0.00     0.031 A 
HETATM   14  C4  UNL     1      26.543   6.795  49.125  1.00  0.00     0.009 A 
HETATM   15  C3  UNL     1      27.445   5.887  48.589  1.00  0.00    -0.058 A 
HETATM   16  C16 UNL     1      27.355   4.544  48.868  1.00  0.00     0.009 A 
HETATM   17  C15 UNL     1      26.339   4.085  49.704  1.00  0.00     0.031 A 
BRANCH  15  18
HETATM   18  C2  UNL     1      28.525   6.414  47.706  1.00  0.00     0.034 C 
HETATM   19  C1  UNL     1      29.865   5.834  47.993  1.00  0.00     0.010 C 
ENDBRANCH  15  18
ENDBRANCH  10  12
ENDBRANCH   8  10
ENDBRANCH   1   8
BRANCH   7  20
HETATM   20  C13 UNL     1      26.068   2.396  53.352  1.00  0.00     0.162 C 
BRANCH  20  21
HETATM   21  N3  UNL     1      26.502   1.509  54.400  1.00  0.00    -0.364 N 
HETATM   22  H15 UNL     1      25.992   1.722  55.317  1.00  0.00     0.162 HD
BRANCH  21  23
HETATM   23  C14 UNL     1      27.356   0.445  54.685  1.00  0.00     0.348 C 
HETATM   24  O1  UNL     1      26.832  -0.587  55.126  1.00  0.00    -0.284 OA
ENDBRANCH  21  23
ENDBRANCH  20  21
ENDBRANCH   7  20
TORSDOF 7
ENDMDL
MODEL 5
REMARK VINA RESULT:      -6.7      2.004      2.625
REMARK  7 active torsions:
REMARK  status: ('A' for Active; 'I' for Inactive)
REMARK    1  A    between atoms: C2_2  and  C3_3 
REMARK    2  A    between atoms: C6_6  and  N1_7 
REMARK    3  A    between atoms: N1_7  and  N2_8 
REMARK    4  A    between atoms: N2_8  and  C7_9 
REMARK    5  A    between atoms: C12_15  and  C13_16 
REMARK    6  A    between atoms: C13_16  and  N3_17 
REMARK    7  A    between atoms: N3_17  and  C14_18 
ROOT
HETATM    1  C7  UNL     1      23.914   3.395  51.519  1.00  0.00     0.056 A 
HETATM    2  C8  UNL     1      22.673   2.804  51.542  1.00  0.00     0.033 A 
HETATM    3  C9  UNL     1      22.072   2.342  50.399  1.00  0.00     0.026 A 
HETATM    4  C10 UNL     1      22.812   2.516  49.237  1.00  0.00     0.034 A 
HETATM    5 CL1  UNL     1      22.094   1.938  47.744  1.00  0.00    -0.084 Cl
HETATM    6  C11 UNL     1      24.072   3.109  49.175  1.00  0.00     0.035 A 
HETATM    7  C12 UNL     1      24.639   3.567  50.372  1.00  0.00    -0.011 A 
ENDROOT
BRANCH   1   8
HETATM    8  N2  UNL     1      24.469   3.802  52.745  1.00  0.00    -0.300 N 
HETATM    9  H9  UNL     1      24.807   4.559  53.374  1.00  0.00     0.187 HD
BRANCH   8  10
HETATM   10  N1  UNL     1      24.612   2.546  53.404  1.00  0.00    -0.300 N 
HETATM   11  H8  UNL     1      24.098   2.071  54.194  1.00  0.00     0.187 HD
BRANCH  10  12
HETATM   12  C6  UNL     1      25.501   1.447  53.236  1.00  0.00     0.048 A 
HETATM   13  C5  UNL     1      26.760   1.789  53.750  1.00  0.00     0.031 A 
HETATM   14  C4  UNL     1      27.823   0.900  53.732  1.00  0.00     0.009 A 
HETATM   15  C3  UNL     1      27.613  -0.358  53.185  1.00  0.00    -0.058 A 
HETATM   16  C16 UNL     1      26.389  -0.718  52.675  1.00  0.00     0.009 A 
HETATM   17  C15 UNL     1      25.338   0.196  52.707  1.00  0.00     0.031 A 
BRANCH  15  18
HETATM   18  C2  UNL     1      28.757  -1.315  53.176  1.00  0.00     0.034 C 
HETATM   19  C1  UNL     1      30.040  -0.712  53.632  1.00  0.00     0.010 C 
ENDBRANCH  15  18
ENDBRANCH  10  12
ENDBRANCH   8  10
ENDBRANCH   1   8
BRANCH   7  20
HETATM   20  C13 UNL     1      25.954   4.228  50.200  1.00  0.00     0.162 C 
BRANCH  20  21
HETATM   21  N3  UNL     1      25.875   5.664  50.131  1.00  0.00    -0.364 N 
HETATM   22  H15 UNL     1      26.780   6.079  49.737  1.00  0.00     0.162 HD
BRANCH  21  23
HETATM   23  C14 UNL     1      25.045   6.754  50.388  1.00  0.00     0.348 C 
HETATM   24  O1  UNL     1      24.441   6.749  51.469  1.00  0.00    -0.284 OA
ENDBRANCH  21  23
ENDBRANCH  20  21
ENDBRANCH   7  20
TORSDOF 7
ENDMDL
MODEL 6
REMARK VINA RESULT:      -6.7      3.373      5.917
REMARK  7 active torsions:
REMARK  status: ('A' for Active; 'I' for Inactive)
REMARK    1  A    between atoms: C2_2  and  C3_3 
REMARK    2  A    between atoms: C6_6  and  N1_7 
REMARK    3  A    between atoms: N1_7  and  N2_8 
REMARK    4  A    between atoms: N2_8  and  C7_9 
REMARK    5  A    between atoms: C12_15  and  C13_16 
REMARK    6  A    between atoms: C13_16  and  N3_17 
REMARK    7  A    between atoms: N3_17  and  C14_18 
ROOT
HETATM    1  C7  UNL     1      24.575   0.914  52.510  1.00  0.00     0.056 A 
HETATM    2  C8  UNL     1      23.366   1.068  51.877  1.00  0.00     0.033 A 
HETATM    3  C9  UNL     1      22.240   0.407  52.299  1.00  0.00     0.026 A 
HETATM    4  C10 UNL     1      22.424  -0.415  53.403  1.00  0.00     0.034 A 
HETATM    5 CL1  UNL     1      21.016  -1.282  53.990  1.00  0.00    -0.084 Cl
HETATM    6  C11 UNL     1      23.634  -0.596  54.071  1.00  0.00     0.035 A 
HETATM    7  C12 UNL     1      24.753   0.102  53.596  1.00  0.00    -0.011 A 
ENDROOT
BRANCH   1   8
HETATM    8  N2  UNL     1      25.665   1.663  52.033  1.00  0.00    -0.300 N 
HETATM    9  H9  UNL     1      26.683   1.879  52.041  1.00  0.00     0.187 HD
BRANCH   8  10
HETATM   10  N1  UNL     1      25.014   2.511  51.089  1.00  0.00    -0.300 N 
HETATM   11  H8  UNL     1      24.059   2.508  50.640  1.00  0.00     0.187 HD
BRANCH  10  12
HETATM   12  C6  UNL     1      25.405   3.694  50.401  1.00  0.00     0.048 A 
HETATM   13  C5  UNL     1      26.610   3.456  49.724  1.00  0.00     0.031 A 
HETATM   14  C4  UNL     1      27.222   4.434  48.956  1.00  0.00     0.009 A 
HETATM   15  C3  UNL     1      26.608   5.676  48.869  1.00  0.00    -0.058 A 
HETATM   16  C16 UNL     1      25.427   5.933  49.523  1.00  0.00     0.009 A 
HETATM   17  C15 UNL     1      24.834   4.931  50.288  1.00  0.00     0.031 A 
BRANCH  15  18
HETATM   18  C2  UNL     1      27.265   6.722  48.035  1.00  0.00     0.034 C 
HETATM   19  C1  UNL     1      26.317   7.736  47.496  1.00  0.00     0.010 C 
ENDBRANCH  15  18
ENDBRANCH  10  12
ENDBRANCH   8  10
ENDBRANCH   1   8
BRANCH   7  20
HETATM   20  C13 UNL     1      26.002  -0.193  54.336  1.00  0.00     0.162 C 
BRANCH  20  21
HETATM   21  N3  UNL     1      26.867  -1.128  53.662  1.00  0.00    -0.364 N 
HETATM   22  H15 UNL     1      27.831  -1.160  54.127  1.00  0.00     0.162 HD
BRANCH  21  23
HETATM   23  C14 UNL     1      26.929  -2.034  52.606  1.00  0.00     0.348 C 
HETATM   24  O1  UNL     1      27.791  -2.920  52.683  1.00  0.00    -0.284 OA
ENDBRANCH  21  23
ENDBRANCH  20  21
ENDBRANCH   7  20
TORSDOF 7
ENDMDL
MODEL 7
REMARK VINA RESULT:      -6.6      2.197      3.400
REMARK  7 active torsions:
REMARK  status: ('A' for Active; 'I' for Inactive)
REMARK    1  A    between atoms: C2_2  and  C3_3 
REMARK    2  A    between atoms: C6_6  and  N1_7 
REMARK    3  A    between atoms: N1_7  and  N2_8 
REMARK    4  A    between atoms: N2_8  and  C7_9 
REMARK    5  A    between atoms: C12_15  and  C13_16 
REMARK    6  A    between atoms: C13_16  and  N3_17 
REMARK    7  A    between atoms: N3_17  and  C14_18 
ROOT
HETATM    1  C7  UNL     1      23.812   2.675  51.983  1.00  0.00     0.056 A 
HETATM    2  C8  UNL     1      23.874   3.312  50.767  1.00  0.00     0.033 A 
HETATM    3  C9  UNL     1      23.130   2.892  49.692  1.00  0.00     0.026 A 
HETATM    4  C10 UNL     1      22.323   1.789  49.936  1.00  0.00     0.034 A 
HETATM    5 CL1  UNL     1      21.346   1.210  48.598  1.00  0.00    -0.084 Cl
HETATM    6  C11 UNL     1      22.234   1.118  51.154  1.00  0.00     0.035 A 
HETATM    7  C12 UNL     1      23.017   1.587  52.217  1.00  0.00    -0.011 A 
ENDROOT
BRANCH   1   8
HETATM    8  N2  UNL     1      24.578   3.202  53.037  1.00  0.00    -0.300 N 
HETATM    9  H9  UNL     1      24.636   3.724  53.936  1.00  0.00     0.187 HD
BRANCH   8  10
HETATM   10  N1  UNL     1      25.887   2.797  52.645  1.00  0.00    -0.300 N 
HETATM   11  H8  UNL     1      26.709   3.298  52.212  1.00  0.00     0.187 HD
BRANCH  10  12
HETATM   12  C6  UNL     1      26.588   1.560  52.701  1.00  0.00     0.048 A 
HETATM   13  C5  UNL     1      27.814   1.753  53.354  1.00  0.00     0.031 A 
HETATM   14  C4  UNL     1      28.703   0.711  53.564  1.00  0.00     0.009 A 
HETATM   15  C3  UNL     1      28.351  -0.551  53.106  1.00  0.00    -0.058 A 
HETATM   16  C16 UNL     1      27.155  -0.766  52.463  1.00  0.00     0.009 A 
HETATM   17  C15 UNL     1      26.281   0.300  52.266  1.00  0.00     0.031 A 
BRANCH  15  18
HETATM   18  C2  UNL     1      29.306  -1.671  53.341  1.00  0.00     0.034 C 
HETATM   19  C1  UNL     1      30.529  -1.263  54.085  1.00  0.00     0.010 C 
ENDBRANCH  15  18
ENDBRANCH  10  12
ENDBRANCH   8  10
ENDBRANCH   1   8
BRANCH   7  20
HETATM   20  C13 UNL     1      22.895   0.781  53.455  1.00  0.00     0.162 C 
BRANCH  20  21
HETATM   21  N3  UNL     1      21.967  -0.315  53.342  1.00  0.00    -0.364 N 
HETATM   22  H15 UNL     1      22.085  -0.822  52.406  1.00  0.00     0.162 HD
BRANCH  21  23
HETATM   23  C14 UNL     1      20.944  -0.988  54.007  1.00  0.00     0.348 C 
HETATM   24  O1  UNL     1      21.282  -1.737  54.934  1.00  0.00    -0.284 OA
ENDBRANCH  21  23
ENDBRANCH  20  21
ENDBRANCH   7  20
TORSDOF 7
ENDMDL
MODEL 8
REMARK VINA RESULT:      -6.5      3.903      6.681
REMARK  7 active torsions:
REMARK  status: ('A' for Active; 'I' for Inactive)
REMARK    1  A    between atoms: C2_2  and  C3_3 
REMARK    2  A    between atoms: C6_6  and  N1_7 
REMARK    3  A    between atoms: N1_7  and  N2_8 
REMARK    4  A    between atoms: N2_8  and  C7_9 
REMARK    5  A    between atoms: C12_15  and  C13_16 
REMARK    6  A    between atoms: C13_16  and  N3_17 
REMARK    7  A    between atoms: N3_17  and  C14_18 
ROOT
HETATM    1  C7  UNL     1      25.604   2.032  52.585  1.00  0.00     0.056 A 
HETATM    2  C8  UNL     1      26.965   2.200  52.664  1.00  0.00     0.033 A 
HETATM    3  C9  UNL     1      27.816   1.135  52.823  1.00  0.00     0.026 A 
HETATM    4  C10 UNL     1      27.195  -0.104  52.894  1.00  0.00     0.034 A 
HETATM    5 CL1  UNL     1      28.236  -1.503  53.093  1.00  0.00    -0.084 Cl
HETATM    6  C11 UNL     1      25.819  -0.313  52.817  1.00  0.00     0.035 A 
HETATM    7  C12 UNL     1      24.996   0.810  52.657  1.00  0.00    -0.011 A 
ENDROOT
BRANCH   1   8
HETATM    8  N2  UNL     1      24.814   3.177  52.380  1.00  0.00    -0.300 N 
HETATM    9  H9  UNL     1      24.215   3.938  52.761  1.00  0.00     0.187 HD
BRANCH   8  10
HETATM   10  N1  UNL     1      24.919   3.326  50.966  1.00  0.00    -0.300 N 
HETATM   11  H8  UNL     1      24.411   2.899  50.146  1.00  0.00     0.187 HD
BRANCH  10  12
HETATM   12  C6  UNL     1      25.746   4.120  50.123  1.00  0.00     0.048 A 
HETATM   13  C5  UNL     1      25.267   5.439  50.117  1.00  0.00     0.031 A 
HETATM   14  C4  UNL     1      25.889   6.439  49.388  1.00  0.00     0.009 A 
HETATM   15  C3  UNL     1      27.016   6.105  48.650  1.00  0.00    -0.058 A 
HETATM   16  C16 UNL     1      27.505   4.820  48.640  1.00  0.00     0.009 A 
HETATM   17  C15 UNL     1      26.859   3.835  49.383  1.00  0.00     0.031 A 
BRANCH  15  18
HETATM   18  C2  UNL     1      27.688   7.186  47.873  1.00  0.00     0.034 C 
HETATM   19  C1  UNL     1      28.216   8.288  48.723  1.00  0.00     0.010 C 
ENDBRANCH  15  18
ENDBRANCH  10  12
ENDBRANCH   8  10
ENDBRANCH   1   8
BRANCH   7  20
HETATM   20  C13 UNL     1      23.548   0.495  52.638  1.00  0.00     0.162 C 
BRANCH  20  21
HETATM   21  N3  UNL     1      23.167  -0.535  53.571  1.00  0.00    -0.364 N 
HETATM   22  H15 UNL     1      24.011  -0.868  54.139  1.00  0.00     0.162 HD
BRANCH  21  23
HETATM   23  C14 UNL     1      22.086  -1.285  54.031  1.00  0.00     0.348 C 
HETATM   24  O1  UNL     1      21.964  -1.388  55.259  1.00  0.00    -0.284 OA
ENDBRANCH  21  23
ENDBRANCH  20  21
ENDBRANCH   7  20
TORSDOF 7
ENDMDL
MODEL 9
REMARK VINA RESULT:      -6.5      3.401      4.557
REMARK  7 active torsions:
REMARK  status: ('A' for Active; 'I' for Inactive)
REMARK    1  A    between atoms: C2_2  and  C3_3 
REMARK    2  A    between atoms: C6_6  and  N1_7 
REMARK    3  A    between atoms: N1_7  and  N2_8 
REMARK    4  A    between atoms: N2_8  and  C7_9 
REMARK    5  A    between atoms: C12_15  and  C13_16 
REMARK    6  A    between atoms: C13_16  and  N3_17 
REMARK    7  A    between atoms: N3_17  and  C14_18 
ROOT
HETATM    1  C7  UNL     1      25.480   4.405  50.244  1.00  0.00     0.056 A 
HETATM    2  C8  UNL     1      26.487   3.768  49.561  1.00  0.00     0.033 A 
HETATM    3  C9  UNL     1      27.371   4.457  48.770  1.00  0.00     0.026 A 
HETATM    4  C10 UNL     1      27.167   5.830  48.723  1.00  0.00     0.034 A 
HETATM    5 CL1  UNL     1      28.272   6.763  47.730  1.00  0.00    -0.084 Cl
HETATM    6  C11 UNL     1      26.157   6.510  49.402  1.00  0.00     0.035 A 
HETATM    7  C12 UNL     1      25.280   5.757  50.193  1.00  0.00    -0.011 A 
ENDROOT
BRANCH   1   8
HETATM    8  N2  UNL     1      24.646   3.622  51.063  1.00  0.00    -0.300 N 
HETATM    9  H9  UNL     1      23.707   3.231  51.279  1.00  0.00     0.187 HD
BRANCH   8  10
HETATM   10  N1  UNL     1      25.580   3.168  52.039  1.00  0.00    -0.300 N 
HETATM   11  H8  UNL     1      26.057   3.623  52.863  1.00  0.00     0.187 HD
BRANCH  10  12
HETATM   12  C6  UNL     1      26.216   1.917  52.280  1.00  0.00     0.048 A 
HETATM   13  C5  UNL     1      27.469   2.143  52.868  1.00  0.00     0.031 A 
HETATM   14  C4  UNL     1      28.307   1.099  53.225  1.00  0.00     0.009 A 
HETATM   15  C3  UNL     1      27.875  -0.198  52.984  1.00  0.00    -0.058 A 
HETATM   16  C16 UNL     1      26.651  -0.445  52.410  1.00  0.00     0.009 A 
HETATM   17  C15 UNL     1      25.829   0.624  52.061  1.00  0.00     0.031 A 
BRANCH  15  18
HETATM   18  C2  UNL     1      28.776  -1.318  53.378  1.00  0.00     0.034 C 
HETATM   19  C1  UNL     1      30.149  -0.876  53.749  1.00  0.00     0.010 C 
ENDBRANCH  15  18
ENDBRANCH  10  12
ENDBRANCH   8  10
ENDBRANCH   1   8
BRANCH   7  20
HETATM   20  C13 UNL     1      24.211   6.559  50.834  1.00  0.00     0.162 C 
BRANCH  20  21
HETATM   21  N3  UNL     1      22.947   6.493  50.146  1.00  0.00    -0.364 N 
HETATM   22  H15 UNL     1      22.334   7.337  50.390  1.00  0.00     0.162 HD
BRANCH  21  23
HETATM   23  C14 UNL     1      22.195   5.729  49.257  1.00  0.00     0.348 C 
HETATM   24  O1  UNL     1      21.983   4.551  49.577  1.00  0.00    -0.284 OA
ENDBRANCH  21  23
ENDBRANCH  20  21
ENDBRANCH   7  20
TORSDOF 7
ENDMDL
