MODEL 1
REMARK VINA RESULT:      -9.5      0.000      0.000
REMARK  5 active torsions:
REMARK  status: ('A' for Active; 'I' for Inactive)
REMARK    1  A    between atoms: C2_2  and  C3_3 
REMARK    2  A    between atoms: C3_3  and  C4_4 
REMARK    3  A    between atoms: C3_3  and  N4_29 
REMARK    4  A    between atoms: C13_14  and  O1_15 
REMARK    5  A    between atoms: C22_27  and  O2_28 
ROOT
HETATM    1  C4  UNL     1      25.855   0.058  53.697  1.00  0.00    -0.014 C 
HETATM    2  C5  UNL     1      26.105   1.254  53.223  1.00  0.00     0.001 C 
HETATM    3  C6  UNL     1      27.000   2.301  52.740  1.00  0.00     0.147 C 
HETATM    4  N1  UNL     1      26.766   2.729  51.374  1.00  0.00    -0.384 N 
HETATM    5  C7  UNL     1      25.748   3.446  50.740  1.00  0.00     0.066 C 
HETATM    6  C8  UNL     1      24.511   3.816  50.612  1.00  0.00    -0.026 C 
HETATM    7  C9  UNL     1      24.187   5.286  50.912  1.00  0.00     0.053 C 
HETATM    8  C10 UNL     1      23.994   5.542  49.379  1.00  0.00    -0.002 C 
HETATM    9  C11 UNL     1      23.632   6.892  49.025  1.00  0.00     0.021 C 
HETATM   10  C12 UNL     1      25.307   5.016  48.843  1.00  0.00     0.023 C 
HETATM   11  C13 UNL     1      26.188   4.267  49.558  1.00  0.00     0.091 C 
HETATM   12  C15 UNL     1      22.962   4.441  49.040  1.00  0.00     0.132 C 
HETATM   13  C16 UNL     1      21.621   4.964  48.979  1.00  0.00     0.067 C 
HETATM   14  N2  UNL     1      20.544   5.382  48.932  1.00  0.00    -0.197 NA
HETATM   15  C17 UNL     1      23.125   3.464  50.216  1.00  0.00     0.131 C 
HETATM   16  N3  UNL     1      22.988   2.091  49.851  1.00  0.00    -0.389 N 
HETATM   17  C18 UNL     1      22.944   1.415  51.133  1.00  0.00     0.083 C 
HETATM   18  C19 UNL     1      22.413   0.991  52.272  1.00  0.00     0.019 C 
HETATM   19  C20 UNL     1      22.415   0.297  53.558  1.00  0.00     0.042 C 
HETATM   20  C21 UNL     1      23.416  -0.356  54.112  1.00  0.00     0.126 C 
HETATM   21  F1  UNL     1      22.733  -0.737  55.259  1.00  0.00    -0.208 F 
HETATM   22  C22 UNL     1      24.772  -0.855  54.118  1.00  0.00     0.211 C 
HETATM   23  H10 UNL     1      27.538   2.418  50.701  1.00  0.00     0.160 HD
HETATM   24  H22 UNL     1      22.908   1.412  49.078  1.00  0.00     0.159 HD
ENDROOT
BRANCH  11  25
HETATM   25  O1  UNL     1      27.517   4.367  49.051  1.00  0.00    -0.354 OA
HETATM   26  C14 UNL     1      27.963   5.547  48.445  1.00  0.00     0.210 C 
ENDBRANCH  11  25
BRANCH   1  27
HETATM   27  C3  UNL     1      27.253  -0.405  53.732  1.00  0.00     0.253 C 
BRANCH  27  28
HETATM   28  C2  UNL     1      28.056   0.098  54.893  1.00  0.00     0.036 C 
HETATM   29  C1  UNL     1      29.284   0.847  54.477  1.00  0.00     0.007 C 
ENDBRANCH  27  28
BRANCH  27  30
HETATM   30  N4  UNL     1      27.494  -1.777  53.377  1.00  0.00     0.088 NA
HETATM   31  C23 UNL     1      26.896  -2.108  52.099  1.00  0.00     0.310 C 
HETATM   32  C24 UNL     1      28.922  -1.969  53.212  1.00  0.00     0.310 C 
ENDBRANCH  27  30
ENDBRANCH   1  27
BRANCH  22  33
HETATM   33  O2  UNL     1      25.054  -1.334  55.431  1.00  0.00    -0.384 OA
HETATM   34  H27 UNL     1      25.090  -2.305  55.443  1.00  0.00     0.211 HD
ENDBRANCH  22  33
TORSDOF 5
ENDMDL
MODEL 2
REMARK VINA RESULT:      -8.6      3.737      7.923
REMARK  5 active torsions:
REMARK  status: ('A' for Active; 'I' for Inactive)
REMARK    1  A    between atoms: C2_2  and  C3_3 
REMARK    2  A    between atoms: C3_3  and  C4_4 
REMARK    3  A    between atoms: C3_3  and  N4_29 
REMARK    4  A    between atoms: C13_14  and  O1_15 
REMARK    5  A    between atoms: C22_27  and  O2_28 
ROOT
HETATM    1  C4  UNL     1      26.686   7.907  48.349  1.00  0.00    -0.014 C 
HETATM    2  C5  UNL     1      26.573   6.609  48.492  1.00  0.00     0.001 C 
HETATM    3  C6  UNL     1      27.117   5.256  48.573  1.00  0.00     0.147 C 
HETATM    4  N1  UNL     1      26.867   4.568  49.825  1.00  0.00    -0.384 N 
HETATM    5  C7  UNL     1      25.727   4.038  50.434  1.00  0.00     0.066 C 
HETATM    6  C8  UNL     1      24.451   4.027  50.671  1.00  0.00    -0.026 C 
HETATM    7  C9  UNL     1      23.645   2.851  50.100  1.00  0.00     0.053 C 
HETATM    8  C10 UNL     1      23.504   2.264  51.545  1.00  0.00    -0.002 C 
HETATM    9  C11 UNL     1      22.754   1.036  51.635  1.00  0.00     0.021 C 
HETATM   10  C12 UNL     1      24.955   2.220  51.969  1.00  0.00     0.023 C 
HETATM   11  C13 UNL     1      25.971   2.841  51.312  1.00  0.00     0.091 C 
HETATM   12  C15 UNL     1      22.915   3.487  52.287  1.00  0.00     0.132 C 
HETATM   13  C16 UNL     1      21.487   3.382  52.442  1.00  0.00     0.067 C 
HETATM   14  N2  UNL     1      20.340   3.301  52.564  1.00  0.00    -0.197 NA
HETATM   15  C17 UNL     1      23.291   4.650  51.354  1.00  0.00     0.131 C 
HETATM   16  N3  UNL     1      23.636   5.853  52.039  1.00  0.00    -0.389 N 
HETATM   17  C18 UNL     1      23.710   6.828  50.969  1.00  0.00     0.083 C 
HETATM   18  C19 UNL     1      23.255   7.677  50.057  1.00  0.00     0.019 C 
HETATM   19  C20 UNL     1      23.378   8.657  48.979  1.00  0.00     0.042 C 
HETATM   20  C21 UNL     1      24.488   9.111  48.436  1.00  0.00     0.126 C 
HETATM   21  F1  UNL     1      23.875   9.967  47.530  1.00  0.00    -0.208 F 
HETATM   22  C22 UNL     1      25.927   9.174  48.326  1.00  0.00     0.211 C 
HETATM   23  H10 UNL     1      27.750   4.448  50.418  1.00  0.00     0.160 HD
HETATM   24  H22 UNL     1      23.843   6.294  52.949  1.00  0.00     0.159 HD
ENDROOT
BRANCH  11  25
HETATM   25  O1  UNL     1      27.233   2.225  51.563  1.00  0.00    -0.354 OA
HETATM   26  C14 UNL     1      27.598   1.852  52.862  1.00  0.00     0.210 C 
ENDBRANCH  11  25
BRANCH   1  27
HETATM   27  C3  UNL     1      28.151   7.932  48.196  1.00  0.00     0.253 C 
BRANCH  27  28
HETATM   28  C2  UNL     1      28.663   7.367  46.906  1.00  0.00     0.036 C 
HETATM   29  C1  UNL     1      28.601   8.343  45.772  1.00  0.00     0.007 C 
ENDBRANCH  27  28
BRANCH  27  30
HETATM   30  N4  UNL     1      28.834   9.111  48.654  1.00  0.00     0.088 NA
HETATM   31  C23 UNL     1      28.342   9.542  49.948  1.00  0.00     0.310 C 
HETATM   32  C24 UNL     1      30.235   8.792  48.846  1.00  0.00     0.310 C 
ENDBRANCH  27  30
ENDBRANCH   1  27
BRANCH  22  33
HETATM   33  O2  UNL     1      26.242   9.882  47.129  1.00  0.00    -0.384 OA
HETATM   34  H27 UNL     1      25.431  10.142  46.660  1.00  0.00     0.211 HD
ENDBRANCH  22  33
TORSDOF 5
ENDMDL
MODEL 3
REMARK VINA RESULT:      -8.5      1.579      2.333
REMARK  5 active torsions:
REMARK  status: ('A' for Active; 'I' for Inactive)
REMARK    1  A    between atoms: C2_2  and  C3_3 
REMARK    2  A    between atoms: C3_3  and  C4_4 
REMARK    3  A    between atoms: C3_3  and  N4_29 
REMARK    4  A    between atoms: C13_14  and  O1_15 
REMARK    5  A    between atoms: C22_27  and  O2_28 
ROOT
HETATM    1  C4  UNL     1      25.170  -0.045  53.877  1.00  0.00    -0.014 C 
HETATM    2  C5  UNL     1      25.111   1.178  53.413  1.00  0.00     0.001 C 
HETATM    3  C6  UNL     1      25.693   2.364  52.791  1.00  0.00     0.147 C 
HETATM    4  N1  UNL     1      25.088   2.756  51.531  1.00  0.00    -0.384 N 
HETATM    5  C7  UNL     1      23.851   3.298  51.173  1.00  0.00     0.066 C 
HETATM    6  C8  UNL     1      22.575   3.458  51.342  1.00  0.00    -0.026 C 
HETATM    7  C9  UNL     1      22.096   4.851  51.771  1.00  0.00     0.053 C 
HETATM    8  C10 UNL     1      21.520   5.082  50.333  1.00  0.00    -0.002 C 
HETATM    9  C11 UNL     1      20.875   6.355  50.129  1.00  0.00     0.021 C 
HETATM   10  C12 UNL     1      22.744   4.786  49.494  1.00  0.00     0.023 C 
HETATM   11  C13 UNL     1      23.873   4.189  49.961  1.00  0.00     0.091 C 
HETATM   12  C15 UNL     1      20.629   3.827  50.184  1.00  0.00     0.132 C 
HETATM   13  C16 UNL     1      19.243   4.120  50.446  1.00  0.00     0.067 C 
HETATM   14  N2  UNL     1      18.131   4.353  50.660  1.00  0.00    -0.197 NA
HETATM   15  C17 UNL     1      21.210   2.883  51.249  1.00  0.00     0.131 C 
HETATM   16  N3  UNL     1      21.216   1.509  50.863  1.00  0.00    -0.389 N 
HETATM   17  C18 UNL     1      21.574   0.826  52.091  1.00  0.00     0.083 C 
HETATM   18  C19 UNL     1      21.391   0.312  53.300  1.00  0.00     0.019 C 
HETATM   19  C20 UNL     1      21.797  -0.381  54.521  1.00  0.00     0.042 C 
HETATM   20  C21 UNL     1      22.989  -0.863  54.808  1.00  0.00     0.126 C 
HETATM   21  F1  UNL     1      22.655  -1.360  56.060  1.00  0.00    -0.208 F 
HETATM   22  C22 UNL     1      24.373  -1.129  54.489  1.00  0.00     0.211 C 
HETATM   23  H10 UNL     1      25.727   2.583  50.690  1.00  0.00     0.160 HD
HETATM   24  H22 UNL     1      21.073   0.831  50.098  1.00  0.00     0.159 HD
ENDROOT
BRANCH  11  25
HETATM   25  O1  UNL     1      25.018   4.512  49.175  1.00  0.00    -0.354 OA
HETATM   26  C14 UNL     1      25.712   5.710  49.383  1.00  0.00     0.210 C 
ENDBRANCH  11  25
BRANCH   1  27
HETATM   27  C3  UNL     1      26.596  -0.269  53.580  1.00  0.00     0.253 C 
BRANCH  27  28
HETATM   28  C2  UNL     1      26.886  -0.724  52.182  1.00  0.00     0.036 C 
HETATM   29  C1  UNL     1      26.886  -2.215  52.037  1.00  0.00     0.007 C 
ENDBRANCH  27  28
BRANCH  27  30
HETATM   30  N4  UNL     1      27.530   0.684  54.113  1.00  0.00     0.088 NA
HETATM   31  C23 UNL     1      28.139   0.203  55.337  1.00  0.00     0.310 C 
HETATM   32  C24 UNL     1      28.616   0.849  53.166  1.00  0.00     0.310 C 
ENDBRANCH  27  30
ENDBRANCH   1  27
BRANCH  22  33
HETATM   33  O2  UNL     1      25.019  -1.563  55.683  1.00  0.00    -0.384 OA
HETATM   34  H27 UNL     1      24.489  -2.242  56.133  1.00  0.00     0.211 HD
ENDBRANCH  22  33
TORSDOF 5
ENDMDL
MODEL 4
REMARK VINA RESULT:      -8.5      4.234      8.178
REMARK  5 active torsions:
REMARK  status: ('A' for Active; 'I' for Inactive)
REMARK    1  A    between atoms: C2_2  and  C3_3 
REMARK    2  A    between atoms: C3_3  and  C4_4 
REMARK    3  A    between atoms: C3_3  and  N4_29 
REMARK    4  A    between atoms: C13_14  and  O1_15 
REMARK    5  A    between atoms: C22_27  and  O2_28 
ROOT
HETATM    1  C4  UNL     1      29.368   7.882  48.147  1.00  0.00    -0.014 C 
HETATM    2  C5  UNL     1      28.692   6.760  48.133  1.00  0.00     0.001 C 
HETATM    3  C6  UNL     1      28.587   5.304  48.140  1.00  0.00     0.147 C 
HETATM    4  N1  UNL     1      27.864   4.745  49.267  1.00  0.00    -0.384 N 
HETATM    5  C7  UNL     1      26.523   4.743  49.660  1.00  0.00     0.066 C 
HETATM    6  C8  UNL     1      25.344   5.281  49.723  1.00  0.00    -0.026 C 
HETATM    7  C9  UNL     1      24.222   4.599  48.928  1.00  0.00     0.053 C 
HETATM    8  C10 UNL     1      23.607   4.076  50.270  1.00  0.00    -0.002 C 
HETATM    9  C11 UNL     1      22.403   3.298  50.128  1.00  0.00     0.021 C 
HETATM   10  C12 UNL     1      24.809   3.386  50.875  1.00  0.00     0.023 C 
HETATM   11  C13 UNL     1      26.086   3.526  50.428  1.00  0.00     0.091 C 
HETATM   12  C15 UNL     1      23.481   5.404  51.055  1.00  0.00     0.132 C 
HETATM   13  C16 UNL     1      22.139   5.928  51.007  1.00  0.00     0.067 C 
HETATM   14  N2  UNL     1      21.064   6.351  50.967  1.00  0.00    -0.197 NA
HETATM   15  C17 UNL     1      24.464   6.321  50.309  1.00  0.00     0.131 C 
HETATM   16  N3  UNL     1      25.169   7.225  51.160  1.00  0.00    -0.389 N 
HETATM   17  C18 UNL     1      25.827   8.111  50.220  1.00  0.00     0.083 C 
HETATM   18  C19 UNL     1      25.935   9.108  49.351  1.00  0.00     0.019 C 
HETATM   19  C20 UNL     1      26.639   9.977  48.411  1.00  0.00     0.042 C 
HETATM   20  C21 UNL     1      27.911   9.922  48.071  1.00  0.00     0.126 C 
HETATM   21  F1  UNL     1      27.880  10.994  47.189  1.00  0.00    -0.208 F 
HETATM   22  C22 UNL     1      29.236   9.354  48.160  1.00  0.00     0.211 C 
HETATM   23  H10 UNL     1      28.501   4.228  49.955  1.00  0.00     0.160 HD
HETATM   24  H22 UNL     1      25.390   7.495  52.131  1.00  0.00     0.159 HD
ENDROOT
BRANCH  11  25
HETATM   25  O1  UNL     1      26.905   2.412  50.777  1.00  0.00    -0.354 OA
HETATM   26  C14 UNL     1      26.422   1.410  51.627  1.00  0.00     0.210 C 
ENDBRANCH  11  25
BRANCH   1  27
HETATM   27  C3  UNL     1      30.708   7.271  48.193  1.00  0.00     0.253 C 
BRANCH  27  28
HETATM   28  C2  UNL     1      31.487   7.358  46.916  1.00  0.00     0.036 C 
HETATM   29  C1  UNL     1      31.897   6.020  46.385  1.00  0.00     0.007 C 
ENDBRANCH  27  28
BRANCH  27  30
HETATM   30  N4  UNL     1      31.479   7.479  49.388  1.00  0.00     0.088 NA
HETATM   31  C23 UNL     1      31.887   6.221  49.982  1.00  0.00     0.310 C 
HETATM   32  C24 UNL     1      32.704   8.170  49.036  1.00  0.00     0.310 C 
ENDBRANCH  27  30
ENDBRANCH   1  27
BRANCH  22  33
HETATM   33  O2  UNL     1      30.015   9.899  47.097  1.00  0.00    -0.384 OA
HETATM   34  H27 UNL     1      29.544   9.822  46.251  1.00  0.00     0.211 HD
ENDBRANCH  22  33
TORSDOF 5
ENDMDL
MODEL 5
REMARK VINA RESULT:      -8.2      5.358      8.733
REMARK  5 active torsions:
REMARK  status: ('A' for Active; 'I' for Inactive)
REMARK    1  A    between atoms: C2_2  and  C3_3 
REMARK    2  A    between atoms: C3_3  and  C4_4 
REMARK    3  A    between atoms: C3_3  and  N4_29 
REMARK    4  A    between atoms: C13_14  and  O1_15 
REMARK    5  A    between atoms: C22_27  and  O2_28 
ROOT
HETATM    1  C4  UNL     1      16.248   0.817  51.951  1.00  0.00    -0.014 C 
HETATM    2  C5  UNL     1      17.288   1.377  51.384  1.00  0.00     0.001 C 
HETATM    3  C6  UNL     1      17.961   2.476  50.696  1.00  0.00     0.147 C 
HETATM    4  N1  UNL     1      19.101   3.033  51.398  1.00  0.00    -0.384 N 
HETATM    5  C7  UNL     1      20.384   2.567  51.696  1.00  0.00     0.066 C 
HETATM    6  C8  UNL     1      21.228   1.619  51.966  1.00  0.00    -0.026 C 
HETATM    7  C9  UNL     1      22.292   1.308  50.905  1.00  0.00     0.053 C 
HETATM    8  C10 UNL     1      23.377   1.975  51.817  1.00  0.00    -0.002 C 
HETATM    9  C11 UNL     1      24.715   1.967  51.281  1.00  0.00     0.021 C 
HETATM   10  C12 UNL     1      22.740   3.324  52.063  1.00  0.00     0.023 C 
HETATM   11  C13 UNL     1      21.445   3.630  51.780  1.00  0.00     0.091 C 
HETATM   12  C15 UNL     1      23.156   1.190  53.132  1.00  0.00     0.132 C 
HETATM   13  C16 UNL     1      24.121   0.133  53.292  1.00  0.00     0.067 C 
HETATM   14  N2  UNL     1      24.893  -0.719  53.420  1.00  0.00    -0.197 NA
HETATM   15  C17 UNL     1      21.738   0.627  52.944  1.00  0.00     0.131 C 
HETATM   16  N3  UNL     1      20.967   0.591  54.145  1.00  0.00    -0.389 N 
HETATM   17  C18 UNL     1      19.800  -0.178  53.761  1.00  0.00     0.083 C 
HETATM   18  C19 UNL     1      19.093  -1.263  53.473  1.00  0.00     0.019 C 
HETATM   19  C20 UNL     1      17.892  -1.998  53.082  1.00  0.00     0.042 C 
HETATM   20  C21 UNL     1      16.706  -1.498  52.801  1.00  0.00     0.126 C 
HETATM   21  F1  UNL     1      16.088  -2.712  52.532  1.00  0.00    -0.208 F 
HETATM   22  C22 UNL     1      15.783  -0.396  52.655  1.00  0.00     0.211 C 
HETATM   23  H10 UNL     1      18.915   4.016  51.780  1.00  0.00     0.160 HD
HETATM   24  H22 UNL     1      20.906   0.876  55.135  1.00  0.00     0.159 HD
ENDROOT
BRANCH  11  25
HETATM   25  O1  UNL     1      21.251   5.030  51.587  1.00  0.00    -0.354 OA
HETATM   26  C14 UNL     1      22.316   5.850  51.195  1.00  0.00     0.210 C 
ENDBRANCH  11  25
BRANCH   1  27
HETATM   27  C3  UNL     1      15.319   1.942  51.747  1.00  0.00     0.253 C 
BRANCH  27  28
HETATM   28  C2  UNL     1      14.342   1.762  50.626  1.00  0.00     0.036 C 
HETATM   29  C1  UNL     1      14.542   2.740  49.510  1.00  0.00     0.007 C 
ENDBRANCH  27  28
BRANCH  27  30
HETATM   30  N4  UNL     1      14.778   2.562  52.926  1.00  0.00     0.088 NA
HETATM   31  C23 UNL     1      15.074   3.982  52.963  1.00  0.00     0.310 C 
HETATM   32  C24 UNL     1      13.333   2.457  52.886  1.00  0.00     0.310 C 
ENDBRANCH  27  30
ENDBRANCH   1  27
BRANCH  22  33
HETATM   33  O2  UNL     1      14.614  -0.890  52.006  1.00  0.00    -0.384 OA
HETATM   34  H27 UNL     1      14.821  -1.684  51.484  1.00  0.00     0.211 HD
ENDBRANCH  22  33
TORSDOF 5
ENDMDL
MODEL 6
REMARK VINA RESULT:      -7.9      3.541      8.801
REMARK  5 active torsions:
REMARK  status: ('A' for Active; 'I' for Inactive)
REMARK    1  A    between atoms: C2_2  and  C3_3 
REMARK    2  A    between atoms: C3_3  and  C4_4 
REMARK    3  A    between atoms: C3_3  and  N4_29 
REMARK    4  A    between atoms: C13_14  and  O1_15 
REMARK    5  A    between atoms: C22_27  and  O2_28 
ROOT
HETATM    1  C4  UNL     1      23.456   6.833  47.360  1.00  0.00    -0.014 C 
HETATM    2  C5  UNL     1      23.062   6.108  48.378  1.00  0.00     0.001 C 
HETATM    3  C6  UNL     1      22.085   5.292  49.093  1.00  0.00     0.147 C 
HETATM    4  N1  UNL     1      22.505   3.930  49.367  1.00  0.00    -0.384 N 
HETATM    5  C7  UNL     1      23.456   3.357  50.215  1.00  0.00     0.066 C 
HETATM    6  C8  UNL     1      24.584   3.376  50.856  1.00  0.00    -0.026 C 
HETATM    7  C9  UNL     1      24.516   3.446  52.387  1.00  0.00     0.053 C 
HETATM    8  C10 UNL     1      24.968   1.948  52.462  1.00  0.00    -0.002 C 
HETATM    9  C11 UNL     1      25.100   1.416  53.795  1.00  0.00     0.021 C 
HETATM   10  C12 UNL     1      23.941   1.304  51.559  1.00  0.00     0.023 C 
HETATM   11  C13 UNL     1      23.109   1.985  50.726  1.00  0.00     0.091 C 
HETATM   12  C15 UNL     1      26.259   2.004  51.612  1.00  0.00     0.132 C 
HETATM   13  C16 UNL     1      27.440   2.076  52.435  1.00  0.00     0.067 C 
HETATM   14  N2  UNL     1      28.388   2.137  53.094  1.00  0.00    -0.197 NA
HETATM   15  C17 UNL     1      26.064   3.296  50.802  1.00  0.00     0.131 C 
HETATM   16  N3  UNL     1      26.565   3.223  49.468  1.00  0.00    -0.389 N 
HETATM   17  C18 UNL     1      26.482   4.597  49.013  1.00  0.00     0.083 C 
HETATM   18  C19 UNL     1      26.840   5.870  48.898  1.00  0.00     0.019 C 
HETATM   19  C20 UNL     1      26.716   7.243  48.415  1.00  0.00     0.042 C 
HETATM   20  C21 UNL     1      25.784   7.730  47.621  1.00  0.00     0.126 C 
HETATM   21  F1  UNL     1      26.276   9.028  47.587  1.00  0.00    -0.208 F 
HETATM   22  C22 UNL     1      24.595   7.597  46.811  1.00  0.00     0.211 C 
HETATM   23  H10 UNL     1      21.975   3.206  48.784  1.00  0.00     0.160 HD
HETATM   24  H22 UNL     1      26.949   2.617  48.726  1.00  0.00     0.159 HD
ENDROOT
BRANCH  11  25
HETATM   25  O1  UNL     1      21.927   1.248  50.422  1.00  0.00    -0.354 OA
HETATM   26  C14 UNL     1      21.405   0.328  51.339  1.00  0.00     0.210 C 
ENDBRANCH  11  25
BRANCH   1  27
HETATM   27  C3  UNL     1      22.214   6.715  46.578  1.00  0.00     0.253 C 
BRANCH  27  28
HETATM   28  C2  UNL     1      21.336   7.929  46.597  1.00  0.00     0.036 C 
HETATM   29  C1  UNL     1      20.031   7.701  47.294  1.00  0.00     0.007 C 
ENDBRANCH  27  28
BRANCH  27  30
HETATM   30  N4  UNL     1      22.305   6.054  45.304  1.00  0.00     0.088 NA
HETATM   31  C23 UNL     1      21.396   4.928  45.223  1.00  0.00     0.310 C 
HETATM   32  C24 UNL     1      21.887   6.980  44.269  1.00  0.00     0.310 C 
ENDBRANCH  27  30
ENDBRANCH   1  27
BRANCH  22  33
HETATM   33  O2  UNL     1      24.153   8.909  46.469  1.00  0.00    -0.384 OA
HETATM   34  H27 UNL     1      23.887   8.949  45.535  1.00  0.00     0.211 HD
ENDBRANCH  22  33
TORSDOF 5
ENDMDL
MODEL 7
REMARK VINA RESULT:      -7.8      3.376      6.020
REMARK  5 active torsions:
REMARK  status: ('A' for Active; 'I' for Inactive)
REMARK    1  A    between atoms: C2_2  and  C3_3 
REMARK    2  A    between atoms: C3_3  and  C4_4 
REMARK    3  A    between atoms: C3_3  and  N4_29 
REMARK    4  A    between atoms: C13_14  and  O1_15 
REMARK    5  A    between atoms: C22_27  and  O2_28 
ROOT
HETATM    1  C4  UNL     1      25.273   1.529  52.162  1.00  0.00    -0.014 C 
HETATM    2  C5  UNL     1      24.219   0.787  51.929  1.00  0.00     0.001 C 
HETATM    3  C6  UNL     1      23.426  -0.430  52.077  1.00  0.00     0.147 C 
HETATM    4  N1  UNL     1      22.116  -0.241  52.673  1.00  0.00    -0.384 N 
HETATM    5  C7  UNL     1      20.930   0.361  52.245  1.00  0.00     0.066 C 
HETATM    6  C8  UNL     1      20.273   1.248  51.564  1.00  0.00    -0.026 C 
HETATM    7  C9  UNL     1      19.436   0.741  50.381  1.00  0.00     0.053 C 
HETATM    8  C10 UNL     1      18.132   1.006  51.208  1.00  0.00    -0.002 C 
HETATM    9  C11 UNL     1      16.901   0.690  50.527  1.00  0.00     0.021 C 
HETATM   10  C12 UNL     1      18.442   0.232  52.470  1.00  0.00     0.023 C 
HETATM   11  C13 UNL     1      19.671  -0.250  52.798  1.00  0.00     0.091 C 
HETATM   12  C15 UNL     1      18.344   2.489  51.595  1.00  0.00     0.132 C 
HETATM   13  C16 UNL     1      17.605   3.377  50.735  1.00  0.00     0.067 C 
HETATM   14  N2  UNL     1      17.015   4.091  50.043  1.00  0.00    -0.197 NA
HETATM   15  C17 UNL     1      19.860   2.664  51.408  1.00  0.00     0.131 C 
HETATM   16  N3  UNL     1      20.465   3.525  52.372  1.00  0.00    -0.389 N 
HETATM   17  C18 UNL     1      21.804   3.710  51.848  1.00  0.00     0.083 C 
HETATM   18  C19 UNL     1      22.750   4.205  51.059  1.00  0.00     0.019 C 
HETATM   19  C20 UNL     1      24.116   4.359  50.563  1.00  0.00     0.042 C 
HETATM   20  C21 UNL     1      25.199   3.752  51.003  1.00  0.00     0.126 C 
HETATM   21  F1  UNL     1      26.082   4.354  50.116  1.00  0.00    -0.208 F 
HETATM   22  C22 UNL     1      25.886   2.847  51.895  1.00  0.00     0.211 C 
HETATM   23  H10 UNL     1      22.047  -0.642  53.663  1.00  0.00     0.160 HD
HETATM   24  H22 UNL     1      20.343   4.049  53.252  1.00  0.00     0.159 HD
ENDROOT
BRANCH  11  25
HETATM   25  O1  UNL     1      19.595  -1.356  53.695  1.00  0.00    -0.354 OA
HETATM   26  C14 UNL     1      18.430  -2.127  53.780  1.00  0.00     0.210 C 
ENDBRANCH  11  25
BRANCH   1  27
HETATM   27  C3  UNL     1      25.969   0.565  53.032  1.00  0.00     0.253 C 
BRANCH  27  28
HETATM   28  C2  UNL     1      26.922  -0.351  52.327  1.00  0.00     0.036 C 
HETATM   29  C1  UNL     1      26.675  -1.797  52.624  1.00  0.00     0.007 C 
ENDBRANCH  27  28
BRANCH  27  30
HETATM   30  N4  UNL     1      26.425   1.049  54.306  1.00  0.00     0.088 NA
HETATM   31  C23 UNL     1      26.016   0.172  55.385  1.00  0.00     0.310 C 
HETATM   32  C24 UNL     1      27.875   1.041  54.314  1.00  0.00     0.310 C 
ENDBRANCH  27  30
ENDBRANCH   1  27
BRANCH  22  33
HETATM   33  O2  UNL     1      27.204   2.651  51.385  1.00  0.00    -0.384 OA
HETATM   34  H27 UNL     1      27.188   2.071  50.606  1.00  0.00     0.211 HD
ENDBRANCH  22  33
TORSDOF 5
ENDMDL
MODEL 8
REMARK VINA RESULT:      -7.7      7.622     11.320
REMARK  5 active torsions:
REMARK  status: ('A' for Active; 'I' for Inactive)
REMARK    1  A    between atoms: C2_2  and  C3_3 
REMARK    2  A    between atoms: C3_3  and  C4_4 
REMARK    3  A    between atoms: C3_3  and  N4_29 
REMARK    4  A    between atoms: C13_14  and  O1_15 
REMARK    5  A    between atoms: C22_27  and  O2_28 
ROOT
HETATM    1  C4  UNL     1      28.523   9.636  47.455  1.00  0.00    -0.014 C 
HETATM    2  C5  UNL     1      29.595   9.303  46.779  1.00  0.00     0.001 C 
HETATM    3  C6  UNL     1      30.845   9.608  46.089  1.00  0.00     0.147 C 
HETATM    4  N1  UNL     1      32.025   8.972  46.644  1.00  0.00    -0.384 N 
HETATM    5  C7  UNL     1      32.490   7.655  46.692  1.00  0.00     0.066 C 
HETATM    6  C8  UNL     1      32.302   6.372  46.741  1.00  0.00    -0.026 C 
HETATM    7  C9  UNL     1      32.700   5.561  45.500  1.00  0.00     0.053 C 
HETATM    8  C10 UNL     1      33.936   4.998  46.280  1.00  0.00    -0.002 C 
HETATM    9  C11 UNL     1      34.759   4.077  45.539  1.00  0.00     0.021 C 
HETATM   10  C12 UNL     1      34.582   6.286  46.740  1.00  0.00     0.023 C 
HETATM   11  C13 UNL     1      33.987   7.508  46.696  1.00  0.00     0.091 C 
HETATM   12  C15 UNL     1      33.238   4.437  47.542  1.00  0.00     0.132 C 
HETATM   13  C16 UNL     1      33.039   3.013  47.454  1.00  0.00     0.067 C 
HETATM   14  N2  UNL     1      32.876   1.870  47.384  1.00  0.00    -0.197 NA
HETATM   15  C17 UNL     1      31.896   5.188  47.537  1.00  0.00     0.131 C 
HETATM   16  N3  UNL     1      31.423   5.534  48.838  1.00  0.00    -0.389 N 
HETATM   17  C18 UNL     1      30.074   6.001  48.581  1.00  0.00     0.083 C 
HETATM   18  C19 UNL     1      28.778   5.903  48.318  1.00  0.00     0.019 C 
HETATM   19  C20 UNL     1      27.434   6.419  48.063  1.00  0.00     0.042 C 
HETATM   20  C21 UNL     1      27.058   7.680  48.019  1.00  0.00     0.126 C 
HETATM   21  F1  UNL     1      25.719   7.431  47.750  1.00  0.00    -0.208 F 
HETATM   22  C22 UNL     1      27.318   9.098  48.119  1.00  0.00     0.211 C 
HETATM   23  H10 UNL     1      32.679   9.664  47.134  1.00  0.00     0.160 HD
HETATM   24  H22 UNL     1      31.639   5.584  49.846  1.00  0.00     0.159 HD
ENDROOT
BRANCH  11  25
HETATM   25  O1  UNL     1      34.937   8.570  46.656  1.00  0.00    -0.354 OA
HETATM   26  C14 UNL     1      35.150   9.294  45.477  1.00  0.00     0.210 C 
ENDBRANCH  11  25
BRANCH   1  27
HETATM   27  C3  UNL     1      28.795  11.083  47.500  1.00  0.00     0.253 C 
BRANCH  27  28
HETATM   28  C2  UNL     1      27.944  11.915  46.591  1.00  0.00     0.036 C 
HETATM   29  C1  UNL     1      28.700  12.470  45.423  1.00  0.00     0.007 C 
ENDBRANCH  27  28
BRANCH  27  30
HETATM   30  N4  UNL     1      29.042  11.660  48.794  1.00  0.00     0.088 NA
HETATM   31  C23 UNL     1      30.425  12.072  48.936  1.00  0.00     0.310 C 
HETATM   32  C24 UNL     1      28.251  12.868  48.922  1.00  0.00     0.310 C 
ENDBRANCH  27  30
ENDBRANCH   1  27
BRANCH  22  33
HETATM   33  O2  UNL     1      26.171   9.786  47.625  1.00  0.00    -0.384 OA
HETATM   34  H27 UNL     1      25.520   9.923  48.334  1.00  0.00     0.211 HD
ENDBRANCH  22  33
TORSDOF 5
ENDMDL
MODEL 9
REMARK VINA RESULT:      -7.5      4.223      8.636
REMARK  5 active torsions:
REMARK  status: ('A' for Active; 'I' for Inactive)
REMARK    1  A    between atoms: C2_2  and  C3_3 
REMARK    2  A    between atoms: C3_3  and  C4_4 
REMARK    3  A    between atoms: C3_3  and  N4_29 
REMARK    4  A    between atoms: C13_14  and  O1_15 
REMARK    5  A    between atoms: C22_27  and  O2_28 
ROOT
HETATM    1  C4  UNL     1      18.356   4.089  49.769  1.00  0.00    -0.014 C 
HETATM    2  C5  UNL     1      19.022   3.671  50.817  1.00  0.00     0.001 C 
HETATM    3  C6  UNL     1      19.156   2.907  52.055  1.00  0.00     0.147 C 
HETATM    4  N1  UNL     1      20.193   1.893  52.042  1.00  0.00    -0.384 N 
HETATM    5  C7  UNL     1      21.589   1.928  52.031  1.00  0.00     0.066 C 
HETATM    6  C8  UNL     1      22.722   2.476  51.714  1.00  0.00    -0.026 C 
HETATM    7  C9  UNL     1      23.572   3.038  52.862  1.00  0.00     0.053 C 
HETATM    8  C10 UNL     1      24.569   1.842  52.691  1.00  0.00    -0.002 C 
HETATM    9  C11 UNL     1      25.693   1.851  53.593  1.00  0.00     0.021 C 
HETATM   10  C12 UNL     1      23.616   0.671  52.785  1.00  0.00     0.023 C 
HETATM   11  C13 UNL     1      22.261   0.771  52.718  1.00  0.00     0.091 C 
HETATM   12  C15 UNL     1      24.894   1.963  51.183  1.00  0.00     0.132 C 
HETATM   13  C16 UNL     1      26.149   2.635  50.959  1.00  0.00     0.067 C 
HETATM   14  N2  UNL     1      27.154   3.176  50.777  1.00  0.00    -0.197 NA
HETATM   15  C17 UNL     1      23.714   2.798  50.659  1.00  0.00     0.131 C 
HETATM   16  N3  UNL     1      23.274   2.420  49.354  1.00  0.00    -0.389 N 
HETATM   17  C18 UNL     1      22.348   3.479  49.004  1.00  0.00     0.083 C 
HETATM   18  C19 UNL     1      21.965   4.683  48.601  1.00  0.00     0.019 C 
HETATM   19  C20 UNL     1      20.995   5.721  48.258  1.00  0.00     0.042 C 
HETATM   20  C21 UNL     1      19.681   5.631  48.300  1.00  0.00     0.126 C 
HETATM   21  F1  UNL     1      19.426   6.923  47.861  1.00  0.00    -0.208 F 
HETATM   22  C22 UNL     1      18.454   4.907  48.542  1.00  0.00     0.211 C 
HETATM   23  H10 UNL     1      19.800   0.897  52.028  1.00  0.00     0.160 HD
HETATM   24  H22 UNL     1      23.346   1.731  48.590  1.00  0.00     0.159 HD
ENDROOT
BRANCH  11  25
HETATM   25  O1  UNL     1      21.607  -0.323  53.357  1.00  0.00    -0.354 OA
HETATM   26  C14 UNL     1      21.728  -0.518  54.738  1.00  0.00     0.210 C 
ENDBRANCH  11  25
BRANCH   1  27
HETATM   27  C3  UNL     1      17.104   3.372  50.068  1.00  0.00     0.253 C 
BRANCH  27  28
HETATM   28  C2  UNL     1      16.001   4.227  50.613  1.00  0.00     0.036 C 
HETATM   29  C1  UNL     1      15.683   3.933  52.047  1.00  0.00     0.007 C 
ENDBRANCH  27  28
BRANCH  27  30
HETATM   30  N4  UNL     1      16.685   2.371  49.126  1.00  0.00     0.088 NA
HETATM   31  C23 UNL     1      16.521   1.078  49.763  1.00  0.00     0.310 C 
HETATM   32  C24 UNL     1      15.378   2.732  48.614  1.00  0.00     0.310 C 
ENDBRANCH  27  30
ENDBRANCH   1  27
BRANCH  22  33
HETATM   33  O2  UNL     1      17.383   5.848  48.525  1.00  0.00    -0.384 OA
HETATM   34  H27 UNL     1      17.420   6.425  49.306  1.00  0.00     0.211 HD
ENDBRANCH  22  33
TORSDOF 5
ENDMDL
