MODEL 1
REMARK VINA RESULT:      -8.5      0.000      0.000
REMARK  5 active torsions:
REMARK  status: ('A' for Active; 'I' for Inactive)
REMARK    1  A    between atoms: C2_2  and  O1_3 
REMARK    2  A    between atoms: C2_2  and  O2_4 
REMARK    3  A    between atoms: O2_4  and  C3_5 
REMARK    4  A    between atoms: C6_11  and  N3_12 
REMARK    5  A    between atoms: N3_12  and  C7_13 
ROOT
HETATM    1  C3  UNL     1      19.978   0.356  52.341  1.00  0.00     0.122 A 
HETATM    2  P1  UNL     1      20.271  -0.520  53.835  1.00  0.00     0.042 P 
HETATM    3  C4  UNL     1      21.981  -0.655  54.213  1.00  0.00     0.090 A 
HETATM    4  N1  UNL     1      22.429  -1.284  55.312  1.00  0.00    -0.240 NA
HETATM    5  C5  UNL     1      23.746  -1.365  55.568  1.00  0.00     0.236 A 
HETATM    6  N2  UNL     1      24.565  -0.794  54.683  1.00  0.00    -0.223 NA
HETATM    7  C6  UNL     1      24.158  -0.159  53.577  1.00  0.00     0.145 A 
HETATM    8  C13 UNL     1      22.815  -0.063  53.291  1.00  0.00     0.076 A 
HETATM    9  C14 UNL     1      22.406   0.606  52.134  1.00  0.00     0.121 A 
HETATM   10  C15 UNL     1      21.117   0.788  51.715  1.00  0.00     0.138 A 
HETATM   11  O3  UNL     1      20.839   1.472  50.540  1.00  0.00    -0.343 OA
HETATM   12  C16 UNL     1      21.680   2.525  50.039  1.00  0.00     0.202 C 
HETATM   13  C17 UNL     1      23.038   2.460  50.699  1.00  0.00     0.202 C 
HETATM   14  O4  UNL     1      23.279   1.183  51.239  1.00  0.00    -0.345 OA
ENDROOT
BRANCH   7  15
HETATM   15  N3  UNL     1      25.180   0.391  52.762  1.00  0.00    -0.340 N 
HETATM   16  H7  UNL     1      25.320   1.015  51.949  1.00  0.00     0.167 HD
BRANCH  15  17
HETATM   17  C7  UNL     1      26.555   0.063  53.020  1.00  0.00     0.035 A 
HETATM   18  C8  UNL     1      27.200  -1.136  52.798  1.00  0.00     0.032 A 
HETATM   19  C9  UNL     1      28.520  -1.389  53.082  1.00  0.00     0.046 A 
HETATM   20  C10 UNL     1      29.280  -0.383  53.634  1.00  0.00     0.138 A 
HETATM   21  F1  UNL     1      30.569  -0.726  53.878  1.00  0.00    -0.204 F 
HETATM   22  C11 UNL     1      28.704   0.839  53.884  1.00  0.00     0.074 A 
HETATM   23 CL1  UNL     1      29.778   2.025  54.583  1.00  0.00    -0.081 Cl
HETATM   24  C12 UNL     1      27.368   1.050  53.581  1.00  0.00     0.056 A 
ENDBRANCH  15  17
ENDBRANCH   7  15
BRANCH   1  25
HETATM   25  O2  UNL     1      18.638   0.438  52.084  1.00  0.00    -0.317 OA
BRANCH  25  26
HETATM   26  C2  UNL     1      17.690  -0.516  51.808  1.00  0.00     0.259 C 
HETATM   27  C1  UNL     1      16.935  -0.202  50.529  1.00  0.00     0.071 C 
BRANCH  26  28
HETATM   28  O1  UNL     1      16.737  -0.514  52.856  1.00  0.00    -0.371 OA
HETATM   29  H5  UNL     1      16.500   0.412  53.139  1.00  0.00     0.212 HD
ENDBRANCH  26  28
ENDBRANCH  25  26
ENDBRANCH   1  25
TORSDOF 5
ENDMDL
MODEL 2
REMARK VINA RESULT:      -8.4      2.128      3.502
REMARK  5 active torsions:
REMARK  status: ('A' for Active; 'I' for Inactive)
REMARK    1  A    between atoms: C2_2  and  O1_3 
REMARK    2  A    between atoms: C2_2  and  O2_4 
REMARK    3  A    between atoms: O2_4  and  C3_5 
REMARK    4  A    between atoms: C6_11  and  N3_12 
REMARK    5  A    between atoms: N3_12  and  C7_13 
ROOT
HETATM    1  C3  UNL     1      20.786   0.608  51.152  1.00  0.00     0.122 A 
HETATM    2  P1  UNL     1      21.608   1.608  49.965  1.00  0.00     0.042 P 
HETATM    3  C4  UNL     1      23.199   2.121  50.501  1.00  0.00     0.090 A 
HETATM    4  N1  UNL     1      24.001   2.891  49.746  1.00  0.00    -0.240 NA
HETATM    5  C5  UNL     1      25.215   3.261  50.191  1.00  0.00     0.236 A 
HETATM    6  N2  UNL     1      25.568   2.827  51.403  1.00  0.00    -0.223 NA
HETATM    7  C6  UNL     1      24.798   2.060  52.184  1.00  0.00     0.145 A 
HETATM    8  C13 UNL     1      23.551   1.668  51.753  1.00  0.00     0.076 A 
HETATM    9  C14 UNL     1      22.760   0.864  52.580  1.00  0.00     0.121 A 
HETATM   10  C15 UNL     1      21.509   0.392  52.295  1.00  0.00     0.138 A 
HETATM   11  O3  UNL     1      20.822  -0.400  53.205  1.00  0.00    -0.343 OA
HETATM   12  C16 UNL     1      21.490  -1.278  54.127  1.00  0.00     0.202 C 
HETATM   13  C17 UNL     1      22.946  -0.892  54.246  1.00  0.00     0.202 C 
HETATM   14  O4  UNL     1      23.155   0.435  53.827  1.00  0.00    -0.345 OA
ENDROOT
BRANCH   7  15
HETATM   15  N3  UNL     1      25.352   1.693  53.437  1.00  0.00    -0.340 N 
HETATM   16  H7  UNL     1      25.160   1.740  54.452  1.00  0.00     0.167 HD
BRANCH  15  17
HETATM   17  C7  UNL     1      26.619   1.018  53.488  1.00  0.00     0.035 A 
HETATM   18  C8  UNL     1      27.849   1.540  53.833  1.00  0.00     0.032 A 
HETATM   19  C9  UNL     1      29.030   0.838  53.846  1.00  0.00     0.046 A 
HETATM   20  C10 UNL     1      29.012  -0.492  53.491  1.00  0.00     0.138 A 
HETATM   21  F1  UNL     1      30.224  -1.098  53.535  1.00  0.00    -0.204 F 
HETATM   22  C11 UNL     1      27.822  -1.078  53.134  1.00  0.00     0.074 A 
HETATM   23 CL1  UNL     1      27.939  -2.767  52.707  1.00  0.00    -0.081 Cl
HETATM   24  C12 UNL     1      26.654  -0.333  53.134  1.00  0.00     0.056 A 
ENDBRANCH  15  17
ENDBRANCH   7  15
BRANCH   1  25
HETATM   25  O2  UNL     1      19.554   0.232  50.696  1.00  0.00    -0.317 OA
BRANCH  25  26
HETATM   26  C2  UNL     1      18.285   0.450  51.174  1.00  0.00     0.259 C 
HETATM   27  C1  UNL     1      18.081   1.898  51.582  1.00  0.00     0.071 C 
BRANCH  26  28
HETATM   28  O1  UNL     1      18.108  -0.333  52.341  1.00  0.00    -0.371 OA
HETATM   29  H5  UNL     1      18.082   0.229  53.163  1.00  0.00     0.212 HD
ENDBRANCH  26  28
ENDBRANCH  25  26
ENDBRANCH   1  25
TORSDOF 5
ENDMDL
MODEL 3
REMARK VINA RESULT:      -8.3      2.641      3.969
REMARK  5 active torsions:
REMARK  status: ('A' for Active; 'I' for Inactive)
REMARK    1  A    between atoms: C2_2  and  O1_3 
REMARK    2  A    between atoms: C2_2  and  O2_4 
REMARK    3  A    between atoms: O2_4  and  C3_5 
REMARK    4  A    between atoms: C6_11  and  N3_12 
REMARK    5  A    between atoms: N3_12  and  C7_13 
ROOT
HETATM    1  C3  UNL     1      21.323   2.490  50.706  1.00  0.00     0.122 A 
HETATM    2  P1  UNL     1      22.470   3.182  49.569  1.00  0.00     0.042 P 
HETATM    3  C4  UNL     1      24.134   3.014  50.104  1.00  0.00     0.090 A 
HETATM    4  N1  UNL     1      25.173   3.471  49.384  1.00  0.00    -0.240 NA
HETATM    5  C5  UNL     1      26.433   3.321  49.826  1.00  0.00     0.236 A 
HETATM    6  N2  UNL     1      26.588   2.702  50.998  1.00  0.00    -0.223 NA
HETATM    7  C6  UNL     1      25.581   2.233  51.743  1.00  0.00     0.145 A 
HETATM    8  C13 UNL     1      24.280   2.375  51.315  1.00  0.00     0.076 A 
HETATM    9  C14 UNL     1      23.239   1.877  52.103  1.00  0.00     0.121 A 
HETATM   10  C15 UNL     1      21.904   1.936  51.815  1.00  0.00     0.138 A 
HETATM   11  O3  UNL     1      20.962   1.403  52.686  1.00  0.00    -0.343 OA
HETATM   12  C16 UNL     1      21.241   0.276  53.532  1.00  0.00     0.202 C 
HETATM   13  C17 UNL     1      22.734   0.070  53.645  1.00  0.00     0.202 C 
HETATM   14  O4  UNL     1      23.434   1.244  53.311  1.00  0.00    -0.345 OA
ENDROOT
BRANCH   7  15
HETATM   15  N3  UNL     1      25.946   1.597  52.957  1.00  0.00    -0.340 N 
HETATM   16  H7  UNL     1      25.898   1.719  53.983  1.00  0.00     0.167 HD
BRANCH  15  17
HETATM   17  C7  UNL     1      26.638   0.337  52.924  1.00  0.00     0.035 A 
HETATM   18  C8  UNL     1      26.151  -0.891  52.529  1.00  0.00     0.032 A 
HETATM   19  C9  UNL     1      26.866  -2.065  52.536  1.00  0.00     0.046 A 
HETATM   20  C10 UNL     1      28.173  -2.039  52.968  1.00  0.00     0.138 A 
HETATM   21  F1  UNL     1      28.795  -3.243  52.938  1.00  0.00    -0.204 F 
HETATM   22  C11 UNL     1      28.724  -0.849  53.377  1.00  0.00     0.074 A 
HETATM   23 CL1  UNL     1      30.387  -0.955  53.898  1.00  0.00    -0.081 Cl
HETATM   24  C12 UNL     1      27.967   0.311  53.354  1.00  0.00     0.056 A 
ENDBRANCH  15  17
ENDBRANCH   7  15
BRANCH   1  25
HETATM   25  O2  UNL     1      20.043   2.643  50.253  1.00  0.00    -0.317 OA
BRANCH  25  26
HETATM   26  C2  UNL     1      19.041   3.518  50.591  1.00  0.00     0.259 C 
HETATM   27  C1  UNL     1      19.421   4.954  50.276  1.00  0.00     0.071 C 
BRANCH  26  28
HETATM   28  O1  UNL     1      18.841   3.447  51.991  1.00  0.00    -0.371 OA
HETATM   29  H5  UNL     1      19.600   2.995  52.451  1.00  0.00     0.212 HD
ENDBRANCH  26  28
ENDBRANCH  25  26
ENDBRANCH   1  25
TORSDOF 5
ENDMDL
MODEL 4
REMARK VINA RESULT:      -8.0      4.726      7.698
REMARK  5 active torsions:
REMARK  status: ('A' for Active; 'I' for Inactive)
REMARK    1  A    between atoms: C2_2  and  O1_3 
REMARK    2  A    between atoms: C2_2  and  O2_4 
REMARK    3  A    between atoms: O2_4  and  C3_5 
REMARK    4  A    between atoms: C6_11  and  N3_12 
REMARK    5  A    between atoms: N3_12  and  C7_13 
ROOT
HETATM    1  C3  UNL     1      26.717   0.452  52.685  1.00  0.00     0.122 A 
HETATM    2  P1  UNL     1      25.614  -0.650  53.492  1.00  0.00     0.042 P 
HETATM    3  C4  UNL     1      23.945  -0.106  53.420  1.00  0.00     0.090 A 
HETATM    4  N1  UNL     1      22.936  -0.800  53.972  1.00  0.00    -0.240 NA
HETATM    5  C5  UNL     1      21.671  -0.352  53.894  1.00  0.00     0.236 A 
HETATM    6  N2  UNL     1      21.482   0.801  53.249  1.00  0.00    -0.223 NA
HETATM    7  C6  UNL     1      22.460   1.521  52.686  1.00  0.00     0.145 A 
HETATM    8  C13 UNL     1      23.764   1.085  52.753  1.00  0.00     0.076 A 
HETATM    9  C14 UNL     1      24.773   1.847  52.158  1.00  0.00     0.121 A 
HETATM   10  C15 UNL     1      26.108   1.548  52.135  1.00  0.00     0.138 A 
HETATM   11  O3  UNL     1      27.016   2.392  51.510  1.00  0.00    -0.343 OA
HETATM   12  C16 UNL     1      26.667   3.203  50.376  1.00  0.00     0.202 C 
HETATM   13  C17 UNL     1      25.164   3.324  50.270  1.00  0.00     0.202 C 
HETATM   14  O4  UNL     1      24.544   3.035  51.500  1.00  0.00    -0.345 OA
ENDROOT
BRANCH   7  15
HETATM   15  N3  UNL     1      22.060   2.716  52.036  1.00  0.00    -0.340 N 
HETATM   16  H7  UNL     1      22.044   3.742  52.164  1.00  0.00     0.167 HD
BRANCH  15  17
HETATM   17  C7  UNL     1      21.435   2.652  50.744  1.00  0.00     0.035 A 
HETATM   18  C8  UNL     1      21.678   1.755  49.724  1.00  0.00     0.032 A 
HETATM   19  C9  UNL     1      21.053   1.760  48.501  1.00  0.00     0.046 A 
HETATM   20  C10 UNL     1      20.105   2.726  48.248  1.00  0.00     0.138 A 
HETATM   21  F1  UNL     1      19.543   2.649  47.016  1.00  0.00    -0.204 F 
HETATM   22  C11 UNL     1      19.812   3.654  49.218  1.00  0.00     0.074 A 
HETATM   23 CL1  UNL     1      18.593   4.821  48.769  1.00  0.00    -0.081 Cl
HETATM   24  C12 UNL     1      20.468   3.612  50.438  1.00  0.00     0.056 A 
ENDBRANCH  15  17
ENDBRANCH   7  15
BRANCH   1  25
HETATM   25  O2  UNL     1      28.002  -0.007  52.764  1.00  0.00    -0.317 OA
BRANCH  25  26
HETATM   26  C2  UNL     1      29.080   0.388  53.516  1.00  0.00     0.259 C 
HETATM   27  C1  UNL     1      28.750   0.417  54.998  1.00  0.00     0.071 C 
BRANCH  26  28
HETATM   28  O1  UNL     1      29.420   1.713  53.147  1.00  0.00    -0.371 OA
HETATM   29  H5  UNL     1      29.987   1.735  52.329  1.00  0.00     0.212 HD
ENDBRANCH  26  28
ENDBRANCH  25  26
ENDBRANCH   1  25
TORSDOF 5
ENDMDL
MODEL 5
REMARK VINA RESULT:      -8.0      4.515      6.319
REMARK  5 active torsions:
REMARK  status: ('A' for Active; 'I' for Inactive)
REMARK    1  A    between atoms: C2_2  and  O1_3 
REMARK    2  A    between atoms: C2_2  and  O2_4 
REMARK    3  A    between atoms: O2_4  and  C3_5 
REMARK    4  A    between atoms: C6_11  and  N3_12 
REMARK    5  A    between atoms: N3_12  and  C7_13 
ROOT
HETATM    1  C3  UNL     1      23.026   0.737  53.156  1.00  0.00     0.122 A 
HETATM    2  P1  UNL     1      21.832   1.322  52.008  1.00  0.00     0.042 P 
HETATM    3  C4  UNL     1      22.553   2.246  50.699  1.00  0.00     0.090 A 
HETATM    4  N1  UNL     1      21.821   2.784  49.708  1.00  0.00    -0.240 NA
HETATM    5  C5  UNL     1      22.410   3.482  48.723  1.00  0.00     0.236 A 
HETATM    6  N2  UNL     1      23.737   3.607  48.785  1.00  0.00    -0.223 NA
HETATM    7  C6  UNL     1      24.500   3.087  49.754  1.00  0.00     0.145 A 
HETATM    8  C13 UNL     1      23.923   2.368  50.776  1.00  0.00     0.076 A 
HETATM    9  C14 UNL     1      24.733   1.828  51.779  1.00  0.00     0.121 A 
HETATM   10  C15 UNL     1      24.313   1.092  52.852  1.00  0.00     0.138 A 
HETATM   11  O3  UNL     1      25.221   0.611  53.785  1.00  0.00    -0.343 OA
HETATM   12  C16 UNL     1      26.575   0.270  53.444  1.00  0.00     0.202 C 
HETATM   13  C17 UNL     1      26.949   0.897  52.121  1.00  0.00     0.202 C 
HETATM   14  O4  UNL     1      26.101   1.977  51.815  1.00  0.00    -0.345 OA
ENDROOT
BRANCH   7  15
HETATM   15  N3  UNL     1      25.894   3.320  49.643  1.00  0.00    -0.340 N 
HETATM   16  H7  UNL     1      26.805   2.835  49.717  1.00  0.00     0.167 HD
BRANCH  15  17
HETATM   17  C7  UNL     1      26.377   4.637  49.330  1.00  0.00     0.035 A 
HETATM   18  C8  UNL     1      27.496   4.983  48.602  1.00  0.00     0.032 A 
HETATM   19  C9  UNL     1      27.910   6.269  48.352  1.00  0.00     0.046 A 
HETATM   20  C10 UNL     1      27.167   7.312  48.858  1.00  0.00     0.138 A 
HETATM   21  F1  UNL     1      27.654   8.541  48.559  1.00  0.00    -0.204 F 
HETATM   22  C11 UNL     1      26.039   7.041  49.595  1.00  0.00     0.074 A 
HETATM   23 CL1  UNL     1      25.190   8.452  50.176  1.00  0.00    -0.081 Cl
HETATM   24  C12 UNL     1      25.658   5.729  49.823  1.00  0.00     0.056 A 
ENDBRANCH  15  17
ENDBRANCH   7  15
BRANCH   1  25
HETATM   25  O2  UNL     1      22.425   0.025  54.156  1.00  0.00    -0.317 OA
BRANCH  25  26
HETATM   26  C2  UNL     1      22.215  -1.320  54.336  1.00  0.00     0.259 C 
HETATM   27  C1  UNL     1      20.737  -1.666  54.304  1.00  0.00     0.071 C 
BRANCH  26  28
HETATM   28  O1  UNL     1      22.691  -1.677  55.621  1.00  0.00    -0.371 OA
HETATM   29  H5  UNL     1      23.050  -0.890  56.115  1.00  0.00     0.212 HD
ENDBRANCH  26  28
ENDBRANCH  25  26
ENDBRANCH   1  25
TORSDOF 5
ENDMDL
MODEL 6
REMARK VINA RESULT:      -7.9      4.835      8.418
REMARK  5 active torsions:
REMARK  status: ('A' for Active; 'I' for Inactive)
REMARK    1  A    between atoms: C2_2  and  O1_3 
REMARK    2  A    between atoms: C2_2  and  O2_4 
REMARK    3  A    between atoms: O2_4  and  C3_5 
REMARK    4  A    between atoms: C6_11  and  N3_12 
REMARK    5  A    between atoms: N3_12  and  C7_13 
ROOT
HETATM    1  C3  UNL     1      26.448   0.757  53.817  1.00  0.00     0.122 A 
HETATM    2  P1  UNL     1      26.527   2.005  52.584  1.00  0.00     0.042 P 
HETATM    3  C4  UNL     1      25.049   2.115  51.642  1.00  0.00     0.090 A 
HETATM    4  N1  UNL     1      24.892   3.006  50.647  1.00  0.00    -0.240 NA
HETATM    5  C5  UNL     1      23.744   3.061  49.950  1.00  0.00     0.236 A 
HETATM    6  N2  UNL     1      22.789   2.197  50.298  1.00  0.00    -0.223 NA
HETATM    7  C6  UNL     1      22.906   1.296  51.281  1.00  0.00     0.145 A 
HETATM    8  C13 UNL     1      24.071   1.217  52.010  1.00  0.00     0.076 A 
HETATM    9  C14 UNL     1      24.177   0.274  53.035  1.00  0.00     0.121 A 
HETATM   10  C15 UNL     1      25.261   0.076  53.846  1.00  0.00     0.138 A 
HETATM   11  O3  UNL     1      25.243  -0.901  54.833  1.00  0.00    -0.343 OA
HETATM   12  C16 UNL     1      24.037  -1.303  55.503  1.00  0.00     0.202 C 
HETATM   13  C17 UNL     1      22.830  -0.857  54.709  1.00  0.00     0.202 C 
HETATM   14  O4  UNL     1      23.171  -0.606  53.368  1.00  0.00    -0.345 OA
ENDROOT
BRANCH   7  15
HETATM   15  N3  UNL     1      21.777   0.469  51.507  1.00  0.00    -0.340 N 
HETATM   16  H7  UNL     1      21.520  -0.505  51.743  1.00  0.00     0.167 HD
BRANCH  15  17
HETATM   17  C7  UNL     1      20.454   1.021  51.405  1.00  0.00     0.035 A 
HETATM   18  C8  UNL     1      19.987   2.213  51.920  1.00  0.00     0.032 A 
HETATM   19  C9  UNL     1      18.699   2.676  51.798  1.00  0.00     0.046 A 
HETATM   20  C10 UNL     1      17.784   1.909  51.113  1.00  0.00     0.138 A 
HETATM   21  F1  UNL     1      16.542   2.449  51.045  1.00  0.00    -0.204 F 
HETATM   22  C11 UNL     1      18.179   0.709  50.574  1.00  0.00     0.074 A 
HETATM   23 CL1  UNL     1      16.922  -0.163  49.731  1.00  0.00    -0.081 Cl
HETATM   24  C12 UNL     1      19.488   0.280  50.721  1.00  0.00     0.056 A 
ENDBRANCH  15  17
ENDBRANCH   7  15
BRANCH   1  25
HETATM   25  O2  UNL     1      27.616   0.704  54.526  1.00  0.00    -0.317 OA
BRANCH  25  26
HETATM   26  C2  UNL     1      28.664  -0.182  54.515  1.00  0.00     0.259 C 
HETATM   27  C1  UNL     1      29.804   0.308  53.639  1.00  0.00     0.071 C 
BRANCH  26  28
HETATM   28  O1  UNL     1      28.212  -1.401  53.953  1.00  0.00    -0.371 OA
HETATM   29  H5  UNL     1      28.011  -1.308  52.982  1.00  0.00     0.212 HD
ENDBRANCH  26  28
ENDBRANCH  25  26
ENDBRANCH   1  25
TORSDOF 5
ENDMDL
MODEL 7
REMARK VINA RESULT:      -7.9      1.702      2.043
REMARK  5 active torsions:
REMARK  status: ('A' for Active; 'I' for Inactive)
REMARK    1  A    between atoms: C2_2  and  O1_3 
REMARK    2  A    between atoms: C2_2  and  O2_4 
REMARK    3  A    between atoms: O2_4  and  C3_5 
REMARK    4  A    between atoms: C6_11  and  N3_12 
REMARK    5  A    between atoms: N3_12  and  C7_13 
ROOT
HETATM    1  C3  UNL     1      20.345   1.264  51.483  1.00  0.00     0.122 A 
HETATM    2  P1  UNL     1      20.434   0.234  52.903  1.00  0.00     0.042 P 
HETATM    3  C4  UNL     1      22.086  -0.050  53.427  1.00  0.00     0.090 A 
HETATM    4  N1  UNL     1      22.384  -0.808  54.495  1.00  0.00    -0.240 NA
HETATM    5  C5  UNL     1      23.661  -1.000  54.866  1.00  0.00     0.236 A 
HETATM    6  N2  UNL     1      24.597  -0.404  54.125  1.00  0.00    -0.223 NA
HETATM    7  C6  UNL     1      24.342   0.358  53.055  1.00  0.00     0.145 A 
HETATM    8  C13 UNL     1      23.042   0.570  52.653  1.00  0.00     0.076 A 
HETATM    9  C14 UNL     1      22.791   1.370  51.535  1.00  0.00     0.121 A 
HETATM   10  C15 UNL     1      21.564   1.676  51.016  1.00  0.00     0.138 A 
HETATM   11  O3  UNL     1      21.446   2.486  49.894  1.00  0.00    -0.343 OA
HETATM   12  C16 UNL     1      22.392   3.523  49.584  1.00  0.00     0.202 C 
HETATM   13  C17 UNL     1      23.671   3.305  50.361  1.00  0.00     0.202 C 
HETATM   14  O4  UNL     1      23.782   1.970  50.790  1.00  0.00    -0.345 OA
ENDROOT
BRANCH   7  15
HETATM   15  N3  UNL     1      25.470   0.913  52.401  1.00  0.00    -0.340 N 
HETATM   16  H7  UNL     1      25.726   1.571  51.645  1.00  0.00     0.167 HD
BRANCH  15  17
HETATM   17  C7  UNL     1      26.794   0.526  52.805  1.00  0.00     0.035 A 
HETATM   18  C8  UNL     1      27.825   1.336  53.235  1.00  0.00     0.032 A 
HETATM   19  C9  UNL     1      29.076   0.899  53.594  1.00  0.00     0.046 A 
HETATM   20  C10 UNL     1      29.349  -0.449  53.528  1.00  0.00     0.138 A 
HETATM   21  F1  UNL     1      30.609  -0.783  53.902  1.00  0.00    -0.204 F 
HETATM   22  C11 UNL     1      28.370  -1.316  53.107  1.00  0.00     0.074 A 
HETATM   23 CL1  UNL     1      28.846  -2.995  53.071  1.00  0.00    -0.081 Cl
HETATM   24  C12 UNL     1      27.120  -0.831  52.754  1.00  0.00     0.056 A 
ENDBRANCH  15  17
ENDBRANCH   7  15
BRANCH   1  25
HETATM   25  O2  UNL     1      19.044   1.459  51.110  1.00  0.00    -0.317 OA
BRANCH  25  26
HETATM   26  C2  UNL     1      18.181   2.512  51.285  1.00  0.00     0.259 C 
HETATM   27  C1  UNL     1      17.881   3.216  49.973  1.00  0.00     0.071 C 
BRANCH  26  28
HETATM   28  O1  UNL     1      18.804   3.465  52.127  1.00  0.00    -0.371 OA
HETATM   29  H5  UNL     1      18.603   3.297  53.088  1.00  0.00     0.212 HD
ENDBRANCH  26  28
ENDBRANCH  25  26
ENDBRANCH   1  25
TORSDOF 5
ENDMDL
MODEL 8
REMARK VINA RESULT:      -7.9      4.097      5.414
REMARK  5 active torsions:
REMARK  status: ('A' for Active; 'I' for Inactive)
REMARK    1  A    between atoms: C2_2  and  O1_3 
REMARK    2  A    between atoms: C2_2  and  O2_4 
REMARK    3  A    between atoms: O2_4  and  C3_5 
REMARK    4  A    between atoms: C6_11  and  N3_12 
REMARK    5  A    between atoms: N3_12  and  C7_13 
ROOT
HETATM    1  C3  UNL     1      22.801  -0.340  52.970  1.00  0.00     0.122 A 
HETATM    2  P1  UNL     1      24.431  -0.251  53.619  1.00  0.00     0.042 P 
HETATM    3  C4  UNL     1      25.430   0.920  52.774  1.00  0.00     0.090 A 
HETATM    4  N1  UNL     1      26.711   1.151  53.109  1.00  0.00    -0.240 NA
HETATM    5  C5  UNL     1      27.442   2.059  52.439  1.00  0.00     0.236 A 
HETATM    6  N2  UNL     1      26.833   2.703  51.442  1.00  0.00    -0.223 NA
HETATM    7  C6  UNL     1      25.561   2.501  51.078  1.00  0.00     0.145 A 
HETATM    8  C13 UNL     1      24.789   1.577  51.746  1.00  0.00     0.076 A 
HETATM    9  C14 UNL     1      23.462   1.380  51.356  1.00  0.00     0.121 A 
HETATM   10  C15 UNL     1      22.573   0.508  51.919  1.00  0.00     0.138 A 
HETATM   11  O3  UNL     1      21.275   0.403  51.438  1.00  0.00    -0.343 OA
HETATM   12  C16 UNL     1      20.579   1.509  50.839  1.00  0.00     0.202 C 
HETATM   13  C17 UNL     1      21.563   2.585  50.440  1.00  0.00     0.202 C 
HETATM   14  O4  UNL     1      22.863   2.062  50.320  1.00  0.00    -0.345 OA
ENDROOT
BRANCH   7  15
HETATM   15  N3  UNL     1      25.089   3.289  49.998  1.00  0.00    -0.340 N 
HETATM   16  H7  UNL     1      24.327   3.334  49.300  1.00  0.00     0.167 HD
BRANCH  15  17
HETATM   17  C7  UNL     1      25.810   4.468  49.604  1.00  0.00     0.035 A 
HETATM   18  C8  UNL     1      26.982   4.547  48.880  1.00  0.00     0.032 A 
HETATM   19  C9  UNL     1      27.629   5.713  48.549  1.00  0.00     0.046 A 
HETATM   20  C10 UNL     1      27.087   6.909  48.961  1.00  0.00     0.138 A 
HETATM   21  F1  UNL     1      27.797   8.003  48.587  1.00  0.00    -0.204 F 
HETATM   22  C11 UNL     1      25.921   6.907  49.688  1.00  0.00     0.074 A 
HETATM   23 CL1  UNL     1      25.342   8.489  50.146  1.00  0.00    -0.081 Cl
HETATM   24  C12 UNL     1      25.301   5.707  50.000  1.00  0.00     0.056 A 
ENDBRANCH  15  17
ENDBRANCH   7  15
BRANCH   1  25
HETATM   25  O2  UNL     1      22.059  -1.262  53.654  1.00  0.00    -0.317 OA
BRANCH  25  26
HETATM   26  C2  UNL     1      20.987  -1.139  54.503  1.00  0.00     0.259 C 
HETATM   27  C1  UNL     1      19.676  -1.437  53.797  1.00  0.00     0.071 C 
BRANCH  26  28
HETATM   28  O1  UNL     1      20.918   0.206  54.942  1.00  0.00    -0.371 OA
HETATM   29  H5  UNL     1      20.468   0.791  54.273  1.00  0.00     0.212 HD
ENDBRANCH  26  28
ENDBRANCH  25  26
ENDBRANCH   1  25
TORSDOF 5
ENDMDL
MODEL 9
REMARK VINA RESULT:      -7.9      4.673      7.305
REMARK  5 active torsions:
REMARK  status: ('A' for Active; 'I' for Inactive)
REMARK    1  A    between atoms: C2_2  and  O1_3 
REMARK    2  A    between atoms: C2_2  and  O2_4 
REMARK    3  A    between atoms: O2_4  and  C3_5 
REMARK    4  A    between atoms: C6_11  and  N3_12 
REMARK    5  A    between atoms: N3_12  and  C7_13 
ROOT
HETATM    1  C3  UNL     1      25.294   4.659  49.886  1.00  0.00     0.122 A 
HETATM    2  P1  UNL     1      26.361   3.265  49.929  1.00  0.00     0.042 P 
HETATM    3  C4  UNL     1      25.881   2.087  51.141  1.00  0.00     0.090 A 
HETATM    4  N1  UNL     1      26.557   0.943  51.342  1.00  0.00    -0.240 NA
HETATM    5  C5  UNL     1      26.157   0.065  52.278  1.00  0.00     0.236 A 
HETATM    6  N2  UNL     1      25.070   0.391  52.981  1.00  0.00    -0.223 NA
HETATM    7  C6  UNL     1      24.371   1.519  52.810  1.00  0.00     0.145 A 
HETATM    8  C13 UNL     1      24.759   2.436  51.860  1.00  0.00     0.076 A 
HETATM    9  C14 UNL     1      24.016   3.607  51.692  1.00  0.00     0.121 A 
HETATM   10  C15 UNL     1      24.270   4.607  50.794  1.00  0.00     0.138 A 
HETATM   11  O3  UNL     1      23.454   5.728  50.725  1.00  0.00    -0.343 OA
HETATM   12  C16 UNL     1      22.053   5.687  51.044  1.00  0.00     0.202 C 
HETATM   13  C17 UNL     1      21.739   4.439  51.836  1.00  0.00     0.202 C 
HETATM   14  O4  UNL     1      22.899   3.914  52.436  1.00  0.00    -0.345 OA
ENDROOT
BRANCH   7  15
HETATM   15  N3  UNL     1      23.238   1.683  53.648  1.00  0.00    -0.340 N 
HETATM   16  H7  UNL     1      22.818   2.345  54.322  1.00  0.00     0.167 HD
BRANCH  15  17
HETATM   17  C7  UNL     1      22.232   0.659  53.698  1.00  0.00     0.035 A 
HETATM   18  C8  UNL     1      22.216  -0.483  54.472  1.00  0.00     0.032 A 
HETATM   19  C9  UNL     1      21.224  -1.433  54.460  1.00  0.00     0.046 A 
HETATM   20  C10 UNL     1      20.150  -1.256  53.617  1.00  0.00     0.138 A 
HETATM   21  F1  UNL     1      19.224  -2.244  53.676  1.00  0.00    -0.204 F 
HETATM   22  C11 UNL     1      20.099  -0.141  52.815  1.00  0.00     0.074 A 
HETATM   23 CL1  UNL     1      18.685  -0.038  51.796  1.00  0.00    -0.081 Cl
HETATM   24  C12 UNL     1      21.122   0.792  52.860  1.00  0.00     0.056 A 
ENDBRANCH  15  17
ENDBRANCH   7  15
BRANCH   1  25
HETATM   25  O2  UNL     1      25.702   5.549  48.932  1.00  0.00    -0.317 OA
BRANCH  25  26
HETATM   26  C2  UNL     1      26.332   6.767  49.013  1.00  0.00     0.259 C 
HETATM   27  C1  UNL     1      27.756   6.697  48.492  1.00  0.00     0.071 C 
BRANCH  26  28
HETATM   28  O1  UNL     1      26.413   7.137  50.378  1.00  0.00    -0.371 OA
HETATM   29  H5  UNL     1      26.345   6.346  50.980  1.00  0.00     0.212 HD
ENDBRANCH  26  28
ENDBRANCH  25  26
ENDBRANCH   1  25
TORSDOF 5
ENDMDL
