MODEL 1
REMARK VINA RESULT:      -9.1      0.000      0.000
REMARK  5 active torsions:
REMARK  status: ('A' for Active; 'I' for Inactive)
REMARK    1  A    between atoms: S1_2  and  N1_5 
REMARK    2  A    between atoms: N1_5  and  C2_6 
REMARK    3  A    between atoms: C2_6  and  C3_7 
REMARK    4  A    between atoms: C7_12  and  N3_13 
REMARK    5  A    between atoms: N3_13  and  C8_14 
ROOT
HETATM    1  C3  UNL     1      25.144   0.302  53.605  1.00  0.00    -0.038 A 
HETATM    2  C4  UNL     1      24.520   1.217  52.837  1.00  0.00    -0.000 A 
HETATM    3  C5  UNL     1      25.337   2.225  52.147  1.00  0.00     0.162 C 
HETATM    4  N2  UNL     1      24.767   3.562  52.180  1.00  0.00    -0.379 N 
HETATM    5  C6  UNL     1      23.478   4.017  51.847  1.00  0.00     0.129 A 
HETATM    6  C7  UNL     1      23.507   5.368  51.603  1.00  0.00     0.160 A 
HETATM    7  N4  UNL     1      22.328   5.940  51.297  1.00  0.00    -0.222 NA
HETATM    8  C14 UNL     1      21.184   5.250  51.228  1.00  0.00     0.238 A 
HETATM    9  N5  UNL     1      21.146   3.932  51.463  1.00  0.00    -0.215 NA
HETATM   10  C15 UNL     1      22.310   3.304  51.778  1.00  0.00     0.202 A 
HETATM   11  O3  UNL     1      22.174   1.921  52.007  1.00  0.00    -0.288 OA
HETATM   12  C16 UNL     1      23.050   1.122  52.714  1.00  0.00     0.101 A 
HETATM   13  C17 UNL     1      22.336   0.173  53.327  1.00  0.00     0.121 A 
HETATM   14  N6  UNL     1      22.999  -0.772  54.114  1.00  0.00    -0.393 N 
HETATM   15  C18 UNL     1      24.416  -0.747  54.364  1.00  0.00     0.155 A 
HETATM   16  H9  UNL     1      25.390   4.334  52.506  1.00  0.00     0.160 HD
HETATM   17  H17 UNL     1      22.589  -1.587  54.608  1.00  0.00     0.159 HD
ENDROOT
BRANCH   6  18
HETATM   18  N3  UNL     1      24.655   6.196  51.591  1.00  0.00    -0.339 N 
HETATM   19  H10 UNL     1      25.226   6.662  52.326  1.00  0.00     0.167 HD
BRANCH  18  20
HETATM   20  C8  UNL     1      25.301   6.560  50.360  1.00  0.00     0.035 A 
HETATM   21  C9  UNL     1      25.937   5.714  49.481  1.00  0.00     0.029 A 
HETATM   22  C10 UNL     1      26.549   6.193  48.340  1.00  0.00     0.004 A 
HETATM   23  C11 UNL     1      26.497   7.552  48.114  1.00  0.00     0.019 A 
HETATM   24  C12 UNL     1      25.872   8.435  48.966  1.00  0.00     0.013 A 
HETATM   25 BR1  UNL     1      25.911  10.295  48.477  1.00  0.00    -0.051 Br
HETATM   26  C13 UNL     1      25.255   7.936  50.122  1.00  0.00     0.048 A 
ENDBRANCH  18  20
ENDBRANCH   6  18
BRANCH   1  27
HETATM   27  C2  UNL     1      26.600   0.185  53.843  1.00  0.00     0.140 C 
BRANCH  27  28
HETATM   28  N1  UNL     1      27.141   1.306  54.604  1.00  0.00    -0.216 NA
HETATM   29  H4  UNL     1      27.238   0.920  55.599  1.00  0.00     0.139 HD
BRANCH  28  30
HETATM   30  S1  UNL     1      28.749   1.658  54.026  1.00  0.00     0.205 S 
HETATM   31  C1  UNL     1      29.592   0.144  53.610  1.00  0.00     0.179 C 
HETATM   32  O1  UNL     1      29.488   2.291  55.164  1.00  0.00    -0.212 OA
HETATM   33  O2  UNL     1      28.739   2.565  52.852  1.00  0.00    -0.212 OA
ENDBRANCH  28  30
ENDBRANCH  27  28
ENDBRANCH   1  27
TORSDOF 5
ENDMDL
MODEL 2
REMARK VINA RESULT:      -8.7      1.998      2.397
REMARK  5 active torsions:
REMARK  status: ('A' for Active; 'I' for Inactive)
REMARK    1  A    between atoms: S1_2  and  N1_5 
REMARK    2  A    between atoms: N1_5  and  C2_6 
REMARK    3  A    between atoms: C2_6  and  C3_7 
REMARK    4  A    between atoms: C7_12  and  N3_13 
REMARK    5  A    between atoms: N3_13  and  C8_14 
ROOT
HETATM    1  C3  UNL     1      24.128   1.403  52.287  1.00  0.00    -0.038 A 
HETATM    2  C4  UNL     1      23.849   2.558  51.650  1.00  0.00    -0.000 A 
HETATM    3  C5  UNL     1      24.959   3.316  51.056  1.00  0.00     0.162 C 
HETATM    4  N2  UNL     1      24.864   4.752  51.262  1.00  0.00    -0.379 N 
HETATM    5  C6  UNL     1      23.800   5.642  51.025  1.00  0.00     0.129 A 
HETATM    6  C7  UNL     1      24.276   6.927  50.939  1.00  0.00     0.160 A 
HETATM    7  N4  UNL     1      23.356   7.888  50.738  1.00  0.00    -0.222 NA
HETATM    8  C14 UNL     1      22.049   7.627  50.626  1.00  0.00     0.238 A 
HETATM    9  N5  UNL     1      21.575   6.377  50.708  1.00  0.00    -0.215 NA
HETATM   10  C15 UNL     1      22.463   5.368  50.910  1.00  0.00     0.202 A 
HETATM   11  O3  UNL     1      21.875   4.090  50.982  1.00  0.00    -0.288 OA
HETATM   12  C16 UNL     1      22.432   2.968  51.563  1.00  0.00     0.101 A 
HETATM   13  C17 UNL     1      21.438   2.241  52.084  1.00  0.00     0.121 A 
HETATM   14  N6  UNL     1      21.745   1.043  52.735  1.00  0.00    -0.393 N 
HETATM   15  C18 UNL     1      23.087   0.570  52.941  1.00  0.00     0.155 A 
HETATM   16  H9  UNL     1      25.704   5.231  51.655  1.00  0.00     0.160 HD
HETATM   17  H17 UNL     1      21.084   0.356  53.143  1.00  0.00     0.159 HD
ENDROOT
BRANCH   6  18
HETATM   18  N3  UNL     1      25.634   7.327  50.987  1.00  0.00    -0.339 N 
HETATM   19  H10 UNL     1      26.330   7.453  51.750  1.00  0.00     0.167 HD
BRANCH  18  20
HETATM   20  C8  UNL     1      26.359   7.656  49.791  1.00  0.00     0.035 A 
HETATM   21  C9  UNL     1      26.470   6.888  48.654  1.00  0.00     0.029 A 
HETATM   22  C10 UNL     1      27.224   7.306  47.576  1.00  0.00     0.004 A 
HETATM   23  C11 UNL     1      27.861   8.524  47.681  1.00  0.00     0.019 A 
HETATM   24  C12 UNL     1      27.778   9.326  48.798  1.00  0.00     0.013 A 
HETATM   25 BR1  UNL     1      28.743  10.989  48.751  1.00  0.00    -0.051 Br
HETATM   26  C13 UNL     1      27.010   8.889  49.886  1.00  0.00     0.048 A 
ENDBRANCH  18  20
ENDBRANCH   6  18
BRANCH   1  27
HETATM   27  C2  UNL     1      25.461   0.785  52.463  1.00  0.00     0.140 C 
BRANCH  27  28
HETATM   28  N1  UNL     1      26.127   1.216  53.688  1.00  0.00    -0.216 NA
HETATM   29  H4  UNL     1      25.328   1.577  54.304  1.00  0.00     0.139 HD
BRANCH  28  30
HETATM   30  S1  UNL     1      26.804  -0.180  54.485  1.00  0.00     0.205 S 
HETATM   31  C1  UNL     1      28.519   0.113  54.873  1.00  0.00     0.179 C 
HETATM   32  O1  UNL     1      26.748  -1.308  53.503  1.00  0.00    -0.212 OA
HETATM   33  O2  UNL     1      26.066  -0.536  55.721  1.00  0.00    -0.212 OA
ENDBRANCH  28  30
ENDBRANCH  27  28
ENDBRANCH   1  27
TORSDOF 5
ENDMDL
MODEL 3
REMARK VINA RESULT:      -8.6      1.782      2.201
REMARK  5 active torsions:
REMARK  status: ('A' for Active; 'I' for Inactive)
REMARK    1  A    between atoms: S1_2  and  N1_5 
REMARK    2  A    between atoms: N1_5  and  C2_6 
REMARK    3  A    between atoms: C2_6  and  C3_7 
REMARK    4  A    between atoms: C7_12  and  N3_13 
REMARK    5  A    between atoms: N3_13  and  C8_14 
ROOT
HETATM    1  C3  UNL     1      25.278  -0.467  54.398  1.00  0.00    -0.038 A 
HETATM    2  C4  UNL     1      24.578  -0.124  53.299  1.00  0.00    -0.000 A 
HETATM    3  C5  UNL     1      25.300   0.472  52.166  1.00  0.00     0.162 C 
HETATM    4  N2  UNL     1      24.600   1.585  51.547  1.00  0.00    -0.379 N 
HETATM    5  C6  UNL     1      23.277   1.690  51.080  1.00  0.00     0.129 A 
HETATM    6  C7  UNL     1      23.175   2.732  50.191  1.00  0.00     0.160 A 
HETATM    7  N4  UNL     1      21.950   2.961  49.684  1.00  0.00    -0.222 NA
HETATM    8  C14 UNL     1      20.882   2.227  50.013  1.00  0.00     0.238 A 
HETATM    9  N5  UNL     1      20.971   1.208  50.878  1.00  0.00    -0.215 NA
HETATM   10  C15 UNL     1      22.187   0.934  51.421  1.00  0.00     0.202 A 
HETATM   11  O3  UNL     1      22.185  -0.153  52.317  1.00  0.00    -0.288 OA
HETATM   12  C16 UNL     1      23.126  -0.404  53.295  1.00  0.00     0.101 A 
HETATM   13  C17 UNL     1      22.501  -0.979  54.327  1.00  0.00     0.121 A 
HETATM   14  N6  UNL     1      23.243  -1.335  55.457  1.00  0.00    -0.393 N 
HETATM   15  C18 UNL     1      24.647  -1.056  55.607  1.00  0.00     0.155 A 
HETATM   16  H9  UNL     1      25.139   2.470  51.419  1.00  0.00     0.160 HD
HETATM   17  H17 UNL     1      22.909  -1.825  56.307  1.00  0.00     0.159 HD
ENDROOT
BRANCH   6  18
HETATM   18  N3  UNL     1      24.236   3.545  49.723  1.00  0.00    -0.339 N 
HETATM   19  H10 UNL     1      25.131   3.360  49.225  1.00  0.00     0.167 HD
BRANCH  18  20
HETATM   20  C8  UNL     1      24.213   4.972  49.887  1.00  0.00     0.035 A 
HETATM   21  C9  UNL     1      23.937   5.665  51.044  1.00  0.00     0.029 A 
HETATM   22  C10 UNL     1      23.917   7.045  51.066  1.00  0.00     0.004 A 
HETATM   23  C11 UNL     1      24.187   7.703  49.885  1.00  0.00     0.019 A 
HETATM   24  C12 UNL     1      24.468   7.051  48.704  1.00  0.00     0.013 A 
HETATM   25 BR1  UNL     1      24.815   8.148  47.162  1.00  0.00    -0.051 Br
HETATM   26  C13 UNL     1      24.484   5.649  48.696  1.00  0.00     0.048 A 
ENDBRANCH  18  20
ENDBRANCH   6  18
BRANCH   1  27
HETATM   27  C2  UNL     1      26.735  -0.314  54.608  1.00  0.00     0.140 C 
BRANCH  27  28
HETATM   28  N1  UNL     1      27.123   1.062  54.897  1.00  0.00    -0.216 NA
HETATM   29  H4  UNL     1      27.366   1.049  55.940  1.00  0.00     0.139 HD
BRANCH  28  30
HETATM   30  S1  UNL     1      28.590   1.431  54.029  1.00  0.00     0.205 S 
HETATM   31  C1  UNL     1      29.491  -0.070  53.691  1.00  0.00     0.179 C 
HETATM   32  O1  UNL     1      29.432   2.270  54.939  1.00  0.00    -0.212 OA
HETATM   33  O2  UNL     1      28.328   2.153  52.760  1.00  0.00    -0.212 OA
ENDBRANCH  28  30
ENDBRANCH  27  28
ENDBRANCH   1  27
TORSDOF 5
ENDMDL
MODEL 4
REMARK VINA RESULT:      -8.5      2.642      3.242
REMARK  5 active torsions:
REMARK  status: ('A' for Active; 'I' for Inactive)
REMARK    1  A    between atoms: S1_2  and  N1_5 
REMARK    2  A    between atoms: N1_5  and  C2_6 
REMARK    3  A    between atoms: C2_6  and  C3_7 
REMARK    4  A    between atoms: C7_12  and  N3_13 
REMARK    5  A    between atoms: N3_13  and  C8_14 
ROOT
HETATM    1  C3  UNL     1      25.025   1.624  52.101  1.00  0.00    -0.038 A 
HETATM    2  C4  UNL     1      25.021   2.496  51.073  1.00  0.00    -0.000 A 
HETATM    3  C5  UNL     1      26.248   3.252  50.791  1.00  0.00     0.162 C 
HETATM    4  N2  UNL     1      26.014   4.649  50.467  1.00  0.00    -0.379 N 
HETATM    5  C6  UNL     1      25.140   5.239  49.535  1.00  0.00     0.129 A 
HETATM    6  C7  UNL     1      25.552   6.517  49.250  1.00  0.00     0.160 A 
HETATM    7  N4  UNL     1      24.786   7.209  48.386  1.00  0.00    -0.222 NA
HETATM    8  C14 UNL     1      23.684   6.697  47.827  1.00  0.00     0.238 A 
HETATM    9  N5  UNL     1      23.274   5.452  48.097  1.00  0.00    -0.215 NA
HETATM   10  C15 UNL     1      24.012   4.710  48.965  1.00  0.00     0.202 A 
HETATM   11  O3  UNL     1      23.506   3.414  49.188  1.00  0.00    -0.288 OA
HETATM   12  C16 UNL     1      23.782   2.608  50.274  1.00  0.00     0.101 A 
HETATM   13  C17 UNL     1      22.690   1.882  50.533  1.00  0.00     0.121 A 
HETATM   14  N6  UNL     1      22.714   0.977  51.598  1.00  0.00    -0.393 N 
HETATM   15  C18 UNL     1      23.834   0.825  52.488  1.00  0.00     0.155 A 
HETATM   16  H9  UNL     1      26.564   5.359  51.000  1.00  0.00     0.160 HD
HETATM   17  H17 UNL     1      21.967   0.319  51.888  1.00  0.00     0.159 HD
ENDROOT
BRANCH   6  18
HETATM   18  N3  UNL     1      26.723   7.151  49.732  1.00  0.00    -0.339 N 
HETATM   19  H10 UNL     1      27.049   7.465  50.669  1.00  0.00     0.167 HD
BRANCH  18  20
HETATM   20  C8  UNL     1      27.805   7.493  48.850  1.00  0.00     0.035 A 
HETATM   21  C9  UNL     1      28.330   6.712  47.845  1.00  0.00     0.029 A 
HETATM   22  C10 UNL     1      29.395   7.146  47.082  1.00  0.00     0.004 A 
HETATM   23  C11 UNL     1      29.912   8.393  47.362  1.00  0.00     0.019 A 
HETATM   24  C12 UNL     1      29.419   9.208  48.357  1.00  0.00     0.013 A 
HETATM   25 BR1  UNL     1      30.279  10.912  48.596  1.00  0.00    -0.051 Br
HETATM   26  C13 UNL     1      28.337   8.755  49.126  1.00  0.00     0.048 A 
ENDBRANCH  18  20
ENDBRANCH   6  18
BRANCH   1  27
HETATM   27  C2  UNL     1      26.156   1.324  53.008  1.00  0.00     0.140 C 
BRANCH  27  28
HETATM   28  N1  UNL     1      27.165   0.471  52.391  1.00  0.00    -0.216 NA
HETATM   29  H4  UNL     1      27.959   1.146  52.142  1.00  0.00     0.139 HD
BRANCH  28  30
HETATM   30  S1  UNL     1      27.783  -0.634  53.590  1.00  0.00     0.205 S 
HETATM   31  C1  UNL     1      29.561  -0.715  53.486  1.00  0.00     0.179 C 
HETATM   32  O1  UNL     1      27.246  -1.989  53.248  1.00  0.00    -0.212 OA
HETATM   33  O2  UNL     1      27.380  -0.254  54.967  1.00  0.00    -0.212 OA
ENDBRANCH  28  30
ENDBRANCH  27  28
ENDBRANCH   1  27
TORSDOF 5
ENDMDL
MODEL 5
REMARK VINA RESULT:      -8.4      2.335      2.694
REMARK  5 active torsions:
REMARK  status: ('A' for Active; 'I' for Inactive)
REMARK    1  A    between atoms: S1_2  and  N1_5 
REMARK    2  A    between atoms: N1_5  and  C2_6 
REMARK    3  A    between atoms: C2_6  and  C3_7 
REMARK    4  A    between atoms: C7_12  and  N3_13 
REMARK    5  A    between atoms: N3_13  and  C8_14 
ROOT
HETATM    1  C3  UNL     1      24.830  -0.362  54.143  1.00  0.00    -0.038 A 
HETATM    2  C4  UNL     1      23.922   0.296  53.395  1.00  0.00    -0.000 A 
HETATM    3  C5  UNL     1      24.403   1.145  52.296  1.00  0.00     0.162 C 
HETATM    4  N2  UNL     1      23.702   2.413  52.187  1.00  0.00    -0.379 N 
HETATM    5  C6  UNL     1      22.325   2.698  52.135  1.00  0.00     0.129 A 
HETATM    6  C7  UNL     1      22.124   3.944  51.597  1.00  0.00     0.160 A 
HETATM    7  N4  UNL     1      20.846   4.355  51.512  1.00  0.00    -0.222 NA
HETATM    8  C14 UNL     1      19.817   3.606  51.923  1.00  0.00     0.238 A 
HETATM    9  N5  UNL     1      20.001   2.388  52.449  1.00  0.00    -0.215 NA
HETATM   10  C15 UNL     1      21.275   1.925  52.557  1.00  0.00     0.202 A 
HETATM   11  O3  UNL     1      21.373   0.637  53.119  1.00  0.00    -0.288 OA
HETATM   12  C16 UNL     1      22.493   0.091  53.713  1.00  0.00     0.101 A 
HETATM   13  C17 UNL     1      22.083  -0.715  54.698  1.00  0.00     0.121 A 
HETATM   14  N6  UNL     1      23.037  -1.395  55.459  1.00  0.00    -0.393 N 
HETATM   15  C18 UNL     1      24.456  -1.229  55.290  1.00  0.00     0.155 A 
HETATM   16  H9  UNL     1      24.288   3.276  52.144  1.00  0.00     0.160 HD
HETATM   17  H17 UNL     1      22.871  -2.083  56.218  1.00  0.00     0.159 HD
ENDROOT
BRANCH   6  18
HETATM   18  N3  UNL     1      23.120   4.807  51.078  1.00  0.00    -0.339 N 
HETATM   19  H10 UNL     1      24.018   5.187  51.442  1.00  0.00     0.167 HD
BRANCH  18  20
HETATM   20  C8  UNL     1      23.015   5.361  49.756  1.00  0.00     0.035 A 
HETATM   21  C9  UNL     1      23.249   6.667  49.387  1.00  0.00     0.029 A 
HETATM   22  C10 UNL     1      23.085   7.084  48.082  1.00  0.00     0.004 A 
HETATM   23  C11 UNL     1      22.678   6.142  47.161  1.00  0.00     0.019 A 
HETATM   24  C12 UNL     1      22.432   4.826  47.485  1.00  0.00     0.013 A 
HETATM   25 BR1  UNL     1      21.870   3.666  46.057  1.00  0.00    -0.051 Br
HETATM   26  C13 UNL     1      22.602   4.416  48.815  1.00  0.00     0.048 A 
ENDBRANCH  18  20
ENDBRANCH   6  18
BRANCH   1  27
HETATM   27  C2  UNL     1      26.301  -0.334  53.984  1.00  0.00     0.140 C 
BRANCH  27  28
HETATM   28  N1  UNL     1      26.930   0.753  54.727  1.00  0.00    -0.216 NA
HETATM   29  H4  UNL     1      27.142   0.323  55.685  1.00  0.00     0.139 HD
BRANCH  28  30
HETATM   30  S1  UNL     1      28.460   1.136  53.982  1.00  0.00     0.205 S 
HETATM   31  C1  UNL     1      29.344  -0.364  53.600  1.00  0.00     0.179 C 
HETATM   32  O1  UNL     1      29.261   1.886  55.001  1.00  0.00    -0.212 OA
HETATM   33  O2  UNL     1      28.300   1.950  52.752  1.00  0.00    -0.212 OA
ENDBRANCH  28  30
ENDBRANCH  27  28
ENDBRANCH   1  27
TORSDOF 5
ENDMDL
MODEL 6
REMARK VINA RESULT:      -8.3      4.935      7.401
REMARK  5 active torsions:
REMARK  status: ('A' for Active; 'I' for Inactive)
REMARK    1  A    between atoms: S1_2  and  N1_5 
REMARK    2  A    between atoms: N1_5  and  C2_6 
REMARK    3  A    between atoms: C2_6  and  C3_7 
REMARK    4  A    between atoms: C7_12  and  N3_13 
REMARK    5  A    between atoms: N3_13  and  C8_14 
ROOT
HETATM    1  C3  UNL     1      25.881   4.671  49.694  1.00  0.00    -0.038 A 
HETATM    2  C4  UNL     1      26.676   5.516  49.008  1.00  0.00    -0.000 A 
HETATM    3  C5  UNL     1      27.963   5.015  48.506  1.00  0.00     0.162 C 
HETATM    4  N2  UNL     1      29.061   5.954  48.671  1.00  0.00    -0.379 N 
HETATM    5  C6  UNL     1      29.167   7.311  48.314  1.00  0.00     0.129 A 
HETATM    6  C7  UNL     1      30.489   7.675  48.246  1.00  0.00     0.160 A 
HETATM    7  N4  UNL     1      30.735   8.961  47.938  1.00  0.00    -0.222 NA
HETATM    8  C14 UNL     1      29.761   9.849  47.708  1.00  0.00     0.238 A 
HETATM    9  N5  UNL     1      28.468   9.504  47.771  1.00  0.00    -0.215 NA
HETATM   10  C15 UNL     1      28.165   8.215  48.079  1.00  0.00     0.202 A 
HETATM   11  O3  UNL     1      26.783   7.944  48.122  1.00  0.00    -0.288 OA
HETATM   12  C16 UNL     1      26.180   6.890  48.778  1.00  0.00     0.101 A 
HETATM   13  C17 UNL     1      24.989   7.308  49.218  1.00  0.00     0.121 A 
HETATM   14  N6  UNL     1      24.174   6.417  49.921  1.00  0.00    -0.393 N 
HETATM   15  C18 UNL     1      24.571   5.077  50.264  1.00  0.00     0.155 A 
HETATM   16  H9  UNL     1      29.926   5.595  49.132  1.00  0.00     0.160 HD
HETATM   17  H17 UNL     1      23.215   6.581  50.279  1.00  0.00     0.159 HD
ENDROOT
BRANCH   6  18
HETATM   18  N3  UNL     1      31.606   6.821  48.414  1.00  0.00    -0.339 N 
HETATM   19  H10 UNL     1      32.242   6.600  49.208  1.00  0.00     0.167 HD
BRANCH  18  20
HETATM   20  C8  UNL     1      32.090   6.001  47.338  1.00  0.00     0.035 A 
HETATM   21  C9  UNL     1      32.490   6.427  46.091  1.00  0.00     0.029 A 
HETATM   22  C10 UNL     1      32.910   5.532  45.128  1.00  0.00     0.004 A 
HETATM   23  C11 UNL     1      32.914   4.195  45.463  1.00  0.00     0.019 A 
HETATM   24  C12 UNL     1      32.523   3.724  46.697  1.00  0.00     0.013 A 
HETATM   25 BR1  UNL     1      32.598   1.821  46.969  1.00  0.00    -0.051 Br
HETATM   26  C13 UNL     1      32.098   4.644  47.666  1.00  0.00     0.048 A 
ENDBRANCH  18  20
ENDBRANCH   6  18
BRANCH   1  27
HETATM   27  C2  UNL     1      26.156   3.251  50.009  1.00  0.00     0.140 C 
BRANCH  27  28
HETATM   28  N1  UNL     1      26.942   3.084  51.227  1.00  0.00    -0.216 NA
HETATM   29  H4  UNL     1      26.774   3.992  51.770  1.00  0.00     0.139 HD
BRANCH  28  30
HETATM   30  S1  UNL     1      26.260   1.784  52.167  1.00  0.00     0.205 S 
HETATM   31  C1  UNL     1      24.491   1.738  51.950  1.00  0.00     0.179 C 
HETATM   32  O1  UNL     1      26.533   2.100  53.605  1.00  0.00    -0.212 OA
HETATM   33  O2  UNL     1      26.842   0.466  51.812  1.00  0.00    -0.212 OA
ENDBRANCH  28  30
ENDBRANCH  27  28
ENDBRANCH   1  27
TORSDOF 5
ENDMDL
MODEL 7
REMARK VINA RESULT:      -8.1      2.195      2.697
REMARK  5 active torsions:
REMARK  status: ('A' for Active; 'I' for Inactive)
REMARK    1  A    between atoms: S1_2  and  N1_5 
REMARK    2  A    between atoms: N1_5  and  C2_6 
REMARK    3  A    between atoms: C2_6  and  C3_7 
REMARK    4  A    between atoms: C7_12  and  N3_13 
REMARK    5  A    between atoms: N3_13  and  C8_14 
ROOT
HETATM    1  C3  UNL     1      22.999  -0.148  53.441  1.00  0.00    -0.038 A 
HETATM    2  C4  UNL     1      22.253   0.567  52.575  1.00  0.00    -0.000 A 
HETATM    3  C5  UNL     1      22.846   0.943  51.285  1.00  0.00     0.162 C 
HETATM    4  N2  UNL     1      22.544   2.305  50.876  1.00  0.00    -0.379 N 
HETATM    5  C6  UNL     1      21.314   2.983  50.791  1.00  0.00     0.129 A 
HETATM    6  C7  UNL     1      21.435   4.069  49.960  1.00  0.00     0.160 A 
HETATM    7  N4  UNL     1      20.333   4.826  49.809  1.00  0.00    -0.222 NA
HETATM    8  C14 UNL     1      19.177   4.552  50.424  1.00  0.00     0.238 A 
HETATM    9  N5  UNL     1      19.048   3.495  51.236  1.00  0.00    -0.215 NA
HETATM   10  C15 UNL     1      20.132   2.698  51.423  1.00  0.00     0.202 A 
HETATM   11  O3  UNL     1      19.904   1.611  52.291  1.00  0.00    -0.288 OA
HETATM   12  C16 UNL     1      20.869   0.897  52.973  1.00  0.00     0.101 A 
HETATM   13  C17 UNL     1      20.344   0.512  54.141  1.00  0.00     0.121 A 
HETATM   14  N6  UNL     1      21.129  -0.235  55.024  1.00  0.00    -0.393 N 
HETATM   15  C18 UNL     1      22.508  -0.563  54.780  1.00  0.00     0.155 A 
HETATM   16  H9  UNL     1      23.350   2.907  50.600  1.00  0.00     0.160 HD
HETATM   17  H17 UNL     1      20.847  -0.640  55.936  1.00  0.00     0.159 HD
ENDROOT
BRANCH   6  18
HETATM   18  N3  UNL     1      22.581   4.433  49.213  1.00  0.00    -0.339 N 
HETATM   19  H10 UNL     1      22.963   4.161  48.284  1.00  0.00     0.167 HD
BRANCH  18  20
HETATM   20  C8  UNL     1      23.525   5.395  49.712  1.00  0.00     0.035 A 
HETATM   21  C9  UNL     1      23.342   6.260  50.768  1.00  0.00     0.029 A 
HETATM   22  C10 UNL     1      24.320   7.161  51.134  1.00  0.00     0.004 A 
HETATM   23  C11 UNL     1      25.490   7.162  50.403  1.00  0.00     0.019 A 
HETATM   24  C12 UNL     1      25.716   6.316  49.340  1.00  0.00     0.013 A 
HETATM   25 BR1  UNL     1      27.411   6.473  48.445  1.00  0.00    -0.051 Br
HETATM   26  C13 UNL     1      24.713   5.405  48.978  1.00  0.00     0.048 A 
ENDBRANCH  18  20
ENDBRANCH   6  18
BRANCH   1  27
HETATM   27  C2  UNL     1      24.388  -0.618  53.240  1.00  0.00     0.140 C 
BRANCH  27  28
HETATM   28  N1  UNL     1      25.176  -0.597  54.468  1.00  0.00    -0.216 NA
HETATM   29  H4  UNL     1      25.471  -1.618  54.604  1.00  0.00     0.139 HD
BRANCH  28  30
HETATM   30  S1  UNL     1      26.628   0.329  54.194  1.00  0.00     0.205 S 
HETATM   31  C1  UNL     1      27.111   0.211  52.482  1.00  0.00     0.179 C 
HETATM   32  O1  UNL     1      27.707  -0.306  55.015  1.00  0.00    -0.212 OA
HETATM   33  O2  UNL     1      26.466   1.755  54.571  1.00  0.00    -0.212 OA
ENDBRANCH  28  30
ENDBRANCH  27  28
ENDBRANCH   1  27
TORSDOF 5
ENDMDL
MODEL 8
REMARK VINA RESULT:      -8.1      5.727      8.813
REMARK  5 active torsions:
REMARK  status: ('A' for Active; 'I' for Inactive)
REMARK    1  A    between atoms: S1_2  and  N1_5 
REMARK    2  A    between atoms: N1_5  and  C2_6 
REMARK    3  A    between atoms: C2_6  and  C3_7 
REMARK    4  A    between atoms: C7_12  and  N3_13 
REMARK    5  A    between atoms: N3_13  and  C8_14 
ROOT
HETATM    1  C3  UNL     1      26.034   6.602  49.595  1.00  0.00    -0.038 A 
HETATM    2  C4  UNL     1      27.239   6.893  49.065  1.00  0.00    -0.000 A 
HETATM    3  C5  UNL     1      27.946   5.844  48.318  1.00  0.00     0.162 C 
HETATM    4  N2  UNL     1      29.372   5.786  48.597  1.00  0.00    -0.379 N 
HETATM    5  C6  UNL     1      30.349   6.799  48.587  1.00  0.00     0.129 A 
HETATM    6  C7  UNL     1      31.598   6.243  48.472  1.00  0.00     0.160 A 
HETATM    7  N4  UNL     1      32.633   7.103  48.476  1.00  0.00    -0.222 NA
HETATM    8  C14 UNL     1      32.473   8.427  48.584  1.00  0.00     0.238 A 
HETATM    9  N5  UNL     1      31.258   8.979  48.695  1.00  0.00    -0.215 NA
HETATM   10  C15 UNL     1      30.178   8.154  48.697  1.00  0.00     0.202 A 
HETATM   11  O3  UNL     1      28.943   8.822  48.817  1.00  0.00    -0.288 OA
HETATM   12  C16 UNL     1      27.755   8.266  49.246  1.00  0.00     0.101 A 
HETATM   13  C17 UNL     1      27.073   9.211  49.901  1.00  0.00     0.121 A 
HETATM   14  N6  UNL     1      25.823   8.895  50.439  1.00  0.00    -0.393 N 
HETATM   15  C18 UNL     1      25.243   7.579  50.387  1.00  0.00     0.155 A 
HETATM   16  H9  UNL     1      29.767   4.855  48.857  1.00  0.00     0.160 HD
HETATM   17  H17 UNL     1      25.164   9.529  50.928  1.00  0.00     0.159 HD
ENDROOT
BRANCH   6  18
HETATM   18  N3  UNL     1      31.896   4.869  48.298  1.00  0.00    -0.339 N 
HETATM   19  H10 UNL     1      31.508   3.984  48.686  1.00  0.00     0.167 HD
BRANCH  18  20
HETATM   20  C8  UNL     1      32.937   4.437  47.408  1.00  0.00     0.035 A 
HETATM   21  C9  UNL     1      34.099   3.784  47.752  1.00  0.00     0.029 A 
HETATM   22  C10 UNL     1      35.041   3.446  46.801  1.00  0.00     0.004 A 
HETATM   23  C11 UNL     1      34.772   3.784  45.492  1.00  0.00     0.019 A 
HETATM   24  C12 UNL     1      33.623   4.436  45.102  1.00  0.00     0.013 A 
HETATM   25 BR1  UNL     1      33.433   4.824  43.227  1.00  0.00    -0.051 Br
HETATM   26  C13 UNL     1      32.675   4.775  46.078  1.00  0.00     0.048 A 
ENDBRANCH  18  20
ENDBRANCH   6  18
BRANCH   1  27
HETATM   27  C2  UNL     1      25.313   5.313  49.510  1.00  0.00     0.140 C 
BRANCH  27  28
HETATM   28  N1  UNL     1      25.075   4.710  50.817  1.00  0.00    -0.216 NA
HETATM   29  H4  UNL     1      24.599   5.488  51.379  1.00  0.00     0.139 HD
BRANCH  28  30
HETATM   30  S1  UNL     1      23.917   3.417  50.641  1.00  0.00     0.205 S 
HETATM   31  C1  UNL     1      22.541   3.679  51.744  1.00  0.00     0.179 C 
HETATM   32  O1  UNL     1      24.607   2.158  51.068  1.00  0.00    -0.212 OA
HETATM   33  O2  UNL     1      23.424   3.287  49.248  1.00  0.00    -0.212 OA
ENDBRANCH  28  30
ENDBRANCH  27  28
ENDBRANCH   1  27
TORSDOF 5
ENDMDL
MODEL 9
REMARK VINA RESULT:      -8.0      3.650      6.907
REMARK  5 active torsions:
REMARK  status: ('A' for Active; 'I' for Inactive)
REMARK    1  A    between atoms: S1_2  and  N1_5 
REMARK    2  A    between atoms: N1_5  and  C2_6 
REMARK    3  A    between atoms: C2_6  and  C3_7 
REMARK    4  A    between atoms: C7_12  and  N3_13 
REMARK    5  A    between atoms: N3_13  and  C8_14 
ROOT
HETATM    1  C3  UNL     1      25.275   4.175  49.967  1.00  0.00    -0.038 A 
HETATM    2  C4  UNL     1      23.963   4.145  50.275  1.00  0.00    -0.000 A 
HETATM    3  C5  UNL     1      23.390   2.885  50.769  1.00  0.00     0.162 C 
HETATM    4  N2  UNL     1      22.083   2.579  50.212  1.00  0.00    -0.379 N 
HETATM    5  C6  UNL     1      20.918   3.364  50.125  1.00  0.00     0.129 A 
HETATM    6  C7  UNL     1      19.823   2.558  49.941  1.00  0.00     0.160 A 
HETATM    7  N4  UNL     1      18.639   3.185  49.814  1.00  0.00    -0.222 NA
HETATM    8  C14 UNL     1      18.516   4.516  49.863  1.00  0.00     0.238 A 
HETATM    9  N5  UNL     1      19.578   5.312  50.043  1.00  0.00    -0.215 NA
HETATM   10  C15 UNL     1      20.799   4.728  50.176  1.00  0.00     0.202 A 
HETATM   11  O3  UNL     1      21.856   5.642  50.362  1.00  0.00    -0.288 OA
HETATM   12  C16 UNL     1      23.194   5.398  50.125  1.00  0.00     0.101 A 
HETATM   13  C17 UNL     1      23.750   6.538  49.706  1.00  0.00     0.121 A 
HETATM   14  N6  UNL     1      25.113   6.555  49.396  1.00  0.00    -0.393 N 
HETATM   15  C18 UNL     1      25.953   5.388  49.439  1.00  0.00     0.155 A 
HETATM   16  H9  UNL     1      21.955   1.631  49.796  1.00  0.00     0.160 HD
HETATM   17  H17 UNL     1      25.688   7.368  49.106  1.00  0.00     0.159 HD
ENDROOT
BRANCH   6  18
HETATM   18  N3  UNL     1      19.813   1.142  49.926  1.00  0.00    -0.339 N 
HETATM   19  H10 UNL     1      20.066   0.418  49.222  1.00  0.00     0.167 HD
BRANCH  18  20
HETATM   20  C8  UNL     1      19.392   0.385  51.073  1.00  0.00     0.035 A 
HETATM   21  C9  UNL     1      18.141  -0.141  51.301  1.00  0.00     0.029 A 
HETATM   22  C10 UNL     1      17.852  -0.829  52.462  1.00  0.00     0.004 A 
HETATM   23  C11 UNL     1      18.866  -0.971  53.385  1.00  0.00     0.019 A 
HETATM   24  C12 UNL     1      20.133  -0.462  53.198  1.00  0.00     0.013 A 
HETATM   25 BR1  UNL     1      21.410  -0.763  54.605  1.00  0.00    -0.051 Br
HETATM   26  C13 UNL     1      20.412   0.235  52.015  1.00  0.00     0.048 A 
ENDBRANCH  18  20
ENDBRANCH   6  18
BRANCH   1  27
HETATM   27  C2  UNL     1      26.240   3.058  50.072  1.00  0.00     0.140 C 
BRANCH  27  28
HETATM   28  N1  UNL     1      27.205   3.244  51.150  1.00  0.00    -0.216 NA
HETATM   29  H4  UNL     1      26.859   4.120  51.660  1.00  0.00     0.139 HD
BRANCH  28  30
HETATM   30  S1  UNL     1      27.071   1.910  52.266  1.00  0.00     0.205 S 
HETATM   31  C1  UNL     1      25.909   2.310  53.557  1.00  0.00     0.179 C 
HETATM   32  O1  UNL     1      28.416   1.742  52.902  1.00  0.00    -0.212 OA
HETATM   33  O2  UNL     1      26.660   0.653  51.594  1.00  0.00    -0.212 OA
ENDBRANCH  28  30
ENDBRANCH  27  28
ENDBRANCH   1  27
TORSDOF 5
ENDMDL
