MODEL 1
REMARK VINA RESULT:      -7.1      0.000      0.000
REMARK  9 active torsions:
REMARK  status: ('A' for Active; 'I' for Inactive)
REMARK    1  A    between atoms: C2_2  and  C3_3 
REMARK    2  A    between atoms: C3_3  and  C4_4 
REMARK    3  A    between atoms: C4_4  and  N1_5 
REMARK    4  A    between atoms: N1_5  and  C5_6 
REMARK    5  A    between atoms: N1_5  and  N2_15 
REMARK    6  A    between atoms: C5_6  and  C6_7 
REMARK    7  A    between atoms: C11_13  and  O1_14 
REMARK    8  A    between atoms: N2_15  and  C12_16 
REMARK    9  A    between atoms: C17_21  and  P1_22 
ROOT
HETATM    1  N1  UNL     1      23.699   0.040  53.051  1.00  0.00    -0.343 N 
ENDROOT
BRANCH   1   2
HETATM    2  C4  UNL     1      22.561  -0.812  53.245  1.00  0.00     0.137 C 
BRANCH   2   3
HETATM    3  C3  UNL     1      21.854  -0.575  54.567  1.00  0.00     0.021 C 
BRANCH   3   4
HETATM    4  C2  UNL     1      20.556   0.187  54.396  1.00  0.00    -0.003 C 
HETATM    5  C1  UNL     1      19.928  -0.046  53.049  1.00  0.00     0.005 C 
ENDBRANCH   3   4
ENDBRANCH   2   3
ENDBRANCH   1   2
BRANCH   1   6
HETATM    6  C5  UNL     1      23.430   1.405  52.933  1.00  0.00     0.178 C 
BRANCH   6   7
HETATM    7  C6  UNL     1      23.362   1.930  51.516  1.00  0.00    -0.005 A 
HETATM    8  C7  UNL     1      22.416   1.628  50.564  1.00  0.00     0.012 A 
HETATM    9  C8  UNL     1      22.517   2.200  49.306  1.00  0.00     0.002 A 
HETATM   10  C9  UNL     1      23.562   3.058  49.037  1.00  0.00     0.022 A 
HETATM   11  C10 UNL     1      24.517   3.365  49.989  1.00  0.00     0.044 A 
HETATM   12 BR1  UNL     1      25.913   4.561  49.487  1.00  0.00    -0.048 Br
HETATM   13  C11 UNL     1      24.418   2.799  51.237  1.00  0.00     0.091 A 
BRANCH  13  14
HETATM   14  O1  UNL     1      25.420   3.152  52.157  1.00  0.00    -0.359 OA
HETATM   15  H15 UNL     1      25.677   2.511  52.902  1.00  0.00     0.217 HD
ENDBRANCH  13  14
ENDBRANCH   6   7
ENDBRANCH   1   6
BRANCH   1  16
HETATM   16  N2  UNL     1      24.857  -0.368  53.661  1.00  0.00    -0.239 NA
HETATM   17  H16 UNL     1      24.793  -1.266  54.160  1.00  0.00     0.146 HD
BRANCH  16  18
HETATM   18  C12 UNL     1      25.955  -0.457  52.676  1.00  0.00     0.133 A 
HETATM   19  C13 UNL     1      27.173   0.406  53.278  1.00  0.00     0.012 A 
HETATM   20  C14 UNL     1      27.831  -1.149  53.049  1.00  0.00     0.032 A 
HETATM   21  P1  UNL     1      27.801   0.162  53.401  1.00  0.00    -0.122 P 
HETATM   22  C15 UNL     1      29.294  -1.665  53.345  1.00  0.00     0.014 A 
HETATM   23  C17 UNL     1      29.138  -0.395  53.650  1.00  0.00    -0.007 A 
HETATM   24  C16 UNL     1      30.300  -0.899  53.856  1.00  0.00     0.010 A 
HETATM   25  H22 UNL     1      25.608   1.148  53.012  1.00  0.00     0.053 HD
ENDBRANCH  16  18
ENDBRANCH   1  16
TORSDOF 9
ENDMDL
MODEL 2
REMARK VINA RESULT:      -7.1      3.234      5.824
REMARK  9 active torsions:
REMARK  status: ('A' for Active; 'I' for Inactive)
REMARK    1  A    between atoms: C2_2  and  C3_3 
REMARK    2  A    between atoms: C3_3  and  C4_4 
REMARK    3  A    between atoms: C4_4  and  N1_5 
REMARK    4  A    between atoms: N1_5  and  C5_6 
REMARK    5  A    between atoms: N1_5  and  N2_15 
REMARK    6  A    between atoms: C5_6  and  C6_7 
REMARK    7  A    between atoms: C11_13  and  O1_14 
REMARK    8  A    between atoms: N2_15  and  C12_16 
REMARK    9  A    between atoms: C17_21  and  P1_22 
ROOT
HETATM    1  N1  UNL     1      24.779   2.227  52.501  1.00  0.00    -0.343 N 
ENDROOT
BRANCH   1   2
HETATM    2  C4  UNL     1      23.555   1.676  53.011  1.00  0.00     0.137 C 
BRANCH   2   3
HETATM    3  C3  UNL     1      23.671   0.211  53.388  1.00  0.00     0.021 C 
BRANCH   3   4
HETATM    4  C2  UNL     1      22.342  -0.512  53.307  1.00  0.00    -0.003 C 
HETATM    5  C1  UNL     1      21.574  -0.445  54.598  1.00  0.00     0.005 C 
ENDBRANCH   3   4
ENDBRANCH   2   3
ENDBRANCH   1   2
BRANCH   1   6
HETATM    6  C5  UNL     1      25.685   1.313  51.962  1.00  0.00     0.178 C 
BRANCH   6   7
HETATM    7  C6  UNL     1      27.005   1.204  52.693  1.00  0.00    -0.005 A 
HETATM    8  C7  UNL     1      27.713   2.225  53.285  1.00  0.00     0.012 A 
HETATM    9  C8  UNL     1      28.917   1.939  53.907  1.00  0.00     0.002 A 
HETATM   10  C9  UNL     1      29.379   0.641  53.920  1.00  0.00     0.022 A 
HETATM   11  C10 UNL     1      28.673  -0.390  53.325  1.00  0.00     0.044 A 
HETATM   12 BR1  UNL     1      29.426  -2.139  53.410  1.00  0.00    -0.048 Br
HETATM   13  C11 UNL     1      27.479  -0.109  52.709  1.00  0.00     0.091 A 
BRANCH  13  14
HETATM   14  O1  UNL     1      26.814  -1.200  52.125  1.00  0.00    -0.359 OA
HETATM   15  H15 UNL     1      27.252  -1.721  51.370  1.00  0.00     0.217 HD
ENDBRANCH  13  14
ENDBRANCH   6   7
ENDBRANCH   1   6
BRANCH   1  16
HETATM   16  N2  UNL     1      24.682   3.481  51.957  1.00  0.00    -0.239 NA
HETATM   17  H16 UNL     1      25.340   4.175  52.341  1.00  0.00     0.146 HD
BRANCH  16  18
HETATM   18  C12 UNL     1      24.865   3.425  50.492  1.00  0.00     0.133 A 
HETATM   19  C13 UNL     1      25.039   4.947  49.998  1.00  0.00     0.012 A 
HETATM   20  C14 UNL     1      26.456   4.166  49.464  1.00  0.00     0.032 A 
HETATM   21  P1  UNL     1      25.580   5.186  49.654  1.00  0.00    -0.122 P 
HETATM   22  C15 UNL     1      27.680   4.762  48.665  1.00  0.00     0.014 A 
HETATM   23  C17 UNL     1      26.756   5.665  48.913  1.00  0.00    -0.007 A 
HETATM   24  C16 UNL     1      27.788   6.062  48.264  1.00  0.00     0.010 A 
HETATM   25  H22 UNL     1      23.604   4.459  50.878  1.00  0.00     0.053 HD
ENDBRANCH  16  18
ENDBRANCH   1  16
TORSDOF 9
ENDMDL
MODEL 3
REMARK VINA RESULT:      -7.1      2.680      4.664
REMARK  9 active torsions:
REMARK  status: ('A' for Active; 'I' for Inactive)
REMARK    1  A    between atoms: C2_2  and  C3_3 
REMARK    2  A    between atoms: C3_3  and  C4_4 
REMARK    3  A    between atoms: C4_4  and  N1_5 
REMARK    4  A    between atoms: N1_5  and  C5_6 
REMARK    5  A    between atoms: N1_5  and  N2_15 
REMARK    6  A    between atoms: C5_6  and  C6_7 
REMARK    7  A    between atoms: C11_13  and  O1_14 
REMARK    8  A    between atoms: N2_15  and  C12_16 
REMARK    9  A    between atoms: C17_21  and  P1_22 
ROOT
HETATM    1  N1  UNL     1      24.322   2.553  53.052  1.00  0.00    -0.343 N 
ENDROOT
BRANCH   1   2
HETATM    2  C4  UNL     1      23.727   3.777  52.595  1.00  0.00     0.137 C 
BRANCH   2   3
HETATM    3  C3  UNL     1      23.629   3.866  51.084  1.00  0.00     0.021 C 
BRANCH   3   4
HETATM    4  C2  UNL     1      24.802   4.604  50.473  1.00  0.00    -0.003 C 
HETATM    5  C1  UNL     1      25.569   3.751  49.498  1.00  0.00     0.005 C 
ENDBRANCH   3   4
ENDBRANCH   2   3
ENDBRANCH   1   2
BRANCH   1   6
HETATM    6  C5  UNL     1      23.955   1.397  52.361  1.00  0.00     0.178 C 
BRANCH   6   7
HETATM    7  C6  UNL     1      23.114   0.415  53.147  1.00  0.00    -0.005 A 
HETATM    8  C7  UNL     1      23.541  -0.433  54.143  1.00  0.00     0.012 A 
HETATM    9  C8  UNL     1      22.625  -1.275  54.751  1.00  0.00     0.002 A 
HETATM   10  C9  UNL     1      21.309  -1.247  54.345  1.00  0.00     0.022 A 
HETATM   11  C10 UNL     1      20.873  -0.399  53.343  1.00  0.00     0.044 A 
HETATM   12 BR1  UNL     1      19.027  -0.462  52.873  1.00  0.00    -0.048 Br
HETATM   13  C11 UNL     1      21.779   0.438  52.740  1.00  0.00     0.091 A 
BRANCH  13  14
HETATM   14  O1  UNL     1      21.271   1.274  51.730  1.00  0.00    -0.359 OA
HETATM   15  H15 UNL     1      20.268   1.342  51.581  1.00  0.00     0.217 HD
ENDBRANCH  13  14
ENDBRANCH   6   7
ENDBRANCH   1   6
BRANCH   1  16
HETATM   16  N2  UNL     1      25.593   2.663  53.554  1.00  0.00    -0.239 NA
HETATM   17  H16 UNL     1      25.734   2.240  54.482  1.00  0.00     0.146 HD
BRANCH  16  18
HETATM   18  C12 UNL     1      26.571   2.071  52.617  1.00  0.00     0.133 A 
HETATM   19  C13 UNL     1      27.983   2.051  53.390  1.00  0.00     0.012 A 
HETATM   20  C14 UNL     1      27.707   0.422  52.972  1.00  0.00     0.032 A 
HETATM   21  P1  UNL     1      28.357   1.489  53.506  1.00  0.00    -0.122 P 
HETATM   22  C15 UNL     1      28.605  -0.845  53.257  1.00  0.00     0.014 A 
HETATM   23  C17 UNL     1      29.134   0.262  53.733  1.00  0.00    -0.007 A 
HETATM   24  C16 UNL     1      29.799  -0.819  53.917  1.00  0.00     0.010 A 
HETATM   25  H22 UNL     1      27.120   3.558  53.163  1.00  0.00     0.053 HD
ENDBRANCH  16  18
ENDBRANCH   1  16
TORSDOF 9
ENDMDL
MODEL 4
REMARK VINA RESULT:      -7.0      1.847      2.239
REMARK  9 active torsions:
REMARK  status: ('A' for Active; 'I' for Inactive)
REMARK    1  A    between atoms: C2_2  and  C3_3 
REMARK    2  A    between atoms: C3_3  and  C4_4 
REMARK    3  A    between atoms: C4_4  and  N1_5 
REMARK    4  A    between atoms: N1_5  and  C5_6 
REMARK    5  A    between atoms: N1_5  and  N2_15 
REMARK    6  A    between atoms: C5_6  and  C6_7 
REMARK    7  A    between atoms: C11_13  and  O1_14 
REMARK    8  A    between atoms: N2_15  and  C12_16 
REMARK    9  A    between atoms: C17_21  and  P1_22 
ROOT
HETATM    1  N1  UNL     1      24.619   2.056  52.868  1.00  0.00    -0.343 N 
ENDROOT
BRANCH   1   2
HETATM    2  C4  UNL     1      24.240   0.745  53.311  1.00  0.00     0.137 C 
BRANCH   2   3
HETATM    3  C3  UNL     1      22.859   0.330  52.840  1.00  0.00     0.021 C 
BRANCH   3   4
HETATM    4  C2  UNL     1      22.418  -0.989  53.440  1.00  0.00    -0.003 C 
HETATM    5  C1  UNL     1      21.947  -0.843  54.861  1.00  0.00     0.005 C 
ENDBRANCH   3   4
ENDBRANCH   2   3
ENDBRANCH   1   2
BRANCH   1   6
HETATM    6  C5  UNL     1      23.573   2.951  52.634  1.00  0.00     0.178 C 
BRANCH   6   7
HETATM    7  C6  UNL     1      23.641   3.694  51.318  1.00  0.00    -0.005 A 
HETATM    8  C7  UNL     1      23.555   3.155  50.055  1.00  0.00     0.012 A 
HETATM    9  C8  UNL     1      23.646   3.993  48.956  1.00  0.00     0.002 A 
HETATM   10  C9  UNL     1      23.821   5.346  49.151  1.00  0.00     0.022 A 
HETATM   11  C10 UNL     1      23.910   5.894  50.418  1.00  0.00     0.044 A 
HETATM   12 BR1  UNL     1      24.157   7.779  50.550  1.00  0.00    -0.048 Br
HETATM   13  C11 UNL     1      23.819   5.065  51.509  1.00  0.00     0.091 A 
BRANCH  13  14
HETATM   14  O1  UNL     1      23.917   5.686  52.767  1.00  0.00    -0.359 OA
HETATM   15  H15 UNL     1      24.758   5.576  53.325  1.00  0.00     0.217 HD
ENDBRANCH  13  14
ENDBRANCH   6   7
ENDBRANCH   1   6
BRANCH   1  16
HETATM   16  N2  UNL     1      25.811   2.526  53.356  1.00  0.00    -0.239 NA
HETATM   17  H16 UNL     1      26.004   2.289  54.339  1.00  0.00     0.146 HD
BRANCH  16  18
HETATM   18  C12 UNL     1      26.935   2.039  52.529  1.00  0.00     0.133 A 
HETATM   19  C13 UNL     1      28.210   1.947  53.507  1.00  0.00     0.012 A 
HETATM   20  C14 UNL     1      28.038   0.369  52.889  1.00  0.00     0.032 A 
HETATM   21  P1  UNL     1      28.573   1.379  53.622  1.00  0.00    -0.122 P 
HETATM   22  C15 UNL     1      28.908  -0.916  53.182  1.00  0.00     0.014 A 
HETATM   23  C17 UNL     1      29.333   0.140  53.844  1.00  0.00    -0.007 A 
HETATM   24  C16 UNL     1      29.985  -0.951  54.020  1.00  0.00     0.010 A 
HETATM   25  H22 UNL     1      27.360   3.465  53.301  1.00  0.00     0.053 HD
ENDBRANCH  16  18
ENDBRANCH   1  16
TORSDOF 9
ENDMDL
MODEL 5
REMARK VINA RESULT:      -7.0      3.321      5.711
REMARK  9 active torsions:
REMARK  status: ('A' for Active; 'I' for Inactive)
REMARK    1  A    between atoms: C2_2  and  C3_3 
REMARK    2  A    between atoms: C3_3  and  C4_4 
REMARK    3  A    between atoms: C4_4  and  N1_5 
REMARK    4  A    between atoms: N1_5  and  C5_6 
REMARK    5  A    between atoms: N1_5  and  N2_15 
REMARK    6  A    between atoms: C5_6  and  C6_7 
REMARK    7  A    between atoms: C11_13  and  O1_14 
REMARK    8  A    between atoms: N2_15  and  C12_16 
REMARK    9  A    between atoms: C17_21  and  P1_22 
ROOT
HETATM    1  N1  UNL     1      24.314   2.973  51.536  1.00  0.00    -0.343 N 
ENDROOT
BRANCH   1   2
HETATM    2  C4  UNL     1      22.889   2.804  51.506  1.00  0.00     0.137 C 
BRANCH   2   3
HETATM    3  C3  UNL     1      22.451   1.546  50.779  1.00  0.00     0.021 C 
BRANCH   3   4
HETATM    4  C2  UNL     1      21.361   0.802  51.522  1.00  0.00    -0.003 C 
HETATM    5  C1  UNL     1      21.605   0.761  53.006  1.00  0.00     0.005 C 
ENDBRANCH   3   4
ENDBRANCH   2   3
ENDBRANCH   1   2
BRANCH   1   6
HETATM    6  C5  UNL     1      25.073   1.831  51.277  1.00  0.00     0.178 C 
BRANCH   6   7
HETATM    7  C6  UNL     1      25.723   1.198  52.488  1.00  0.00    -0.005 A 
HETATM    8  C7  UNL     1      25.206   0.199  53.280  1.00  0.00     0.012 A 
HETATM    9  C8  UNL     1      25.944  -0.254  54.361  1.00  0.00     0.002 A 
HETATM   10  C9  UNL     1      27.177   0.304  54.619  1.00  0.00     0.022 A 
HETATM   11  C10 UNL     1      27.702   1.310  53.828  1.00  0.00     0.044 A 
HETATM   12 BR1  UNL     1      29.415   2.000  54.297  1.00  0.00    -0.048 Br
HETATM   13  C11 UNL     1      26.972   1.760  52.755  1.00  0.00     0.091 A 
BRANCH  13  14
HETATM   14  O1  UNL     1      27.562   2.783  51.993  1.00  0.00    -0.359 OA
HETATM   15  H15 UNL     1      27.506   2.760  50.978  1.00  0.00     0.217 HD
ENDBRANCH  13  14
ENDBRANCH   6   7
ENDBRANCH   1   6
BRANCH   1  16
HETATM   16  N2  UNL     1      24.775   4.196  51.122  1.00  0.00    -0.239 NA
HETATM   17  H16 UNL     1      25.561   4.575  51.670  1.00  0.00     0.146 HD
BRANCH  16  18
HETATM   18  C12 UNL     1      25.178   4.143  49.702  1.00  0.00     0.133 A 
HETATM   19  C13 UNL     1      25.570   5.648  49.286  1.00  0.00     0.012 A 
HETATM   20  C14 UNL     1      26.972   4.739  48.953  1.00  0.00     0.032 A 
HETATM   21  P1  UNL     1      26.178   5.838  49.036  1.00  0.00    -0.122 P 
HETATM   22  C15 UNL     1      28.358   5.223  48.370  1.00  0.00     0.014 A 
HETATM   23  C17 UNL     1      27.496   6.209  48.500  1.00  0.00    -0.007 A 
HETATM   24  C16 UNL     1      28.650   6.511  48.029  1.00  0.00     0.010 A 
HETATM   25  H22 UNL     1      23.976   5.291  49.920  1.00  0.00     0.053 HD
ENDBRANCH  16  18
ENDBRANCH   1  16
TORSDOF 9
ENDMDL
MODEL 6
REMARK VINA RESULT:      -6.8      2.738      6.260
REMARK  9 active torsions:
REMARK  status: ('A' for Active; 'I' for Inactive)
REMARK    1  A    between atoms: C2_2  and  C3_3 
REMARK    2  A    between atoms: C3_3  and  C4_4 
REMARK    3  A    between atoms: C4_4  and  N1_5 
REMARK    4  A    between atoms: N1_5  and  C5_6 
REMARK    5  A    between atoms: N1_5  and  N2_15 
REMARK    6  A    between atoms: C5_6  and  C6_7 
REMARK    7  A    between atoms: C11_13  and  O1_14 
REMARK    8  A    between atoms: N2_15  and  C12_16 
REMARK    9  A    between atoms: C17_21  and  P1_22 
ROOT
HETATM    1  N1  UNL     1      24.680   2.457  51.190  1.00  0.00    -0.343 N 
ENDROOT
BRANCH   1   2
HETATM    2  C4  UNL     1      25.214   3.554  50.433  1.00  0.00     0.137 C 
BRANCH   2   3
HETATM    3  C3  UNL     1      26.503   3.209  49.710  1.00  0.00     0.021 C 
BRANCH   3   4
HETATM    4  C2  UNL     1      27.114   4.411  49.019  1.00  0.00    -0.003 C 
HETATM    5  C1  UNL     1      26.178   5.588  48.983  1.00  0.00     0.005 C 
ENDBRANCH   3   4
ENDBRANCH   2   3
ENDBRANCH   1   2
BRANCH   1   6
HETATM    6  C5  UNL     1      25.226   2.265  52.460  1.00  0.00     0.178 C 
BRANCH   6   7
HETATM    7  C6  UNL     1      26.002   0.980  52.642  1.00  0.00    -0.005 A 
HETATM    8  C7  UNL     1      25.528  -0.304  52.496  1.00  0.00     0.012 A 
HETATM    9  C8  UNL     1      26.387  -1.369  52.713  1.00  0.00     0.002 A 
HETATM   10  C9  UNL     1      27.694  -1.121  53.069  1.00  0.00     0.022 A 
HETATM   11  C10 UNL     1      28.177   0.167  53.219  1.00  0.00     0.044 A 
HETATM   12 BR1  UNL     1      30.004   0.373  53.720  1.00  0.00    -0.048 Br
HETATM   13  C11 UNL     1      27.328   1.225  53.004  1.00  0.00     0.091 A 
BRANCH  13  14
HETATM   14  O1  UNL     1      27.881   2.506  53.173  1.00  0.00    -0.359 OA
HETATM   15  H15 UNL     1      27.407   3.320  52.793  1.00  0.00     0.217 HD
ENDBRANCH  13  14
ENDBRANCH   6   7
ENDBRANCH   1   6
BRANCH   1  16
HETATM   16  N2  UNL     1      23.354   2.180  50.977  1.00  0.00    -0.239 NA
HETATM   17  H16 UNL     1      23.166   1.282  50.510  1.00  0.00     0.146 HD
BRANCH  16  18
HETATM   18  C12 UNL     1      22.609   2.209  52.253  1.00  0.00     0.133 A 
HETATM   19  C13 UNL     1      21.419   1.136  52.107  1.00  0.00     0.012 A 
HETATM   20  C14 UNL     1      22.288   0.617  53.477  1.00  0.00     0.032 A 
HETATM   21  P1  UNL     1      21.321   0.602  52.524  1.00  0.00    -0.122 P 
HETATM   22  C15 UNL     1      22.020  -0.624  54.416  1.00  0.00     0.014 A 
HETATM   23  C17 UNL     1      21.140  -0.532  53.442  1.00  0.00    -0.007 A 
HETATM   24  C16 UNL     1      20.997  -1.512  54.257  1.00  0.00     0.010 A 
HETATM   25  H22 UNL     1      21.564   2.458  50.967  1.00  0.00     0.053 HD
ENDBRANCH  16  18
ENDBRANCH   1  16
TORSDOF 9
ENDMDL
MODEL 7
REMARK VINA RESULT:      -6.4      3.041      6.954
REMARK  9 active torsions:
REMARK  status: ('A' for Active; 'I' for Inactive)
REMARK    1  A    between atoms: C2_2  and  C3_3 
REMARK    2  A    between atoms: C3_3  and  C4_4 
REMARK    3  A    between atoms: C4_4  and  N1_5 
REMARK    4  A    between atoms: N1_5  and  C5_6 
REMARK    5  A    between atoms: N1_5  and  N2_15 
REMARK    6  A    between atoms: C5_6  and  C6_7 
REMARK    7  A    between atoms: C11_13  and  O1_14 
REMARK    8  A    between atoms: N2_15  and  C12_16 
REMARK    9  A    between atoms: C17_21  and  P1_22 
ROOT
HETATM    1  N1  UNL     1      24.243   2.769  50.754  1.00  0.00    -0.343 N 
ENDROOT
BRANCH   1   2
HETATM    2  C4  UNL     1      24.887   3.287  49.580  1.00  0.00     0.137 C 
BRANCH   2   3
HETATM    3  C3  UNL     1      24.802   4.798  49.468  1.00  0.00     0.021 C 
BRANCH   3   4
HETATM    4  C2  UNL     1      26.096   5.413  48.979  1.00  0.00    -0.003 C 
HETATM    5  C1  UNL     1      27.231   4.425  48.967  1.00  0.00     0.005 C 
ENDBRANCH   3   4
ENDBRANCH   2   3
ENDBRANCH   1   2
BRANCH   1   6
HETATM    6  C5  UNL     1      24.957   2.887  51.947  1.00  0.00     0.178 C 
BRANCH   6   7
HETATM    7  C6  UNL     1      25.457   1.585  52.533  1.00  0.00    -0.005 A 
HETATM    8  C7  UNL     1      24.704   0.488  52.882  1.00  0.00     0.012 A 
HETATM    9  C8  UNL     1      25.336  -0.622  53.416  1.00  0.00     0.002 A 
HETATM   10  C9  UNL     1      26.703  -0.604  53.586  1.00  0.00     0.022 A 
HETATM   11  C10 UNL     1      27.467   0.496  53.239  1.00  0.00     0.044 A 
HETATM   12 BR1  UNL     1      29.347   0.394  53.530  1.00  0.00    -0.048 Br
HETATM   13  C11 UNL     1      26.842   1.598  52.709  1.00  0.00     0.091 A 
BRANCH  13  14
HETATM   14  O1  UNL     1      27.675   2.680  52.378  1.00  0.00    -0.359 OA
HETATM   15  H15 UNL     1      27.450   3.616  52.705  1.00  0.00     0.217 HD
ENDBRANCH  13  14
ENDBRANCH   6   7
ENDBRANCH   1   6
BRANCH   1  16
HETATM   16  N2  UNL     1      22.876   2.869  50.773  1.00  0.00    -0.239 NA
HETATM   17  H16 UNL     1      22.495   3.731  50.356  1.00  0.00     0.146 HD
BRANCH  16  18
HETATM   18  C12 UNL     1      22.264   1.710  50.091  1.00  0.00     0.133 A 
HETATM   19  C13 UNL     1      21.560   0.829  51.239  1.00  0.00     0.012 A 
HETATM   20  C14 UNL     1      20.297   1.196  50.156  1.00  0.00     0.032 A 
HETATM   21  P1  UNL     1      20.896   0.663  51.252  1.00  0.00    -0.122 P 
HETATM   22  C15 UNL     1      18.774   0.785  50.226  1.00  0.00     0.014 A 
HETATM   23  C17 UNL     1      19.466   0.324  51.246  1.00  0.00    -0.007 A 
HETATM   24  C16 UNL     1      18.216   0.035  51.219  1.00  0.00     0.010 A 
HETATM   25  H22 UNL     1      23.273   1.189  51.324  1.00  0.00     0.053 HD
ENDBRANCH  16  18
ENDBRANCH   1  16
TORSDOF 9
ENDMDL
MODEL 8
REMARK VINA RESULT:      -6.3      2.805      4.200
REMARK  9 active torsions:
REMARK  status: ('A' for Active; 'I' for Inactive)
REMARK    1  A    between atoms: C2_2  and  C3_3 
REMARK    2  A    between atoms: C3_3  and  C4_4 
REMARK    3  A    between atoms: C4_4  and  N1_5 
REMARK    4  A    between atoms: N1_5  and  C5_6 
REMARK    5  A    between atoms: N1_5  and  N2_15 
REMARK    6  A    between atoms: C5_6  and  C6_7 
REMARK    7  A    between atoms: C11_13  and  O1_14 
REMARK    8  A    between atoms: N2_15  and  C12_16 
REMARK    9  A    between atoms: C17_21  and  P1_22 
ROOT
HETATM    1  N1  UNL     1      23.276   3.650  51.233  1.00  0.00    -0.343 N 
ENDROOT
BRANCH   1   2
HETATM    2  C4  UNL     1      21.983   3.387  50.669  1.00  0.00     0.137 C 
BRANCH   2   3
HETATM    3  C3  UNL     1      21.949   3.531  49.158  1.00  0.00     0.021 C 
BRANCH   3   4
HETATM    4  C2  UNL     1      22.398   2.270  48.449  1.00  0.00    -0.003 C 
HETATM    5  C1  UNL     1      21.567   1.074  48.827  1.00  0.00     0.005 C 
ENDBRANCH   3   4
ENDBRANCH   2   3
ENDBRANCH   1   2
BRANCH   1   6
HETATM    6  C5  UNL     1      23.642   4.994  51.328  1.00  0.00     0.178 C 
BRANCH   6   7
HETATM    7  C6  UNL     1      24.787   5.416  50.434  1.00  0.00    -0.005 A 
HETATM    8  C7  UNL     1      25.493   4.623  49.559  1.00  0.00     0.012 A 
HETATM    9  C8  UNL     1      26.523   5.184  48.822  1.00  0.00     0.002 A 
HETATM   10  C9  UNL     1      26.818   6.520  48.981  1.00  0.00     0.022 A 
HETATM   11  C10 UNL     1      26.113   7.323  49.860  1.00  0.00     0.044 A 
HETATM   12 BR1  UNL     1      26.625   9.154  49.989  1.00  0.00    -0.048 Br
HETATM   13  C11 UNL     1      25.091   6.769  50.591  1.00  0.00     0.091 A 
BRANCH  13  14
HETATM   14  O1  UNL     1      24.416   7.639  51.465  1.00  0.00    -0.359 OA
HETATM   15  H15 UNL     1      24.475   7.500  52.470  1.00  0.00     0.217 HD
ENDBRANCH  13  14
ENDBRANCH   6   7
ENDBRANCH   1   6
BRANCH   1  16
HETATM   16  N2  UNL     1      23.693   2.768  52.197  1.00  0.00    -0.239 NA
HETATM   17  H16 UNL     1      22.958   2.450  52.844  1.00  0.00     0.146 HD
BRANCH  16  18
HETATM   18  C12 UNL     1      24.315   1.581  51.575  1.00  0.00     0.133 A 
HETATM   19  C13 UNL     1      25.907   1.786  51.703  1.00  0.00     0.012 A 
HETATM   20  C14 UNL     1      25.608   0.304  52.488  1.00  0.00     0.032 A 
HETATM   21  P1  UNL     1      26.333   1.350  52.014  1.00  0.00    -0.122 P 
HETATM   22  C15 UNL     1      26.629  -0.675  53.191  1.00  0.00     0.014 A 
HETATM   23  C17 UNL     1      27.218   0.389  52.688  1.00  0.00    -0.007 A 
HETATM   24  C16 UNL     1      27.974  -0.464  53.277  1.00  0.00     0.010 A 
HETATM   25  H22 UNL     1      24.923   2.982  50.884  1.00  0.00     0.053 HD
ENDBRANCH  16  18
ENDBRANCH   1  16
TORSDOF 9
ENDMDL
MODEL 9
REMARK VINA RESULT:      -6.3      2.433      4.421
REMARK  9 active torsions:
REMARK  status: ('A' for Active; 'I' for Inactive)
REMARK    1  A    between atoms: C2_2  and  C3_3 
REMARK    2  A    between atoms: C3_3  and  C4_4 
REMARK    3  A    between atoms: C4_4  and  N1_5 
REMARK    4  A    between atoms: N1_5  and  C5_6 
REMARK    5  A    between atoms: N1_5  and  N2_15 
REMARK    6  A    between atoms: C5_6  and  C6_7 
REMARK    7  A    between atoms: C11_13  and  O1_14 
REMARK    8  A    between atoms: N2_15  and  C12_16 
REMARK    9  A    between atoms: C17_21  and  P1_22 
ROOT
HETATM    1  N1  UNL     1      24.537   2.233  51.775  1.00  0.00    -0.343 N 
ENDROOT
BRANCH   1   2
HETATM    2  C4  UNL     1      24.305   2.730  50.448  1.00  0.00     0.137 C 
BRANCH   2   3
HETATM    3  C3  UNL     1      25.192   3.907  50.087  1.00  0.00     0.021 C 
BRANCH   3   4
HETATM    4  C2  UNL     1      26.559   3.470  49.603  1.00  0.00    -0.003 C 
HETATM    5  C1  UNL     1      27.292   4.572  48.887  1.00  0.00     0.005 C 
ENDBRANCH   3   4
ENDBRANCH   2   3
ENDBRANCH   1   2
BRANCH   1   6
HETATM    6  C5  UNL     1      23.560   2.540  52.724  1.00  0.00     0.178 C 
BRANCH   6   7
HETATM    7  C6  UNL     1      22.224   1.862  52.519  1.00  0.00    -0.005 A 
HETATM    8  C7  UNL     1      21.944   0.521  52.653  1.00  0.00     0.012 A 
HETATM    9  C8  UNL     1      20.655   0.074  52.416  1.00  0.00     0.002 A 
HETATM   10  C9  UNL     1      19.683   0.979  52.050  1.00  0.00     0.022 A 
HETATM   11  C10 UNL     1      19.957   2.328  51.911  1.00  0.00     0.044 A 
HETATM   12 BR1  UNL     1      18.524   3.472  51.394  1.00  0.00    -0.048 Br
HETATM   13  C11 UNL     1      21.235   2.773  52.147  1.00  0.00     0.091 A 
BRANCH  13  14
HETATM   14  O1  UNL     1      21.446   4.154  51.988  1.00  0.00    -0.359 OA
HETATM   15  H15 UNL     1      21.078   4.636  51.173  1.00  0.00     0.217 HD
ENDBRANCH  13  14
ENDBRANCH   6   7
ENDBRANCH   1   6
BRANCH   1  16
HETATM   16  N2  UNL     1      25.199   1.036  51.852  1.00  0.00    -0.239 NA
HETATM   17  H16 UNL     1      25.887   0.868  51.104  1.00  0.00     0.146 HD
BRANCH  16  18
HETATM   18  C12 UNL     1      25.884   0.908  53.155  1.00  0.00     0.133 A 
HETATM   19  C13 UNL     1      26.602  -0.533  53.149  1.00  0.00     0.012 A 
HETATM   20  C14 UNL     1      27.872   0.570  53.422  1.00  0.00     0.032 A 
HETATM   21  P1  UNL     1      27.273  -0.635  53.238  1.00  0.00    -0.122 P 
HETATM   22  C15 UNL     1      29.411   0.285  53.629  1.00  0.00     0.014 A 
HETATM   23  C17 UNL     1      28.719  -0.817  53.437  1.00  0.00    -0.007 A 
HETATM   24  C16 UNL     1      29.981  -0.955  53.617  1.00  0.00     0.010 A 
HETATM   25  H22 UNL     1      24.873  -0.405  52.902  1.00  0.00     0.053 HD
ENDBRANCH  16  18
ENDBRANCH   1  16
TORSDOF 9
ENDMDL
