MODEL 1
REMARK VINA RESULT:      -9.1      0.000      0.000
REMARK  3 active torsions:
REMARK  status: ('A' for Active; 'I' for Inactive)
REMARK    1  A    between atoms: C5_5  and  C6_6 
REMARK    2  A    between atoms: C6_6  and  N1_7 
REMARK    3  A    between atoms: N1_7  and  C7_8 
ROOT
HETATM    1  C7  UNL     1      24.102   1.376  52.836  1.00  0.00     0.045 A 
HETATM    2  C8  UNL     1      22.887   0.733  52.915  1.00  0.00     0.049 A 
HETATM    3  C9  UNL     1      22.718  -0.446  53.639  1.00  0.00     0.122 A 
HETATM    4  N2  UNL     1      23.790  -0.988  54.296  1.00  0.00    -0.236 NA
HETATM    5  C10 UNL     1      24.986  -0.382  54.235  1.00  0.00     0.183 A 
HETATM    6  O1  UNL     1      26.151  -0.673  54.754  1.00  0.00    -0.290 OA
HETATM    7  C11 UNL     1      27.056   0.217  54.427  1.00  0.00     0.089 A 
HETATM    8  C12 UNL     1      28.390   0.318  54.736  1.00  0.00     0.038 A 
HETATM    9  C13 UNL     1      29.126   1.373  54.253  1.00  0.00     0.003 A 
HETATM   10  C14 UNL     1      28.487   2.326  53.451  1.00  0.00     0.001 A 
HETATM   11  C15 UNL     1      27.147   2.182  53.168  1.00  0.00     0.015 A 
HETATM   12  C16 UNL     1      26.410   1.139  53.641  1.00  0.00     0.015 A 
HETATM   13  C17 UNL     1      25.116   0.781  53.510  1.00  0.00     0.057 A 
ENDROOT
BRANCH   1  14
HETATM   14  N1  UNL     1      24.106   2.537  52.029  1.00  0.00    -0.385 N 
HETATM   15  H8  UNL     1      24.120   3.531  52.305  1.00  0.00     0.160 HD
BRANCH  14  16
HETATM   16  C6  UNL     1      24.082   2.591  50.587  1.00  0.00     0.158 C 
BRANCH  16  17
HETATM   17  C5  UNL     1      25.163   3.407  49.990  1.00  0.00    -0.041 A 
HETATM   18  C4  UNL     1      26.475   3.240  49.648  1.00  0.00     0.009 A 
HETATM   19  C3  UNL     1      27.239   4.220  49.069  1.00  0.00     0.007 A 
HETATM   20  C2  UNL     1      26.723   5.464  48.789  1.00  0.00    -0.062 A 
HETATM   21  C1  UNL     1      27.657   6.429  48.164  1.00  0.00     0.048 C 
HETATM   22  C19 UNL     1      25.387   5.692  49.117  1.00  0.00     0.007 A 
HETATM   23  C18 UNL     1      24.642   4.674  49.703  1.00  0.00     0.009 A 
ENDBRANCH  16  17
ENDBRANCH  14  16
ENDBRANCH   1  14
TORSDOF 3
ENDMDL
MODEL 2
REMARK VINA RESULT:      -9.0      1.317      3.585
REMARK  3 active torsions:
REMARK  status: ('A' for Active; 'I' for Inactive)
REMARK    1  A    between atoms: C5_5  and  C6_6 
REMARK    2  A    between atoms: C6_6  and  N1_7 
REMARK    3  A    between atoms: N1_7  and  C7_8 
ROOT
HETATM    1  C7  UNL     1      27.046   1.735  52.904  1.00  0.00     0.045 A 
HETATM    2  C8  UNL     1      28.362   1.668  53.304  1.00  0.00     0.049 A 
HETATM    3  C9  UNL     1      28.810   0.723  54.225  1.00  0.00     0.122 A 
HETATM    4  N2  UNL     1      27.918  -0.171  54.754  1.00  0.00    -0.236 NA
HETATM    5  C10 UNL     1      26.629  -0.128  54.382  1.00  0.00     0.183 A 
HETATM    6  O1  UNL     1      25.588  -0.843  54.720  1.00  0.00    -0.290 OA
HETATM    7  C11 UNL     1      24.508  -0.441  54.096  1.00  0.00     0.089 A 
HETATM    8  C12 UNL     1      23.210  -0.887  54.138  1.00  0.00     0.038 A 
HETATM    9  C13 UNL     1      22.251  -0.275  53.367  1.00  0.00     0.003 A 
HETATM   10  C14 UNL     1      22.631   0.798  52.551  1.00  0.00     0.001 A 
HETATM   11  C15 UNL     1      23.945   1.209  52.543  1.00  0.00     0.015 A 
HETATM   12  C16 UNL     1      24.901   0.610  53.304  1.00  0.00     0.015 A 
HETATM   13  C17 UNL     1      26.223   0.820  53.470  1.00  0.00     0.057 A 
ENDROOT
BRANCH   1  14
HETATM   14  N1  UNL     1      26.757   2.778  51.994  1.00  0.00    -0.385 N 
HETATM   15  H8  UNL     1      26.636   3.788  52.167  1.00  0.00     0.160 HD
BRANCH  14  16
HETATM   16  C6  UNL     1      26.552   2.655  50.571  1.00  0.00     0.158 C 
BRANCH  16  17
HETATM   17  C5  UNL     1      26.158   3.916  49.902  1.00  0.00    -0.041 A 
HETATM   18  C4  UNL     1      25.040   4.696  49.809  1.00  0.00     0.009 A 
HETATM   19  C3  UNL     1      24.989   5.866  49.097  1.00  0.00     0.007 A 
HETATM   20  C2  UNL     1      26.084   6.342  48.414  1.00  0.00    -0.062 A 
HETATM   21  C1  UNL     1      25.891   7.618  47.686  1.00  0.00     0.048 C 
HETATM   22  C19 UNL     1      27.254   5.586  48.473  1.00  0.00     0.007 A 
HETATM   23  C18 UNL     1      27.269   4.404  49.205  1.00  0.00     0.009 A 
ENDBRANCH  16  17
ENDBRANCH  14  16
ENDBRANCH   1  14
TORSDOF 3
ENDMDL
MODEL 3
REMARK VINA RESULT:      -8.7      2.323      4.527
REMARK  3 active torsions:
REMARK  status: ('A' for Active; 'I' for Inactive)
REMARK    1  A    between atoms: C5_5  and  C6_6 
REMARK    2  A    between atoms: C6_6  and  N1_7 
REMARK    3  A    between atoms: N1_7  and  C7_8 
ROOT
HETATM    1  C7  UNL     1      26.842   0.661  52.793  1.00  0.00     0.045 A 
HETATM    2  C8  UNL     1      28.172   0.867  53.082  1.00  0.00     0.049 A 
HETATM    3  C9  UNL     1      28.732   0.494  54.303  1.00  0.00     0.122 A 
HETATM    4  N2  UNL     1      27.940  -0.098  55.249  1.00  0.00    -0.236 NA
HETATM    5  C10 UNL     1      26.639  -0.310  54.993  1.00  0.00     0.183 A 
HETATM    6  O1  UNL     1      25.676  -0.844  55.699  1.00  0.00    -0.290 OA
HETATM    7  C11 UNL     1      24.544  -0.846  55.039  1.00  0.00     0.089 A 
HETATM    8  C12 UNL     1      23.291  -1.296  55.376  1.00  0.00     0.038 A 
HETATM    9  C13 UNL     1      22.256  -1.175  54.480  1.00  0.00     0.003 A 
HETATM   10  C14 UNL     1      22.513  -0.591  53.234  1.00  0.00     0.001 A 
HETATM   11  C15 UNL     1      23.786  -0.155  52.941  1.00  0.00     0.015 A 
HETATM   12  C16 UNL     1      24.817  -0.268  53.823  1.00  0.00     0.015 A 
HETATM   13  C17 UNL     1      26.121   0.072  53.776  1.00  0.00     0.057 A 
ENDROOT
BRANCH   1  14
HETATM   14  N1  UNL     1      26.432   1.136  51.525  1.00  0.00    -0.385 N 
HETATM   15  H8  UNL     1      26.312   0.623  50.638  1.00  0.00     0.160 HD
BRANCH  14  16
HETATM   16  C6  UNL     1      26.085   2.492  51.177  1.00  0.00     0.158 C 
BRANCH  16  17
HETATM   17  C5  UNL     1      24.706   2.883  51.548  1.00  0.00    -0.041 A 
HETATM   18  C4  UNL     1      24.090   3.523  52.586  1.00  0.00     0.009 A 
HETATM   19  C3  UNL     1      22.741   3.762  52.635  1.00  0.00     0.007 A 
HETATM   20  C2  UNL     1      21.900   3.363  51.622  1.00  0.00    -0.062 A 
HETATM   21  C1  UNL     1      20.466   3.684  51.803  1.00  0.00     0.048 C 
HETATM   22  C19 UNL     1      22.476   2.703  50.536  1.00  0.00     0.007 A 
HETATM   23  C18 UNL     1      23.848   2.479  50.520  1.00  0.00     0.009 A 
ENDBRANCH  16  17
ENDBRANCH  14  16
ENDBRANCH   1  14
TORSDOF 3
ENDMDL
MODEL 4
REMARK VINA RESULT:      -8.6      1.530      2.404
REMARK  3 active torsions:
REMARK  status: ('A' for Active; 'I' for Inactive)
REMARK    1  A    between atoms: C5_5  and  C6_6 
REMARK    2  A    between atoms: C6_6  and  N1_7 
REMARK    3  A    between atoms: N1_7  and  C7_8 
ROOT
HETATM    1  C7  UNL     1      22.442  -0.111  53.024  1.00  0.00     0.045 A 
HETATM    2  C8  UNL     1      21.364  -0.648  53.691  1.00  0.00     0.049 A 
HETATM    3  C9  UNL     1      21.509  -1.366  54.878  1.00  0.00     0.122 A 
HETATM    4  N2  UNL     1      22.761  -1.546  55.402  1.00  0.00    -0.236 NA
HETATM    5  C10 UNL     1      23.830  -1.033  54.771  1.00  0.00     0.183 A 
HETATM    6  O1  UNL     1      25.109  -1.053  55.042  1.00  0.00    -0.290 OA
HETATM    7  C11 UNL     1      25.800  -0.410  54.133  1.00  0.00     0.089 A 
HETATM    8  C12 UNL     1      27.147  -0.177  54.008  1.00  0.00     0.038 A 
HETATM    9  C13 UNL     1      27.621   0.541  52.935  1.00  0.00     0.003 A 
HETATM   10  C14 UNL     1      26.703   1.021  51.993  1.00  0.00     0.001 A 
HETATM   11  C15 UNL     1      25.362   0.761  52.162  1.00  0.00     0.015 A 
HETATM   12  C16 UNL     1      24.884   0.049  53.219  1.00  0.00     0.015 A 
HETATM   13  C17 UNL     1      23.648  -0.330  53.601  1.00  0.00     0.057 A 
ENDROOT
BRANCH   1  14
HETATM   14  N1  UNL     1      22.120   0.552  51.817  1.00  0.00    -0.385 N 
HETATM   15  H8  UNL     1      22.153   0.205  50.846  1.00  0.00     0.160 HD
BRANCH  14  16
HETATM   16  C6  UNL     1      21.663   1.913  51.670  1.00  0.00     0.158 C 
BRANCH  16  17
HETATM   17  C5  UNL     1      22.710   2.862  51.229  1.00  0.00    -0.041 A 
HETATM   18  C4  UNL     1      23.378   3.934  51.751  1.00  0.00     0.009 A 
HETATM   19  C3  UNL     1      24.349   4.626  51.075  1.00  0.00     0.007 A 
HETATM   20  C2  UNL     1      24.722   4.280  49.797  1.00  0.00    -0.062 A 
HETATM   21  C1  UNL     1      25.783   5.111  49.183  1.00  0.00     0.048 C 
HETATM   22  C19 UNL     1      24.072   3.193  49.212  1.00  0.00     0.007 A 
HETATM   23  C18 UNL     1      23.093   2.514  49.929  1.00  0.00     0.009 A 
ENDBRANCH  16  17
ENDBRANCH  14  16
ENDBRANCH   1  14
TORSDOF 3
ENDMDL
MODEL 5
REMARK VINA RESULT:      -8.4      2.972      5.734
REMARK  3 active torsions:
REMARK  status: ('A' for Active; 'I' for Inactive)
REMARK    1  A    between atoms: C5_5  and  C6_6 
REMARK    2  A    between atoms: C6_6  and  N1_7 
REMARK    3  A    between atoms: N1_7  and  C7_8 
ROOT
HETATM    1  C7  UNL     1      22.992   3.092  52.294  1.00  0.00     0.045 A 
HETATM    2  C8  UNL     1      22.609   4.292  51.737  1.00  0.00     0.049 A 
HETATM    3  C9  UNL     1      21.273   4.597  51.480  1.00  0.00     0.122 A 
HETATM    4  N2  UNL     1      20.305   3.680  51.790  1.00  0.00    -0.236 NA
HETATM    5  C10 UNL     1      20.651   2.502  52.333  1.00  0.00     0.183 A 
HETATM    6  O1  UNL     1      19.950   1.467  52.718  1.00  0.00    -0.290 OA
HETATM    7  C11 UNL     1      20.718   0.521  53.200  1.00  0.00     0.089 A 
HETATM    8  C12 UNL     1      20.427  -0.719  53.712  1.00  0.00     0.038 A 
HETATM    9  C13 UNL     1      21.442  -1.531  54.158  1.00  0.00     0.003 A 
HETATM   10  C14 UNL     1      22.759  -1.063  54.078  1.00  0.00     0.001 A 
HETATM   11  C15 UNL     1      23.002   0.188  53.557  1.00  0.00     0.015 A 
HETATM   12  C16 UNL     1      22.003   0.998  53.111  1.00  0.00     0.015 A 
HETATM   13  C17 UNL     1      21.981   2.235  52.572  1.00  0.00     0.057 A 
ENDROOT
BRANCH   1  14
HETATM   14  N1  UNL     1      24.388   2.931  52.449  1.00  0.00    -0.385 N 
HETATM   15  H8  UNL     1      25.002   3.227  53.223  1.00  0.00     0.160 HD
BRANCH  14  16
HETATM   16  C6  UNL     1      25.297   2.302  51.523  1.00  0.00     0.158 C 
BRANCH  16  17
HETATM   17  C5  UNL     1      26.473   1.666  52.159  1.00  0.00    -0.041 A 
HETATM   18  C4  UNL     1      27.617   2.073  52.786  1.00  0.00     0.009 A 
HETATM   19  C3  UNL     1      28.544   1.209  53.309  1.00  0.00     0.007 A 
HETATM   20  C2  UNL     1      28.380  -0.155  53.235  1.00  0.00    -0.062 A 
HETATM   21  C1  UNL     1      29.456  -0.972  53.840  1.00  0.00     0.048 C 
HETATM   22  C19 UNL     1      27.229  -0.627  52.604  1.00  0.00     0.007 A 
HETATM   23  C18 UNL     1      26.310   0.279  52.086  1.00  0.00     0.009 A 
ENDBRANCH  16  17
ENDBRANCH  14  16
ENDBRANCH   1  14
TORSDOF 3
ENDMDL
MODEL 6
REMARK VINA RESULT:      -8.2      1.951      4.208
REMARK  3 active torsions:
REMARK  status: ('A' for Active; 'I' for Inactive)
REMARK    1  A    between atoms: C5_5  and  C6_6 
REMARK    2  A    between atoms: C6_6  and  N1_7 
REMARK    3  A    between atoms: N1_7  and  C7_8 
ROOT
HETATM    1  C7  UNL     1      25.912   0.916  52.552  1.00  0.00     0.045 A 
HETATM    2  C8  UNL     1      27.278   1.038  52.678  1.00  0.00     0.049 A 
HETATM    3  C9  UNL     1      27.985   0.425  53.712  1.00  0.00     0.122 A 
HETATM    4  N2  UNL     1      27.305  -0.324  54.635  1.00  0.00    -0.236 NA
HETATM    5  C10 UNL     1      25.973  -0.458  54.536  1.00  0.00     0.183 A 
HETATM    6  O1  UNL     1      25.094  -1.100  55.261  1.00  0.00    -0.290 OA
HETATM    7  C11 UNL     1      23.882  -0.953  54.784  1.00  0.00     0.089 A 
HETATM    8  C12 UNL     1      22.670  -1.436  55.210  1.00  0.00     0.038 A 
HETATM    9  C13 UNL     1      21.526  -1.126  54.513  1.00  0.00     0.003 A 
HETATM   10  C14 UNL     1      21.634  -0.317  53.375  1.00  0.00     0.001 A 
HETATM   11  C15 UNL     1      22.872   0.144  52.988  1.00  0.00     0.015 A 
HETATM   12  C16 UNL     1      24.009  -0.157  53.673  1.00  0.00     0.015 A 
HETATM   13  C17 UNL     1      25.309   0.162  53.502  1.00  0.00     0.057 A 
ENDROOT
BRANCH   1  14
HETATM   14  N1  UNL     1      25.352   1.634  51.470  1.00  0.00    -0.385 N 
HETATM   15  H8  UNL     1      25.211   1.344  50.490  1.00  0.00     0.160 HD
BRANCH  14  16
HETATM   16  C6  UNL     1      24.840   2.983  51.496  1.00  0.00     0.158 C 
BRANCH  16  17
HETATM   17  C5  UNL     1      24.100   3.378  50.277  1.00  0.00    -0.041 A 
HETATM   18  C4  UNL     1      24.061   4.449  49.430  1.00  0.00     0.009 A 
HETATM   19  C3  UNL     1      23.248   4.515  48.327  1.00  0.00     0.007 A 
HETATM   20  C2  UNL     1      22.400   3.484  47.995  1.00  0.00    -0.062 A 
HETATM   21  C1  UNL     1      21.578   3.686  46.780  1.00  0.00     0.048 C 
HETATM   22  C19 UNL     1      22.398   2.364  48.826  1.00  0.00     0.007 A 
HETATM   23  C18 UNL     1      23.236   2.332  49.935  1.00  0.00     0.009 A 
ENDBRANCH  16  17
ENDBRANCH  14  16
ENDBRANCH   1  14
TORSDOF 3
ENDMDL
MODEL 7
REMARK VINA RESULT:      -8.1      2.589      6.312
REMARK  3 active torsions:
REMARK  status: ('A' for Active; 'I' for Inactive)
REMARK    1  A    between atoms: C5_5  and  C6_6 
REMARK    2  A    between atoms: C6_6  and  N1_7 
REMARK    3  A    between atoms: N1_7  and  C7_8 
ROOT
HETATM    1  C7  UNL     1      24.800   0.527  53.032  1.00  0.00     0.045 A 
HETATM    2  C8  UNL     1      25.410  -0.200  54.030  1.00  0.00     0.049 A 
HETATM    3  C9  UNL     1      26.773  -0.087  54.302  1.00  0.00     0.122 A 
HETATM    4  N2  UNL     1      27.535   0.773  53.558  1.00  0.00    -0.236 NA
HETATM    5  C10 UNL     1      26.965   1.494  52.579  1.00  0.00     0.183 A 
HETATM    6  O1  UNL     1      27.444   2.369  51.734  1.00  0.00    -0.290 OA
HETATM    7  C11 UNL     1      26.508   2.830  50.940  1.00  0.00     0.089 A 
HETATM    8  C12 UNL     1      26.547   3.747  49.919  1.00  0.00     0.038 A 
HETATM    9  C13 UNL     1      25.397   4.056  49.233  1.00  0.00     0.003 A 
HETATM   10  C14 UNL     1      24.205   3.420  49.601  1.00  0.00     0.001 A 
HETATM   11  C15 UNL     1      24.216   2.508  50.632  1.00  0.00     0.015 A 
HETATM   12  C16 UNL     1      25.350   2.194  51.316  1.00  0.00     0.015 A 
HETATM   13  C17 UNL     1      25.617   1.355  52.338  1.00  0.00     0.057 A 
ENDROOT
BRANCH   1  14
HETATM   14  N1  UNL     1      23.421   0.261  52.866  1.00  0.00    -0.385 N 
HETATM   15  H8  UNL     1      22.787   0.532  52.099  1.00  0.00     0.160 HD
BRANCH  14  16
HETATM   16  C6  UNL     1      22.564  -0.470  53.767  1.00  0.00     0.158 C 
BRANCH  16  17
HETATM   17  C5  UNL     1      21.147  -0.535  53.343  1.00  0.00    -0.041 A 
HETATM   18  C4  UNL     1      19.982  -1.069  53.815  1.00  0.00     0.009 A 
HETATM   19  C3  UNL     1      18.775  -0.939  53.178  1.00  0.00     0.007 A 
HETATM   20  C2  UNL     1      18.656  -0.248  51.994  1.00  0.00    -0.062 A 
HETATM   21  C1  UNL     1      17.295  -0.185  51.413  1.00  0.00     0.048 C 
HETATM   22  C19 UNL     1      19.815   0.319  51.465  1.00  0.00     0.007 A 
HETATM   23  C18 UNL     1      21.021   0.167  52.139  1.00  0.00     0.009 A 
ENDBRANCH  16  17
ENDBRANCH  14  16
ENDBRANCH   1  14
TORSDOF 3
ENDMDL
MODEL 8
REMARK VINA RESULT:      -8.1      2.979      4.282
REMARK  3 active torsions:
REMARK  status: ('A' for Active; 'I' for Inactive)
REMARK    1  A    between atoms: C5_5  and  C6_6 
REMARK    2  A    between atoms: C6_6  and  N1_7 
REMARK    3  A    between atoms: N1_7  and  C7_8 
ROOT
HETATM    1  C7  UNL     1      22.452   3.107  51.701  1.00  0.00     0.045 A 
HETATM    2  C8  UNL     1      21.660   4.109  51.186  1.00  0.00     0.049 A 
HETATM    3  C9  UNL     1      20.290   4.174  51.435  1.00  0.00     0.122 A 
HETATM    4  N2  UNL     1      19.706   3.214  52.217  1.00  0.00    -0.236 NA
HETATM    5  C10 UNL     1      20.455   2.225  52.731  1.00  0.00     0.183 A 
HETATM    6  O1  UNL     1      20.164   1.202  53.492  1.00  0.00    -0.290 OA
HETATM    7  C11 UNL     1      21.228   0.484  53.755  1.00  0.00     0.089 A 
HETATM    8  C12 UNL     1      21.398  -0.658  54.498  1.00  0.00     0.038 A 
HETATM    9  C13 UNL     1      22.647  -1.220  54.614  1.00  0.00     0.003 A 
HETATM   10  C14 UNL     1      23.723  -0.603  53.964  1.00  0.00     0.001 A 
HETATM   11  C15 UNL     1      23.503   0.541  53.230  1.00  0.00     0.015 A 
HETATM   12  C16 UNL     1      22.269   1.103  53.108  1.00  0.00     0.015 A 
HETATM   13  C17 UNL     1      21.805   2.193  52.463  1.00  0.00     0.057 A 
ENDROOT
BRANCH   1  14
HETATM   14  N1  UNL     1      23.811   3.171  51.317  1.00  0.00    -0.385 N 
HETATM   15  H8  UNL     1      24.647   3.378  51.886  1.00  0.00     0.160 HD
BRANCH  14  16
HETATM   16  C6  UNL     1      24.350   2.961  49.995  1.00  0.00     0.158 C 
BRANCH  16  17
HETATM   17  C5  UNL     1      25.123   4.105  49.463  1.00  0.00    -0.041 A 
HETATM   18  C4  UNL     1      24.874   5.394  49.082  1.00  0.00     0.009 A 
HETATM   19  C3  UNL     1      25.844   6.251  48.630  1.00  0.00     0.007 A 
HETATM   20  C2  UNL     1      27.159   5.862  48.527  1.00  0.00    -0.062 A 
HETATM   21  C1  UNL     1      28.102   6.887  48.024  1.00  0.00     0.048 C 
HETATM   22  C19 UNL     1      27.472   4.556  48.903  1.00  0.00     0.007 A 
HETATM   23  C18 UNL     1      26.462   3.714  49.357  1.00  0.00     0.009 A 
ENDBRANCH  16  17
ENDBRANCH  14  16
ENDBRANCH   1  14
TORSDOF 3
ENDMDL
MODEL 9
REMARK VINA RESULT:      -8.1      1.564      2.146
REMARK  3 active torsions:
REMARK  status: ('A' for Active; 'I' for Inactive)
REMARK    1  A    between atoms: C5_5  and  C6_6 
REMARK    2  A    between atoms: C6_6  and  N1_7 
REMARK    3  A    between atoms: N1_7  and  C7_8 
ROOT
HETATM    1  C7  UNL     1      22.301   2.511  52.315  1.00  0.00     0.045 A 
HETATM    2  C8  UNL     1      20.963   2.276  52.088  1.00  0.00     0.049 A 
HETATM    3  C9  UNL     1      20.368   1.046  52.367  1.00  0.00     0.122 A 
HETATM    4  N2  UNL     1      21.132   0.035  52.884  1.00  0.00    -0.236 NA
HETATM    5  C10 UNL     1      22.440   0.238  53.116  1.00  0.00     0.183 A 
HETATM    6  O1  UNL     1      23.381  -0.534  53.593  1.00  0.00    -0.290 OA
HETATM    7  C11 UNL     1      24.532   0.092  53.646  1.00  0.00     0.089 A 
HETATM    8  C12 UNL     1      25.773  -0.314  54.068  1.00  0.00     0.038 A 
HETATM    9  C13 UNL     1      26.833   0.559  54.017  1.00  0.00     0.003 A 
HETATM   10  C14 UNL     1      26.613   1.853  53.530  1.00  0.00     0.001 A 
HETATM   11  C15 UNL     1      25.350   2.215  53.118  1.00  0.00     0.015 A 
HETATM   12  C16 UNL     1      24.294   1.356  53.163  1.00  0.00     0.015 A 
HETATM   13  C17 UNL     1      22.993   1.465  52.827  1.00  0.00     0.057 A 
ENDROOT
BRANCH   1  14
HETATM   14  N1  UNL     1      22.747   3.799  51.939  1.00  0.00    -0.385 N 
HETATM   15  H8  UNL     1      23.031   4.595  52.530  1.00  0.00     0.160 HD
BRANCH  14  16
HETATM   16  C6  UNL     1      22.903   4.306  50.598  1.00  0.00     0.158 C 
BRANCH  16  17
HETATM   17  C5  UNL     1      24.296   4.291  50.098  1.00  0.00    -0.041 A 
HETATM   18  C4  UNL     1      25.293   3.371  49.932  1.00  0.00     0.009 A 
HETATM   19  C3  UNL     1      26.521   3.671  49.403  1.00  0.00     0.007 A 
HETATM   20  C2  UNL     1      26.839   4.947  48.996  1.00  0.00    -0.062 A 
HETATM   21  C1  UNL     1      28.200   5.132  48.444  1.00  0.00     0.048 C 
HETATM   22  C19 UNL     1      25.858   5.928  49.143  1.00  0.00     0.007 A 
HETATM   23  C18 UNL     1      24.623   5.586  49.683  1.00  0.00     0.009 A 
ENDBRANCH  16  17
ENDBRANCH  14  16
ENDBRANCH   1  14
TORSDOF 3
ENDMDL
