MODEL 1
REMARK VINA RESULT:      -8.2      0.000      0.000
REMARK  7 active torsions:
REMARK  status: ('A' for Active; 'I' for Inactive)
REMARK    1  A    between atoms: C3_3  and  C4_4 
REMARK    2  A    between atoms: C4_4  and  C5_5 
REMARK    3  A    between atoms: C6_6  and  C7_7 
REMARK    4  A    between atoms: C8_8  and  C9_9 
REMARK    5  A    between atoms: C9_9  and  C10_10 
REMARK    6  A    between atoms: C11_11  and  C12_12 
REMARK    7  A    between atoms: C13_13  and  O1_14 
ROOT
HETATM    1  C7  UNL     1      24.821   0.813  52.951  1.00  0.00     0.006 A 
HETATM    2  C8  UNL     1      26.125   1.144  53.241  1.00  0.00     0.070 A 
HETATM    3  O2  UNL     1      26.377   2.182  52.515  1.00  0.00    -0.295 OA
HETATM    4  C14 UNL     1      25.375   2.556  51.786  1.00  0.00     0.179 A 
HETATM    5  C15 UNL     1      24.297   1.688  52.025  1.00  0.00     0.025 A 
HETATM    6  C16 UNL     1      22.956   1.854  51.349  1.00  0.00     0.163 C 
HETATM    7  N1  UNL     1      23.269   2.367  50.004  1.00  0.00    -0.392 N 
HETATM    8  C17 UNL     1      22.986   3.158  48.844  1.00  0.00     0.117 C 
HETATM    9  C18 UNL     1      23.489   4.380  48.734  1.00  0.00     0.103 C 
HETATM   10  N2  UNL     1      24.112   4.879  49.750  1.00  0.00    -0.238 NA
HETATM   11  C19 UNL     1      23.868   4.199  50.993  1.00  0.00     0.236 C 
HETATM   12  N3  UNL     1      24.960   3.534  50.817  1.00  0.00    -0.217 NA
HETATM   13  H17 UNL     1      24.133   1.999  49.495  1.00  0.00     0.159 HD
ENDROOT
BRANCH   2  14
HETATM   14  C9  UNL     1      27.048   0.463  54.182  1.00  0.00     0.093 C 
BRANCH  14  15
HETATM   15  C10 UNL     1      28.409   1.010  54.046  1.00  0.00    -0.011 C 
HETATM   16  C11 UNL     1      29.447   0.270  53.703  1.00  0.00     0.063 C 
BRANCH  16  17
HETATM   17  C12 UNL     1      29.144  -1.131  53.469  1.00  0.00    -0.049 C 
HETATM   18  C13 UNL     1      28.886  -2.301  53.261  1.00  0.00     0.056 C 
BRANCH  18  19
HETATM   19  O1  UNL     1      28.593  -3.620  53.047  1.00  0.00    -0.314 OA
HETATM   20  H14 UNL     1      28.817  -4.077  52.159  1.00  0.00     0.230 HD
ENDBRANCH  18  19
ENDBRANCH  16  17
ENDBRANCH  14  15
ENDBRANCH   2  14
BRANCH   1  21
HETATM   21  C6  UNL     1      24.001  -0.268  53.467  1.00  0.00     0.011 C 
HETATM   22  C5  UNL     1      22.969  -0.381  54.282  1.00  0.00    -0.022 C 
BRANCH  22  23
HETATM   23  C4  UNL     1      22.187  -1.561  54.754  1.00  0.00     0.054 C 
BRANCH  23  24
HETATM   24  C3  UNL     1      20.797  -1.528  54.197  1.00  0.00    -0.027 C 
HETATM   25  C2  UNL     1      20.218  -0.642  53.388  1.00  0.00    -0.035 C 
HETATM   26  C1  UNL     1      18.940  -0.344  52.699  1.00  0.00     0.036 C 
ENDBRANCH  23  24
ENDBRANCH  22  23
ENDBRANCH   1  21
TORSDOF 7
ENDMDL
MODEL 2
REMARK VINA RESULT:      -7.9      2.584      5.733
REMARK  7 active torsions:
REMARK  status: ('A' for Active; 'I' for Inactive)
REMARK    1  A    between atoms: C3_3  and  C4_4 
REMARK    2  A    between atoms: C4_4  and  C5_5 
REMARK    3  A    between atoms: C6_6  and  C7_7 
REMARK    4  A    between atoms: C8_8  and  C9_9 
REMARK    5  A    between atoms: C9_9  and  C10_10 
REMARK    6  A    between atoms: C11_11  and  C12_12 
REMARK    7  A    between atoms: C13_13  and  O1_14 
ROOT
HETATM    1  C7  UNL     1      25.104   1.643  51.755  1.00  0.00     0.006 A 
HETATM    2  C8  UNL     1      26.198   1.200  52.463  1.00  0.00     0.070 A 
HETATM    3  O2  UNL     1      25.721   0.382  53.339  1.00  0.00    -0.295 OA
HETATM    4  C14 UNL     1      24.435   0.249  53.275  1.00  0.00     0.179 A 
HETATM    5  C15 UNL     1      23.952   1.063  52.237  1.00  0.00     0.025 A 
HETATM    6  C16 UNL     1      22.486   1.128  51.873  1.00  0.00     0.163 C 
HETATM    7  N1  UNL     1      21.770   0.977  53.151  1.00  0.00    -0.392 N 
HETATM    8  C17 UNL     1      20.668   0.529  53.949  1.00  0.00     0.117 C 
HETATM    9  C18 UNL     1      20.731  -0.639  54.574  1.00  0.00     0.103 C 
HETATM   10  N2  UNL     1      21.740  -1.410  54.331  1.00  0.00    -0.238 NA
HETATM   11  C19 UNL     1      22.476  -1.072  53.145  1.00  0.00     0.236 C 
HETATM   12  N3  UNL     1      23.317  -0.425  53.879  1.00  0.00    -0.217 NA
HETATM   13  H17 UNL     1      22.170   1.433  54.030  1.00  0.00     0.159 HD
ENDROOT
BRANCH   2  14
HETATM   14  C9  UNL     1      27.620   1.576  52.267  1.00  0.00     0.093 C 
BRANCH  14  15
HETATM   15  C10 UNL     1      28.166   2.164  53.503  1.00  0.00    -0.011 C 
HETATM   16  C11 UNL     1      28.868   1.467  54.377  1.00  0.00     0.063 C 
BRANCH  16  17
HETATM   17  C12 UNL     1      29.061   0.071  54.027  1.00  0.00    -0.049 C 
HETATM   18  C13 UNL     1      29.230  -1.100  53.746  1.00  0.00     0.056 C 
BRANCH  18  19
HETATM   19  O1  UNL     1      29.418  -2.412  53.409  1.00  0.00    -0.314 OA
HETATM   20  H14 UNL     1      30.357  -2.799  53.279  1.00  0.00     0.230 HD
ENDBRANCH  18  19
ENDBRANCH  16  17
ENDBRANCH  14  15
ENDBRANCH   2  14
BRANCH   1  21
HETATM   21  C6  UNL     1      25.031   2.579  50.648  1.00  0.00     0.011 C 
HETATM   22  C5  UNL     1      25.303   3.856  50.455  1.00  0.00    -0.022 C 
BRANCH  22  23
HETATM   23  C4  UNL     1      25.190   4.736  49.255  1.00  0.00     0.054 C 
BRANCH  23  24
HETATM   24  C3  UNL     1      26.466   5.491  49.034  1.00  0.00    -0.027 C 
HETATM   25  C2  UNL     1      27.639   5.072  48.564  1.00  0.00    -0.035 C 
HETATM   26  C1  UNL     1      29.009   5.540  48.246  1.00  0.00     0.036 C 
ENDBRANCH  23  24
ENDBRANCH  22  23
ENDBRANCH   1  21
TORSDOF 7
ENDMDL
MODEL 3
REMARK VINA RESULT:      -7.9      2.871      6.190
REMARK  7 active torsions:
REMARK  status: ('A' for Active; 'I' for Inactive)
REMARK    1  A    between atoms: C3_3  and  C4_4 
REMARK    2  A    between atoms: C4_4  and  C5_5 
REMARK    3  A    between atoms: C6_6  and  C7_7 
REMARK    4  A    between atoms: C8_8  and  C9_9 
REMARK    5  A    between atoms: C9_9  and  C10_10 
REMARK    6  A    between atoms: C11_11  and  C12_12 
REMARK    7  A    between atoms: C13_13  and  O1_14 
ROOT
HETATM    1  C7  UNL     1      23.654   0.722  52.619  1.00  0.00     0.006 A 
HETATM    2  C8  UNL     1      23.775   1.545  51.523  1.00  0.00     0.070 A 
HETATM    3  O2  UNL     1      25.046   1.677  51.342  1.00  0.00    -0.295 OA
HETATM    4  C14 UNL     1      25.759   1.027  52.205  1.00  0.00     0.179 A 
HETATM    5  C15 UNL     1      24.896   0.363  53.092  1.00  0.00     0.025 A 
HETATM    6  C16 UNL     1      25.403  -0.512  54.215  1.00  0.00     0.163 C 
HETATM    7  N1  UNL     1      26.649   0.132  54.666  1.00  0.00    -0.392 N 
HETATM    8  C17 UNL     1      27.979   0.102  55.196  1.00  0.00     0.117 C 
HETATM    9  C18 UNL     1      29.021   0.107  54.376  1.00  0.00     0.103 C 
HETATM   10  N2  UNL     1      28.803  -0.004  53.107  1.00  0.00    -0.238 NA
HETATM   11  C19 UNL     1      27.491  -0.484  52.768  1.00  0.00     0.236 C 
HETATM   12  N3  UNL     1      27.114   0.737  52.592  1.00  0.00    -0.217 NA
HETATM   13  H17 UNL     1      26.704   1.198  54.691  1.00  0.00     0.159 HD
ENDROOT
BRANCH   2  14
HETATM   14  C9  UNL     1      22.687   2.154  50.719  1.00  0.00     0.093 C 
BRANCH  14  15
HETATM   15  C10 UNL     1      22.017   1.123  49.907  1.00  0.00    -0.011 C 
HETATM   16  C11 UNL     1      20.706   0.967  49.887  1.00  0.00     0.063 C 
BRANCH  16  17
HETATM   17  C12 UNL     1      19.971   1.895  50.730  1.00  0.00    -0.049 C 
HETATM   18  C13 UNL     1      19.346   2.670  51.427  1.00  0.00     0.056 C 
BRANCH  18  19
HETATM   19  O1  UNL     1      18.660   3.550  52.218  1.00  0.00    -0.314 OA
HETATM   20  H14 UNL     1      17.703   3.355  52.525  1.00  0.00     0.230 HD
ENDBRANCH  18  19
ENDBRANCH  16  17
ENDBRANCH  14  15
ENDBRANCH   2  14
BRANCH   1  21
HETATM   21  C6  UNL     1      22.460   0.229  53.283  1.00  0.00     0.011 C 
HETATM   22  C5  UNL     1      21.779  -0.901  53.313  1.00  0.00    -0.022 C 
BRANCH  22  23
HETATM   23  C4  UNL     1      20.542  -1.308  54.042  1.00  0.00     0.054 C 
BRANCH  23  24
HETATM   24  C3  UNL     1      19.328  -0.728  53.384  1.00  0.00    -0.027 C 
HETATM   25  C2  UNL     1      18.116  -1.251  53.206  1.00  0.00    -0.035 C 
HETATM   26  C1  UNL     1      16.783  -0.953  52.630  1.00  0.00     0.036 C 
ENDBRANCH  23  24
ENDBRANCH  22  23
ENDBRANCH   1  21
TORSDOF 7
ENDMDL
MODEL 4
REMARK VINA RESULT:      -7.8      3.297      6.659
REMARK  7 active torsions:
REMARK  status: ('A' for Active; 'I' for Inactive)
REMARK    1  A    between atoms: C3_3  and  C4_4 
REMARK    2  A    between atoms: C4_4  and  C5_5 
REMARK    3  A    between atoms: C6_6  and  C7_7 
REMARK    4  A    between atoms: C8_8  and  C9_9 
REMARK    5  A    between atoms: C9_9  and  C10_10 
REMARK    6  A    between atoms: C11_11  and  C12_12 
REMARK    7  A    between atoms: C13_13  and  O1_14 
ROOT
HETATM    1  C7  UNL     1      23.824   1.258  53.084  1.00  0.00     0.006 A 
HETATM    2  C8  UNL     1      23.196   0.038  53.194  1.00  0.00     0.070 A 
HETATM    3  O2  UNL     1      24.120  -0.781  53.571  1.00  0.00    -0.295 OA
HETATM    4  C14 UNL     1      25.278  -0.220  53.715  1.00  0.00     0.179 A 
HETATM    5  C15 UNL     1      25.158   1.144  53.408  1.00  0.00     0.025 A 
HETATM    6  C16 UNL     1      26.323   2.102  53.497  1.00  0.00     0.163 C 
HETATM    7  N1  UNL     1      27.498   1.308  53.100  1.00  0.00    -0.392 N 
HETATM    8  C17 UNL     1      28.887   0.965  53.171  1.00  0.00     0.117 C 
HETATM    9  C18 UNL     1      29.289  -0.013  53.972  1.00  0.00     0.103 C 
HETATM   10  N2  UNL     1      28.426  -0.540  54.777  1.00  0.00    -0.238 NA
HETATM   11  C19 UNL     1      27.233   0.240  54.966  1.00  0.00     0.236 C 
HETATM   12  N3  UNL     1      26.646  -0.483  54.073  1.00  0.00    -0.217 NA
HETATM   13  H17 UNL     1      27.400   0.586  52.319  1.00  0.00     0.159 HD
ENDROOT
BRANCH   2  14
HETATM   14  C9  UNL     1      21.769  -0.277  52.937  1.00  0.00     0.093 C 
BRANCH  14  15
HETATM   15  C10 UNL     1      21.369   0.221  51.609  1.00  0.00    -0.011 C 
HETATM   16  C11 UNL     1      20.114   0.244  51.202  1.00  0.00     0.063 C 
BRANCH  16  17
HETATM   17  C12 UNL     1      19.152  -0.260  52.166  1.00  0.00    -0.049 C 
HETATM   18  C13 UNL     1      18.338  -0.682  52.964  1.00  0.00     0.056 C 
BRANCH  18  19
HETATM   19  O1  UNL     1      17.433  -1.150  53.877  1.00  0.00    -0.314 OA
HETATM   20  H14 UNL     1      17.113  -0.566  54.655  1.00  0.00     0.230 HD
ENDBRANCH  18  19
ENDBRANCH  16  17
ENDBRANCH  14  15
ENDBRANCH   2  14
BRANCH   1  21
HETATM   21  C6  UNL     1      23.283   2.548  52.695  1.00  0.00     0.011 C 
HETATM   22  C5  UNL     1      23.268   3.290  51.603  1.00  0.00    -0.022 C 
BRANCH  22  23
HETATM   23  C4  UNL     1      22.672   4.625  51.305  1.00  0.00     0.054 C 
BRANCH  23  24
HETATM   24  C3  UNL     1      21.222   4.650  51.681  1.00  0.00    -0.027 C 
HETATM   25  C2  UNL     1      20.214   3.888  51.261  1.00  0.00    -0.035 C 
HETATM   26  C1  UNL     1      18.756   3.674  51.428  1.00  0.00     0.036 C 
ENDBRANCH  23  24
ENDBRANCH  22  23
ENDBRANCH   1  21
TORSDOF 7
ENDMDL
MODEL 5
REMARK VINA RESULT:      -7.8      3.100      7.200
REMARK  7 active torsions:
REMARK  status: ('A' for Active; 'I' for Inactive)
REMARK    1  A    between atoms: C3_3  and  C4_4 
REMARK    2  A    between atoms: C4_4  and  C5_5 
REMARK    3  A    between atoms: C6_6  and  C7_7 
REMARK    4  A    between atoms: C8_8  and  C9_9 
REMARK    5  A    between atoms: C9_9  and  C10_10 
REMARK    6  A    between atoms: C11_11  and  C12_12 
REMARK    7  A    between atoms: C13_13  and  O1_14 
ROOT
HETATM    1  C7  UNL     1      24.446   1.893  51.726  1.00  0.00     0.006 A 
HETATM    2  C8  UNL     1      23.480   0.933  51.927  1.00  0.00     0.070 A 
HETATM    3  O2  UNL     1      24.014   0.085  52.739  1.00  0.00    -0.295 OA
HETATM    4  C14 UNL     1      25.223   0.393  53.084  1.00  0.00     0.179 A 
HETATM    5  C15 UNL     1      25.580   1.592  52.446  1.00  0.00     0.025 A 
HETATM    6  C16 UNL     1      26.926   2.250  52.650  1.00  0.00     0.163 C 
HETATM    7  N1  UNL     1      27.873   1.134  52.813  1.00  0.00    -0.392 N 
HETATM    8  C17 UNL     1      29.048   0.531  53.369  1.00  0.00     0.117 C 
HETATM    9  C18 UNL     1      28.957  -0.222  54.457  1.00  0.00     0.103 C 
HETATM   10  N2  UNL     1      27.820  -0.277  55.071  1.00  0.00    -0.238 NA
HETATM   11  C19 UNL     1      26.899   0.767  54.713  1.00  0.00     0.236 C 
HETATM   12  N3  UNL     1      26.338  -0.045  53.880  1.00  0.00    -0.217 NA
HETATM   13  H17 UNL     1      27.743   0.250  52.229  1.00  0.00     0.159 HD
ENDROOT
BRANCH   2  14
HETATM   14  C9  UNL     1      22.117   0.879  51.341  1.00  0.00     0.093 C 
BRANCH  14  15
HETATM   15  C10 UNL     1      21.293   1.982  51.867  1.00  0.00    -0.011 C 
HETATM   16  C11 UNL     1      20.568   1.873  52.964  1.00  0.00     0.063 C 
BRANCH  16  17
HETATM   17  C12 UNL     1      20.645   0.578  53.618  1.00  0.00    -0.049 C 
HETATM   18  C13 UNL     1      20.721  -0.503  54.169  1.00  0.00     0.056 C 
BRANCH  18  19
HETATM   19  O1  UNL     1      20.793  -1.727  54.776  1.00  0.00    -0.314 OA
HETATM   20  H14 UNL     1      20.562  -2.586  54.270  1.00  0.00     0.230 HD
ENDBRANCH  18  19
ENDBRANCH  16  17
ENDBRANCH  14  15
ENDBRANCH   2  14
BRANCH   1  21
HETATM   21  C6  UNL     1      24.408   3.090  50.906  1.00  0.00     0.011 C 
HETATM   22  C5  UNL     1      25.185   3.654  50.000  1.00  0.00    -0.022 C 
BRANCH  22  23
HETATM   23  C4  UNL     1      25.050   4.909  49.204  1.00  0.00     0.054 C 
BRANCH  23  24
HETATM   24  C3  UNL     1      26.393   5.531  48.971  1.00  0.00    -0.027 C 
HETATM   25  C2  UNL     1      27.545   4.973  48.604  1.00  0.00    -0.035 C 
HETATM   26  C1  UNL     1      28.962   5.293  48.307  1.00  0.00     0.036 C 
ENDBRANCH  23  24
ENDBRANCH  22  23
ENDBRANCH   1  21
TORSDOF 7
ENDMDL
MODEL 6
REMARK VINA RESULT:      -7.7      3.019      7.126
REMARK  7 active torsions:
REMARK  status: ('A' for Active; 'I' for Inactive)
REMARK    1  A    between atoms: C3_3  and  C4_4 
REMARK    2  A    between atoms: C4_4  and  C5_5 
REMARK    3  A    between atoms: C6_6  and  C7_7 
REMARK    4  A    between atoms: C8_8  and  C9_9 
REMARK    5  A    between atoms: C9_9  and  C10_10 
REMARK    6  A    between atoms: C11_11  and  C12_12 
REMARK    7  A    between atoms: C13_13  and  O1_14 
ROOT
HETATM    1  C7  UNL     1      24.009   1.167  52.386  1.00  0.00     0.006 A 
HETATM    2  C8  UNL     1      23.247   0.069  52.715  1.00  0.00     0.070 A 
HETATM    3  O2  UNL     1      24.028  -0.683  53.415  1.00  0.00    -0.295 OA
HETATM    4  C14 UNL     1      25.213  -0.189  53.574  1.00  0.00     0.179 A 
HETATM    5  C15 UNL     1      25.276   1.049  52.914  1.00  0.00     0.025 A 
HETATM    6  C16 UNL     1      26.518   1.910  52.918  1.00  0.00     0.163 C 
HETATM    7  N1  UNL     1      27.641   0.956  52.908  1.00  0.00    -0.392 N 
HETATM    8  C17 UNL     1      28.967   0.546  53.261  1.00  0.00     0.117 C 
HETATM    9  C18 UNL     1      29.166  -0.209  54.333  1.00  0.00     0.103 C 
HETATM   10  N2  UNL     1      28.162  -0.438  55.116  1.00  0.00    -0.238 NA
HETATM   11  C19 UNL     1      27.046   0.448  54.928  1.00  0.00     0.236 C 
HETATM   12  N3  UNL     1      26.494  -0.444  54.177  1.00  0.00    -0.217 NA
HETATM   13  H17 UNL     1      27.558   0.060  52.332  1.00  0.00     0.159 HD
ENDROOT
BRANCH   2  14
HETATM   14  C9  UNL     1      21.834  -0.200  52.348  1.00  0.00     0.093 C 
BRANCH  14  15
HETATM   15  C10 UNL     1      20.928   0.588  53.202  1.00  0.00    -0.011 C 
HETATM   16  C11 UNL     1      20.014   1.405  52.714  1.00  0.00     0.063 C 
BRANCH  16  17
HETATM   17  C12 UNL     1      19.968   1.469  51.263  1.00  0.00    -0.049 C 
HETATM   18  C13 UNL     1      19.917   1.523  50.050  1.00  0.00     0.056 C 
BRANCH  18  19
HETATM   19  O1  UNL     1      19.877   1.575  48.684  1.00  0.00    -0.314 OA
HETATM   20  H14 UNL     1      19.889   0.722  48.119  1.00  0.00     0.230 HD
ENDBRANCH  18  19
ENDBRANCH  16  17
ENDBRANCH  14  15
ENDBRANCH   2  14
BRANCH   1  21
HETATM   21  C6  UNL     1      23.658   2.341  51.608  1.00  0.00     0.011 C 
HETATM   22  C5  UNL     1      23.436   2.615  50.336  1.00  0.00    -0.022 C 
BRANCH  22  23
HETATM   23  C4  UNL     1      23.075   3.879  49.630  1.00  0.00     0.054 C 
BRANCH  23  24
HETATM   24  C3  UNL     1      24.278   4.467  48.957  1.00  0.00    -0.027 C 
HETATM   25  C2  UNL     1      25.554   4.480  49.340  1.00  0.00    -0.035 C 
HETATM   26  C1  UNL     1      26.897   4.950  48.925  1.00  0.00     0.036 C 
ENDBRANCH  23  24
ENDBRANCH  22  23
ENDBRANCH   1  21
TORSDOF 7
ENDMDL
MODEL 7
REMARK VINA RESULT:      -7.7      1.994      5.406
REMARK  7 active torsions:
REMARK  status: ('A' for Active; 'I' for Inactive)
REMARK    1  A    between atoms: C3_3  and  C4_4 
REMARK    2  A    between atoms: C4_4  and  C5_5 
REMARK    3  A    between atoms: C6_6  and  C7_7 
REMARK    4  A    between atoms: C8_8  and  C9_9 
REMARK    5  A    between atoms: C9_9  and  C10_10 
REMARK    6  A    between atoms: C11_11  and  C12_12 
REMARK    7  A    between atoms: C13_13  and  O1_14 
ROOT
HETATM    1  C7  UNL     1      23.649   1.600  52.013  1.00  0.00     0.006 A 
HETATM    2  C8  UNL     1      22.475   1.107  51.491  1.00  0.00     0.070 A 
HETATM    3  O2  UNL     1      22.169   1.915  50.533  1.00  0.00    -0.295 OA
HETATM    4  C14 UNL     1      23.019   2.879  50.380  1.00  0.00     0.179 A 
HETATM    5  C15 UNL     1      24.038   2.734  51.335  1.00  0.00     0.025 A 
HETATM    6  C16 UNL     1      25.211   3.684  51.421  1.00  0.00     0.163 C 
HETATM    7  N1  UNL     1      24.662   5.000  51.051  1.00  0.00    -0.392 N 
HETATM    8  C17 UNL     1      24.758   6.299  50.456  1.00  0.00     0.117 C 
HETATM    9  C18 UNL     1      24.358   6.489  49.206  1.00  0.00     0.103 C 
HETATM   10  N2  UNL     1      24.018   5.455  48.508  1.00  0.00    -0.238 NA
HETATM   11  C19 UNL     1      24.462   4.199  49.048  1.00  0.00     0.236 C 
HETATM   12  N3  UNL     1      23.302   4.049  49.592  1.00  0.00    -0.217 NA
HETATM   13  H17 UNL     1      23.678   5.263  51.373  1.00  0.00     0.159 HD
ENDROOT
BRANCH   2  14
HETATM   14  C9  UNL     1      21.720  -0.093  51.929  1.00  0.00     0.093 C 
BRANCH  14  15
HETATM   15  C10 UNL     1      20.472   0.308  52.602  1.00  0.00    -0.011 C 
HETATM   16  C11 UNL     1      20.244   0.081  53.882  1.00  0.00     0.063 C 
BRANCH  16  17
HETATM   17  C12 UNL     1      21.321  -0.600  54.580  1.00  0.00    -0.049 C 
HETATM   18  C13 UNL     1      22.228  -1.171  55.152  1.00  0.00     0.056 C 
BRANCH  18  19
HETATM   19  O1  UNL     1      23.237  -1.819  55.811  1.00  0.00    -0.314 OA
HETATM   20  H14 UNL     1      23.113  -2.161  56.768  1.00  0.00     0.230 HD
ENDBRANCH  18  19
ENDBRANCH  16  17
ENDBRANCH  14  15
ENDBRANCH   2  14
BRANCH   1  21
HETATM   21  C6  UNL     1      24.459   1.102  53.110  1.00  0.00     0.011 C 
HETATM   22  C5  UNL     1      25.300   0.103  53.303  1.00  0.00    -0.022 C 
BRANCH  22  23
HETATM   23  C4  UNL     1      26.093  -0.326  54.492  1.00  0.00     0.054 C 
BRANCH  23  24
HETATM   24  C3  UNL     1      27.532   0.060  54.331  1.00  0.00    -0.027 C 
HETATM   25  C2  UNL     1      28.540  -0.604  53.771  1.00  0.00    -0.035 C 
HETATM   26  C1  UNL     1      29.989  -0.503  53.472  1.00  0.00     0.036 C 
ENDBRANCH  23  24
ENDBRANCH  22  23
ENDBRANCH   1  21
TORSDOF 7
ENDMDL
MODEL 8
REMARK VINA RESULT:      -7.6      2.516      5.820
REMARK  7 active torsions:
REMARK  status: ('A' for Active; 'I' for Inactive)
REMARK    1  A    between atoms: C3_3  and  C4_4 
REMARK    2  A    between atoms: C4_4  and  C5_5 
REMARK    3  A    between atoms: C6_6  and  C7_7 
REMARK    4  A    between atoms: C8_8  and  C9_9 
REMARK    5  A    between atoms: C9_9  and  C10_10 
REMARK    6  A    between atoms: C11_11  and  C12_12 
REMARK    7  A    between atoms: C13_13  and  O1_14 
ROOT
HETATM    1  C7  UNL     1      23.772   0.975  52.641  1.00  0.00     0.006 A 
HETATM    2  C8  UNL     1      23.965   1.842  51.590  1.00  0.00     0.070 A 
HETATM    3  O2  UNL     1      25.244   1.883  51.420  1.00  0.00    -0.295 OA
HETATM    4  C14 UNL     1      25.898   1.136  52.250  1.00  0.00     0.179 A 
HETATM    5  C15 UNL     1      24.980   0.496  53.098  1.00  0.00     0.025 A 
HETATM    6  C16 UNL     1      25.408  -0.472  54.177  1.00  0.00     0.163 C 
HETATM    7  N1  UNL     1      26.697   0.049  54.665  1.00  0.00    -0.392 N 
HETATM    8  C17 UNL     1      28.017  -0.111  55.197  1.00  0.00     0.117 C 
HETATM    9  C18 UNL     1      29.063  -0.146  54.382  1.00  0.00     0.103 C 
HETATM   10  N2  UNL     1      28.845  -0.174  53.108  1.00  0.00    -0.238 NA
HETATM   11  C19 UNL     1      27.503  -0.533  52.740  1.00  0.00     0.236 C 
HETATM   12  N3  UNL     1      27.223   0.722  52.626  1.00  0.00    -0.217 NA
HETATM   13  H17 UNL     1      26.835   1.105  54.745  1.00  0.00     0.159 HD
ENDROOT
BRANCH   2  14
HETATM   14  C9  UNL     1      22.933   2.574  50.814  1.00  0.00     0.093 C 
BRANCH  14  15
HETATM   15  C10 UNL     1      23.424   2.853  49.452  1.00  0.00    -0.011 C 
HETATM   16  C11 UNL     1      23.985   3.999  49.114  1.00  0.00     0.063 C 
BRANCH  16  17
HETATM   17  C12 UNL     1      24.083   4.969  50.192  1.00  0.00    -0.049 C 
HETATM   18  C13 UNL     1      24.157   5.789  51.086  1.00  0.00     0.056 C 
BRANCH  18  19
HETATM   19  O1  UNL     1      24.258   6.703  52.098  1.00  0.00    -0.314 OA
HETATM   20  H14 UNL     1      24.215   6.416  53.080  1.00  0.00     0.230 HD
ENDBRANCH  18  19
ENDBRANCH  16  17
ENDBRANCH  14  15
ENDBRANCH   2  14
BRANCH   1  21
HETATM   21  C6  UNL     1      22.538   0.543  53.274  1.00  0.00     0.011 C 
HETATM   22  C5  UNL     1      21.697  -0.465  53.142  1.00  0.00    -0.022 C 
BRANCH  22  23
HETATM   23  C4  UNL     1      20.436  -0.820  53.857  1.00  0.00     0.054 C 
BRANCH  23  24
HETATM   24  C3  UNL     1      19.243  -0.499  53.009  1.00  0.00    -0.027 C 
HETATM   25  C2  UNL     1      19.176  -0.002  51.776  1.00  0.00    -0.035 C 
HETATM   26  C1  UNL     1      18.211   0.405  50.726  1.00  0.00     0.036 C 
ENDBRANCH  23  24
ENDBRANCH  22  23
ENDBRANCH   1  21
TORSDOF 7
ENDMDL
MODEL 9
REMARK VINA RESULT:      -7.4      2.731      6.908
REMARK  7 active torsions:
REMARK  status: ('A' for Active; 'I' for Inactive)
REMARK    1  A    between atoms: C3_3  and  C4_4 
REMARK    2  A    between atoms: C4_4  and  C5_5 
REMARK    3  A    between atoms: C6_6  and  C7_7 
REMARK    4  A    between atoms: C8_8  and  C9_9 
REMARK    5  A    between atoms: C9_9  and  C10_10 
REMARK    6  A    between atoms: C11_11  and  C12_12 
REMARK    7  A    between atoms: C13_13  and  O1_14 
ROOT
HETATM    1  C7  UNL     1      24.723   1.816  51.717  1.00  0.00     0.006 A 
HETATM    2  C8  UNL     1      24.090   2.424  50.657  1.00  0.00     0.070 A 
HETATM    3  O2  UNL     1      22.853   2.070  50.758  1.00  0.00    -0.295 OA
HETATM    4  C14 UNL     1      22.619   1.298  51.770  1.00  0.00     0.179 A 
HETATM    5  C15 UNL     1      23.823   1.084  52.460  1.00  0.00     0.025 A 
HETATM    6  C16 UNL     1      23.903   0.242  53.712  1.00  0.00     0.163 C 
HETATM    7  N1  UNL     1      22.910  -0.828  53.514  1.00  0.00    -0.392 N 
HETATM    8  C17 UNL     1      21.929  -1.759  53.985  1.00  0.00     0.117 C 
HETATM    9  C18 UNL     1      20.643  -1.434  53.968  1.00  0.00     0.103 C 
HETATM   10  N2  UNL     1      20.322  -0.222  53.654  1.00  0.00    -0.238 NA
HETATM   11  C19 UNL     1      21.407   0.718  53.718  1.00  0.00     0.236 C 
HETATM   12  N3  UNL     1      21.577   0.574  52.447  1.00  0.00    -0.217 NA
HETATM   13  H17 UNL     1      22.784  -1.248  52.540  1.00  0.00     0.159 HD
ENDROOT
BRANCH   2  14
HETATM   14  C9  UNL     1      24.692   3.298  49.619  1.00  0.00     0.093 C 
BRANCH  14  15
HETATM   15  C10 UNL     1      23.651   4.126  48.986  1.00  0.00    -0.011 C 
HETATM   16  C11 UNL     1      23.862   5.372  48.603  1.00  0.00     0.063 C 
BRANCH  16  17
HETATM   17  C12 UNL     1      25.205   5.866  48.855  1.00  0.00    -0.049 C 
HETATM   18  C13 UNL     1      26.323   6.291  49.070  1.00  0.00     0.056 C 
BRANCH  18  19
HETATM   19  O1  UNL     1      27.589   6.756  49.298  1.00  0.00    -0.314 OA
HETATM   20  H14 UNL     1      28.362   6.116  49.501  1.00  0.00     0.230 HD
ENDBRANCH  18  19
ENDBRANCH  16  17
ENDBRANCH  14  15
ENDBRANCH   2  14
BRANCH   1  21
HETATM   21  C6  UNL     1      26.120   1.854  52.110  1.00  0.00     0.011 C 
HETATM   22  C5  UNL     1      26.816   2.324  53.129  1.00  0.00    -0.022 C 
BRANCH  22  23
HETATM   23  C4  UNL     1      28.275   2.309  53.440  1.00  0.00     0.054 C 
BRANCH  23  24
HETATM   24  C3  UNL     1      28.681   0.978  53.995  1.00  0.00    -0.027 C 
HETATM   25  C2  UNL     1      29.433   0.019  53.459  1.00  0.00    -0.035 C 
HETATM   26  C1  UNL     1      29.984  -1.330  53.733  1.00  0.00     0.036 C 
ENDBRANCH  23  24
ENDBRANCH  22  23
ENDBRANCH   1  21
TORSDOF 7
ENDMDL
