MODEL 1
REMARK VINA RESULT:      -8.0      0.000      0.000
REMARK  6 active torsions:
REMARK  status: ('A' for Active; 'I' for Inactive)
REMARK    1  A    between atoms: N1_4  and  C4_5 
REMARK    2  A    between atoms: C4_5  and  C5_6 
REMARK    3  A    between atoms: C8_9  and  O1_10 
REMARK    4  A    between atoms: C11_14  and  N3_15 
REMARK    5  A    between atoms: N3_15  and  C12_16 
REMARK    6  A    between atoms: C14_18  and  N4_19 
ROOT
HETATM    1  C1  UNL     1      26.381   3.043  49.838  1.00  0.00     0.047 C 
HETATM    2  C2  UNL     1      26.139   2.794  51.279  1.00  0.00    -0.039 A 
HETATM    3  C3  UNL     1      27.234   2.337  51.920  1.00  0.00     0.117 A 
HETATM    4  N1  UNL     1      27.340   2.002  53.292  1.00  0.00    -0.277 N 
HETATM    5  N2  UNL     1      26.149   2.176  54.049  1.00  0.00    -0.187 NA
HETATM    6  C10 UNL     1      25.097   2.619  53.416  1.00  0.00     0.141 A 
HETATM    7  C11 UNL     1      24.870   3.001  51.997  1.00  0.00     0.150 A 
ENDROOT
BRANCH   7   8
HETATM    8  N3  UNL     1      24.310   4.298  51.958  1.00  0.00    -0.401 N 
HETATM    9  H14 UNL     1      24.888   5.034  51.551  1.00  0.00     0.154 HD
BRANCH   8  10
HETATM   10  C12 UNL     1      22.948   4.466  51.629  1.00  0.00     0.105 C 
HETATM   11  C13 UNL     1      22.625   3.511  50.536  1.00  0.00     0.023 C 
HETATM   12  C14 UNL     1      22.847   3.734  49.251  1.00  0.00     0.008 C 
HETATM   13  C15 UNL     1      23.410   4.821  48.446  1.00  0.00     0.053 C 
HETATM   14  C16 UNL     1      22.318   5.347  47.524  1.00  0.00     0.020 C 
HETATM   15  C17 UNL     1      24.017   5.924  49.228  1.00  0.00    -0.020 C 
HETATM   16  C18 UNL     1      23.685   6.401  50.424  1.00  0.00    -0.028 C 
HETATM   17  C19 UNL     1      22.562   5.870  51.243  1.00  0.00     0.055 C 
BRANCH  12  18
HETATM   18  N4  UNL     1      22.488   2.728  48.285  1.00  0.00    -0.402 N 
HETATM   19  H17 UNL     1      22.447   3.221  47.353  1.00  0.00     0.156 HD
HETATM   20  H18 UNL     1      22.359   1.806  48.754  1.00  0.00     0.156 HD
ENDBRANCH  12  18
ENDBRANCH   8  10
ENDBRANCH   7   8
BRANCH   4  21
HETATM   21  C4  UNL     1      28.524   1.526  53.949  1.00  0.00     0.188 C 
BRANCH  21  22
HETATM   22  C5  UNL     1      28.840   0.106  53.691  1.00  0.00    -0.039 A 
HETATM   23  C6  UNL     1      30.085  -0.390  53.775  1.00  0.00    -0.011 A 
HETATM   24  C7  UNL     1      30.151  -1.832  53.474  1.00  0.00     0.092 A 
HETATM   25  C8  UNL     1      28.711  -2.139  53.189  1.00  0.00     0.047 A 
HETATM   26  C9  UNL     1      27.998  -1.016  53.321  1.00  0.00     0.040 A 
BRANCH  25  27
HETATM   27  O1  UNL     1      28.291  -3.417  52.850  1.00  0.00    -0.365 OA
HETATM   28  H10 UNL     1      28.639  -3.836  51.999  1.00  0.00     0.217 HD
ENDBRANCH  25  27
ENDBRANCH  21  22
ENDBRANCH   4  21
TORSDOF 6
ENDMDL
MODEL 2
REMARK VINA RESULT:      -7.6      1.825      3.038
REMARK  6 active torsions:
REMARK  status: ('A' for Active; 'I' for Inactive)
REMARK    1  A    between atoms: N1_4  and  C4_5 
REMARK    2  A    between atoms: C4_5  and  C5_6 
REMARK    3  A    between atoms: C8_9  and  O1_10 
REMARK    4  A    between atoms: C11_14  and  N3_15 
REMARK    5  A    between atoms: N3_15  and  C12_16 
REMARK    6  A    between atoms: C14_18  and  N4_19 
ROOT
HETATM    1  C1  UNL     1      22.992   2.298  53.007  1.00  0.00     0.047 C 
HETATM    2  C2  UNL     1      24.298   2.452  52.322  1.00  0.00    -0.039 A 
HETATM    3  C3  UNL     1      25.342   2.130  53.112  1.00  0.00     0.117 A 
HETATM    4  N1  UNL     1      26.714   2.170  52.766  1.00  0.00    -0.277 N 
HETATM    5  N2  UNL     1      26.990   2.598  51.439  1.00  0.00    -0.187 NA
HETATM    6  C10 UNL     1      25.970   2.906  50.686  1.00  0.00     0.141 A 
HETATM    7  C11 UNL     1      24.504   2.902  50.935  1.00  0.00     0.150 A 
ENDROOT
BRANCH   7   8
HETATM    8  N3  UNL     1      23.870   2.160  49.914  1.00  0.00    -0.401 N 
HETATM    9  H14 UNL     1      23.401   1.300  50.197  1.00  0.00     0.154 HD
BRANCH   8  10
HETATM   10  C12 UNL     1      23.156   2.831  48.898  1.00  0.00     0.105 C 
HETATM   11  C13 UNL     1      22.407   3.948  49.532  1.00  0.00     0.023 C 
HETATM   12  C14 UNL     1      21.229   3.825  50.123  1.00  0.00     0.008 C 
HETATM   13  C15 UNL     1      20.284   2.737  50.386  1.00  0.00     0.053 C 
HETATM   14  C16 UNL     1      18.984   3.049  49.655  1.00  0.00     0.020 C 
HETATM   15  C17 UNL     1      20.776   1.385  50.031  1.00  0.00    -0.020 C 
HETATM   16  C18 UNL     1      21.607   1.009  49.063  1.00  0.00    -0.028 C 
HETATM   17  C19 UNL     1      22.230   1.954  48.096  1.00  0.00     0.055 C 
BRANCH  12  18
HETATM   18  N4  UNL     1      20.604   4.985  50.702  1.00  0.00    -0.402 N 
HETATM   19  H17 UNL     1      20.410   5.642  49.898  1.00  0.00     0.156 HD
HETATM   20  H18 UNL     1      20.518   4.874  51.734  1.00  0.00     0.156 HD
ENDBRANCH  12  18
ENDBRANCH   8  10
ENDBRANCH   7   8
BRANCH   4  21
HETATM   21  C4  UNL     1      27.806   1.812  53.627  1.00  0.00     0.188 C 
BRANCH  21  22
HETATM   22  C5  UNL     1      28.290   0.426  53.460  1.00  0.00    -0.039 A 
HETATM   23  C6  UNL     1      29.584   0.086  53.588  1.00  0.00    -0.011 A 
HETATM   24  C7  UNL     1      29.824  -1.352  53.376  1.00  0.00     0.092 A 
HETATM   25  C8  UNL     1      28.436  -1.844  53.093  1.00  0.00     0.047 A 
HETATM   26  C9  UNL     1      27.593  -0.807  53.149  1.00  0.00     0.040 A 
BRANCH  25  27
HETATM   27  O1  UNL     1      28.174  -3.181  52.828  1.00  0.00    -0.365 OA
HETATM   28  H10 UNL     1      27.669  -3.421  51.987  1.00  0.00     0.217 HD
ENDBRANCH  25  27
ENDBRANCH  21  22
ENDBRANCH   4  21
TORSDOF 6
ENDMDL
MODEL 3
REMARK VINA RESULT:      -7.4      3.369      7.825
REMARK  6 active torsions:
REMARK  status: ('A' for Active; 'I' for Inactive)
REMARK    1  A    between atoms: N1_4  and  C4_5 
REMARK    2  A    between atoms: C4_5  and  C5_6 
REMARK    3  A    between atoms: C8_9  and  O1_10 
REMARK    4  A    between atoms: C11_14  and  N3_15 
REMARK    5  A    between atoms: N3_15  and  C12_16 
REMARK    6  A    between atoms: C14_18  and  N4_19 
ROOT
HETATM    1  C1  UNL     1      24.108   3.680  52.214  1.00  0.00     0.047 C 
HETATM    2  C2  UNL     1      23.535   2.317  52.324  1.00  0.00    -0.039 A 
HETATM    3  C3  UNL     1      22.649   2.044  51.344  1.00  0.00     0.117 A 
HETATM    4  N1  UNL     1      21.927   0.840  51.162  1.00  0.00    -0.277 N 
HETATM    5  N2  UNL     1      22.182  -0.170  52.129  1.00  0.00    -0.187 NA
HETATM    6  C10 UNL     1      23.042   0.108  53.071  1.00  0.00     0.141 A 
HETATM    7  C11 UNL     1      23.853   1.321  53.360  1.00  0.00     0.150 A 
ENDROOT
BRANCH   7   8
HETATM    8  N3  UNL     1      25.207   0.941  53.497  1.00  0.00    -0.401 N 
HETATM    9  H14 UNL     1      25.427   0.297  54.257  1.00  0.00     0.154 HD
BRANCH   8  10
HETATM   10  C12 UNL     1      25.981   0.673  52.348  1.00  0.00     0.105 C 
HETATM   11  C13 UNL     1      26.416  -0.747  52.415  1.00  0.00     0.023 C 
HETATM   12  C14 UNL     1      27.469  -1.181  53.089  1.00  0.00     0.008 C 
HETATM   13  C15 UNL     1      28.509  -0.582  53.929  1.00  0.00     0.053 C 
HETATM   14  C16 UNL     1      29.855  -0.807  53.253  1.00  0.00     0.020 C 
HETATM   15  C17 UNL     1      28.309   0.853  54.241  1.00  0.00    -0.020 C 
HETATM   16  C18 UNL     1      27.740   1.809  53.514  1.00  0.00    -0.028 C 
HETATM   17  C19 UNL     1      27.165   1.586  52.159  1.00  0.00     0.055 C 
BRANCH  12  18
HETATM   18  N4  UNL     1      27.788  -2.585  53.077  1.00  0.00    -0.402 N 
HETATM   19  H17 UNL     1      28.835  -2.647  53.191  1.00  0.00     0.156 HD
HETATM   20  H18 UNL     1      26.922  -3.152  52.954  1.00  0.00     0.156 HD
ENDBRANCH  12  18
ENDBRANCH   8  10
ENDBRANCH   7   8
BRANCH   4  21
HETATM   21  C4  UNL     1      20.995   0.575  50.102  1.00  0.00     0.188 C 
BRANCH  21  22
HETATM   22  C5  UNL     1      20.988   1.585  49.024  1.00  0.00    -0.039 A 
HETATM   23  C6  UNL     1      19.990   2.469  48.860  1.00  0.00    -0.011 A 
HETATM   24  C7  UNL     1      20.207   3.375  47.718  1.00  0.00     0.092 A 
HETATM   25  C8  UNL     1      21.528   2.889  47.202  1.00  0.00     0.047 A 
HETATM   26  C9  UNL     1      21.940   1.873  47.968  1.00  0.00     0.040 A 
BRANCH  25  27
HETATM   27  O1  UNL     1      22.141   3.469  46.100  1.00  0.00    -0.365 OA
HETATM   28  H10 UNL     1      21.801   3.240  45.177  1.00  0.00     0.217 HD
ENDBRANCH  25  27
ENDBRANCH  21  22
ENDBRANCH   4  21
TORSDOF 6
ENDMDL
MODEL 4
REMARK VINA RESULT:      -7.4      3.325      4.139
REMARK  6 active torsions:
REMARK  status: ('A' for Active; 'I' for Inactive)
REMARK    1  A    between atoms: N1_4  and  C4_5 
REMARK    2  A    between atoms: C4_5  and  C5_6 
REMARK    3  A    between atoms: C8_9  and  O1_10 
REMARK    4  A    between atoms: C11_14  and  N3_15 
REMARK    5  A    between atoms: N3_15  and  C12_16 
REMARK    6  A    between atoms: C14_18  and  N4_19 
ROOT
HETATM    1  C1  UNL     1      21.832  -0.547  54.625  1.00  0.00     0.047 C 
HETATM    2  C2  UNL     1      22.857   0.024  53.718  1.00  0.00    -0.039 A 
HETATM    3  C3  UNL     1      24.009  -0.677  53.726  1.00  0.00     0.117 A 
HETATM    4  N1  UNL     1      25.180  -0.400  52.979  1.00  0.00    -0.277 N 
HETATM    5  N2  UNL     1      25.103   0.746  52.140  1.00  0.00    -0.187 NA
HETATM    6  C10 UNL     1      23.982   1.414  52.142  1.00  0.00     0.141 A 
HETATM    7  C11 UNL     1      22.702   1.220  52.873  1.00  0.00     0.150 A 
ENDROOT
BRANCH   7   8
HETATM    8  N3  UNL     1      21.640   1.219  51.941  1.00  0.00    -0.401 N 
HETATM    9  H14 UNL     1      21.529   0.379  51.375  1.00  0.00     0.154 HD
BRANCH   8  10
HETATM   10  C12 UNL     1      20.392   1.774  52.298  1.00  0.00     0.105 C 
HETATM   11  C13 UNL     1      19.335   0.992  51.604  1.00  0.00     0.023 C 
HETATM   12  C14 UNL     1      18.943   1.197  50.357  1.00  0.00     0.008 C 
HETATM   13  C15 UNL     1      19.298   2.116  49.272  1.00  0.00     0.053 C 
HETATM   14  C16 UNL     1      18.075   2.962  48.945  1.00  0.00     0.020 C 
HETATM   15  C17 UNL     1      20.476   2.973  49.543  1.00  0.00    -0.020 C 
HETATM   16  C18 UNL     1      20.916   3.475  50.693  1.00  0.00    -0.028 C 
HETATM   17  C19 UNL     1      20.250   3.244  52.004  1.00  0.00     0.055 C 
BRANCH  12  18
HETATM   18  N4  UNL     1      17.906   0.371  49.796  1.00  0.00    -0.402 N 
HETATM   19  H17 UNL     1      17.824   0.654  48.782  1.00  0.00     0.156 HD
HETATM   20  H18 UNL     1      17.516  -0.265  50.523  1.00  0.00     0.156 HD
ENDBRANCH  12  18
ENDBRANCH   8  10
ENDBRANCH   7   8
BRANCH   4  21
HETATM   21  C4  UNL     1      26.390  -1.171  53.002  1.00  0.00     0.188 C 
BRANCH  21  22
HETATM   22  C5  UNL     1      27.591  -0.416  53.413  1.00  0.00    -0.039 A 
HETATM   23  C6  UNL     1      28.839  -0.891  53.260  1.00  0.00    -0.011 A 
HETATM   24  C7  UNL     1      29.872   0.042  53.744  1.00  0.00     0.092 A 
HETATM   25  C8  UNL     1      29.033   1.188  54.225  1.00  0.00     0.047 A 
HETATM   26  C9  UNL     1      27.745   0.892  54.022  1.00  0.00     0.040 A 
BRANCH  25  27
HETATM   27  O1  UNL     1      29.601   2.327  54.778  1.00  0.00    -0.365 OA
HETATM   28  H10 UNL     1      30.455   2.238  55.310  1.00  0.00     0.217 HD
ENDBRANCH  25  27
ENDBRANCH  21  22
ENDBRANCH   4  21
TORSDOF 6
ENDMDL
MODEL 5
REMARK VINA RESULT:      -7.4      1.744      2.278
REMARK  6 active torsions:
REMARK  status: ('A' for Active; 'I' for Inactive)
REMARK    1  A    between atoms: N1_4  and  C4_5 
REMARK    2  A    between atoms: C4_5  and  C5_6 
REMARK    3  A    between atoms: C8_9  and  O1_10 
REMARK    4  A    between atoms: C11_14  and  N3_15 
REMARK    5  A    between atoms: N3_15  and  C12_16 
REMARK    6  A    between atoms: C14_18  and  N4_19 
ROOT
HETATM    1  C1  UNL     1      26.362   3.239  49.713  1.00  0.00     0.047 C 
HETATM    2  C2  UNL     1      25.368   2.912  50.764  1.00  0.00    -0.039 A 
HETATM    3  C3  UNL     1      25.645   1.756  51.401  1.00  0.00     0.117 A 
HETATM    4  N1  UNL     1      24.899   1.161  52.447  1.00  0.00    -0.277 N 
HETATM    5  N2  UNL     1      23.741   1.882  52.849  1.00  0.00    -0.187 NA
HETATM    6  C10 UNL     1      23.487   2.999  52.225  1.00  0.00     0.141 A 
HETATM    7  C11 UNL     1      24.188   3.715  51.126  1.00  0.00     0.150 A 
ENDROOT
BRANCH   7   8
HETATM    8  N3  UNL     1      24.414   5.051  51.523  1.00  0.00    -0.401 N 
HETATM    9  H14 UNL     1      25.381   5.376  51.510  1.00  0.00     0.154 HD
BRANCH   8  10
HETATM   10  C12 UNL     1      23.521   6.066  51.118  1.00  0.00     0.105 C 
HETATM   11  C13 UNL     1      22.939   5.662  49.811  1.00  0.00     0.023 C 
HETATM   12  C14 UNL     1      23.518   5.858  48.637  1.00  0.00     0.008 C 
HETATM   13  C15 UNL     1      24.768   6.453  48.158  1.00  0.00     0.053 C 
HETATM   14  C16 UNL     1      24.422   7.651  47.285  1.00  0.00     0.020 C 
HETATM   15  C17 UNL     1      25.724   6.835  49.224  1.00  0.00    -0.020 C 
HETATM   16  C18 UNL     1      25.491   7.261  50.462  1.00  0.00    -0.028 C 
HETATM   17  C19 UNL     1      24.128   7.442  51.031  1.00  0.00     0.055 C 
BRANCH  12  18
HETATM   18  N4  UNL     1      22.851   5.420  47.438  1.00  0.00    -0.402 N 
HETATM   19  H17 UNL     1      21.839   5.279  47.702  1.00  0.00     0.156 HD
HETATM   20  H18 UNL     1      23.530   5.354  46.650  1.00  0.00     0.156 HD
ENDBRANCH  12  18
ENDBRANCH   8  10
ENDBRANCH   7   8
BRANCH   4  21
HETATM   21  C4  UNL     1      25.224  -0.069  53.113  1.00  0.00     0.188 C 
BRANCH  21  22
HETATM   22  C5  UNL     1      26.624  -0.167  53.571  1.00  0.00    -0.039 A 
HETATM   23  C6  UNL     1      27.081   0.469  54.663  1.00  0.00    -0.011 A 
HETATM   24  C7  UNL     1      28.510   0.219  54.919  1.00  0.00     0.092 A 
HETATM   25  C8  UNL     1      28.858  -0.695  53.782  1.00  0.00     0.047 A 
HETATM   26  C9  UNL     1      27.763  -0.891  53.039  1.00  0.00     0.040 A 
BRANCH  25  27
HETATM   27  O1  UNL     1      30.139  -1.202  53.617  1.00  0.00    -0.365 OA
HETATM   28  H10 UNL     1      30.546  -1.209  52.693  1.00  0.00     0.217 HD
ENDBRANCH  25  27
ENDBRANCH  21  22
ENDBRANCH   4  21
TORSDOF 6
ENDMDL
MODEL 6
REMARK VINA RESULT:      -7.3      1.485      1.946
REMARK  6 active torsions:
REMARK  status: ('A' for Active; 'I' for Inactive)
REMARK    1  A    between atoms: N1_4  and  C4_5 
REMARK    2  A    between atoms: C4_5  and  C5_6 
REMARK    3  A    between atoms: C8_9  and  O1_10 
REMARK    4  A    between atoms: C11_14  and  N3_15 
REMARK    5  A    between atoms: N3_15  and  C12_16 
REMARK    6  A    between atoms: C14_18  and  N4_19 
ROOT
HETATM    1  C1  UNL     1      26.663   3.197  49.368  1.00  0.00     0.047 C 
HETATM    2  C2  UNL     1      26.003   2.887  50.659  1.00  0.00    -0.039 A 
HETATM    3  C3  UNL     1      26.871   2.466  51.600  1.00  0.00     0.117 A 
HETATM    4  N1  UNL     1      26.568   2.090  52.931  1.00  0.00    -0.277 N 
HETATM    5  N2  UNL     1      25.193   2.175  53.284  1.00  0.00    -0.187 NA
HETATM    6  C10 UNL     1      24.364   2.585  52.363  1.00  0.00     0.141 A 
HETATM    7  C11 UNL     1      24.564   3.003  50.950  1.00  0.00     0.150 A 
ENDROOT
BRANCH   7   8
HETATM    8  N3  UNL     1      23.967   4.269  50.761  1.00  0.00    -0.401 N 
HETATM    9  H14 UNL     1      24.563   5.084  50.912  1.00  0.00     0.154 HD
BRANCH   8  10
HETATM   10  C12 UNL     1      23.074   4.472  49.687  1.00  0.00     0.105 C 
HETATM   11  C13 UNL     1      23.774   5.294  48.664  1.00  0.00     0.023 C 
HETATM   12  C14 UNL     1      23.864   6.614  48.692  1.00  0.00     0.008 C 
HETATM   13  C15 UNL     1      23.405   7.689  49.574  1.00  0.00     0.053 C 
HETATM   14  C16 UNL     1      22.445   8.573  48.789  1.00  0.00     0.020 C 
HETATM   15  C17 UNL     1      22.784   7.232  50.840  1.00  0.00    -0.020 C 
HETATM   16  C18 UNL     1      22.076   6.135  51.093  1.00  0.00    -0.028 C 
HETATM   17  C19 UNL     1      21.761   5.101  50.070  1.00  0.00     0.055 C 
BRANCH  12  18
HETATM   18  N4  UNL     1      24.571   7.297  47.639  1.00  0.00    -0.402 N 
HETATM   19  H17 UNL     1      25.005   8.149  48.086  1.00  0.00     0.156 HD
HETATM   20  H18 UNL     1      24.462   6.785  46.738  1.00  0.00     0.156 HD
ENDBRANCH  12  18
ENDBRANCH   8  10
ENDBRANCH   7   8
BRANCH   4  21
HETATM   21  C4  UNL     1      27.517   1.653  53.916  1.00  0.00     0.188 C 
BRANCH  21  22
HETATM   22  C5  UNL     1      28.113   0.328  53.648  1.00  0.00    -0.039 A 
HETATM   23  C6  UNL     1      29.433   0.094  53.726  1.00  0.00    -0.011 A 
HETATM   24  C7  UNL     1      29.789  -1.303  53.416  1.00  0.00     0.092 A 
HETATM   25  C8  UNL     1      28.440  -1.894  53.132  1.00  0.00     0.047 A 
HETATM   26  C9  UNL     1      27.514  -0.939  53.274  1.00  0.00     0.040 A 
BRANCH  25  27
HETATM   27  O1  UNL     1      28.286  -3.229  52.786  1.00  0.00    -0.365 OA
HETATM   28  H10 UNL     1      27.379  -3.660  52.898  1.00  0.00     0.217 HD
ENDBRANCH  25  27
ENDBRANCH  21  22
ENDBRANCH   4  21
TORSDOF 6
ENDMDL
MODEL 7
REMARK VINA RESULT:      -7.3      4.046      8.247
REMARK  6 active torsions:
REMARK  status: ('A' for Active; 'I' for Inactive)
REMARK    1  A    between atoms: N1_4  and  C4_5 
REMARK    2  A    between atoms: C4_5  and  C5_6 
REMARK    3  A    between atoms: C8_9  and  O1_10 
REMARK    4  A    between atoms: C11_14  and  N3_15 
REMARK    5  A    between atoms: N3_15  and  C12_16 
REMARK    6  A    between atoms: C14_18  and  N4_19 
ROOT
HETATM    1  C1  UNL     1      24.278   3.528  52.314  1.00  0.00     0.047 C 
HETATM    2  C2  UNL     1      23.625   2.206  52.472  1.00  0.00    -0.039 A 
HETATM    3  C3  UNL     1      22.682   1.976  51.537  1.00  0.00     0.117 A 
HETATM    4  N1  UNL     1      21.877   0.818  51.407  1.00  0.00    -0.277 N 
HETATM    5  N2  UNL     1      22.111  -0.192  52.380  1.00  0.00    -0.187 NA
HETATM    6  C10 UNL     1      23.027   0.045  53.278  1.00  0.00     0.141 A 
HETATM    7  C11 UNL     1      23.925   1.207  53.511  1.00  0.00     0.150 A 
ENDROOT
BRANCH   7   8
HETATM    8  N3  UNL     1      25.257   0.744  53.596  1.00  0.00    -0.401 N 
HETATM    9  H14 UNL     1      25.458   0.057  54.324  1.00  0.00     0.154 HD
BRANCH   8  10
HETATM   10  C12 UNL     1      25.986   0.479  52.417  1.00  0.00     0.105 C 
HETATM   11  C13 UNL     1      26.455  -0.931  52.481  1.00  0.00     0.023 C 
HETATM   12  C14 UNL     1      27.547  -1.333  53.112  1.00  0.00     0.008 C 
HETATM   13  C15 UNL     1      28.610  -0.701  53.898  1.00  0.00     0.053 C 
HETATM   14  C16 UNL     1      29.929  -0.904  53.165  1.00  0.00     0.020 C 
HETATM   15  C17 UNL     1      28.391   0.733  54.202  1.00  0.00    -0.020 C 
HETATM   16  C18 UNL     1      27.768   1.667  53.490  1.00  0.00    -0.028 C 
HETATM   17  C19 UNL     1      27.139   1.415  52.165  1.00  0.00     0.055 C 
BRANCH  12  18
HETATM   18  N4  UNL     1      27.896  -2.730  53.102  1.00  0.00    -0.402 N 
HETATM   19  H17 UNL     1      28.047  -2.984  52.088  1.00  0.00     0.156 HD
HETATM   20  H18 UNL     1      27.900  -3.109  54.072  1.00  0.00     0.156 HD
ENDBRANCH  12  18
ENDBRANCH   8  10
ENDBRANCH   7   8
BRANCH   4  21
HETATM   21  C4  UNL     1      20.885   0.597  50.393  1.00  0.00     0.188 C 
BRANCH  21  22
HETATM   22  C5  UNL     1      19.580   1.234  50.663  1.00  0.00    -0.039 A 
HETATM   23  C6  UNL     1      18.427   0.781  50.144  1.00  0.00    -0.011 A 
HETATM   24  C7  UNL     1      17.258   1.580  50.555  1.00  0.00     0.092 A 
HETATM   25  C8  UNL     1      17.902   2.616  51.429  1.00  0.00     0.047 A 
HETATM   26  C9  UNL     1      19.219   2.388  51.465  1.00  0.00     0.040 A 
BRANCH  25  27
HETATM   27  O1  UNL     1      17.160   3.609  52.052  1.00  0.00    -0.365 OA
HETATM   28  H10 UNL     1      17.381   4.576  51.860  1.00  0.00     0.217 HD
ENDBRANCH  25  27
ENDBRANCH  21  22
ENDBRANCH   4  21
TORSDOF 6
ENDMDL
MODEL 8
REMARK VINA RESULT:      -7.2      2.280      2.802
REMARK  6 active torsions:
REMARK  status: ('A' for Active; 'I' for Inactive)
REMARK    1  A    between atoms: N1_4  and  C4_5 
REMARK    2  A    between atoms: C4_5  and  C5_6 
REMARK    3  A    between atoms: C8_9  and  O1_10 
REMARK    4  A    between atoms: C11_14  and  N3_15 
REMARK    5  A    between atoms: N3_15  and  C12_16 
REMARK    6  A    between atoms: C14_18  and  N4_19 
ROOT
HETATM    1  C1  UNL     1      23.920   3.154  50.367  1.00  0.00     0.047 C 
HETATM    2  C2  UNL     1      24.085   2.149  51.445  1.00  0.00    -0.039 A 
HETATM    3  C3  UNL     1      25.317   2.169  51.993  1.00  0.00     0.117 A 
HETATM    4  N1  UNL     1      25.798   1.343  53.037  1.00  0.00    -0.277 N 
HETATM    5  N2  UNL     1      24.860   0.400  53.541  1.00  0.00    -0.187 NA
HETATM    6  C10 UNL     1      23.672   0.392  53.002  1.00  0.00     0.141 A 
HETATM    7  C11 UNL     1      23.060   1.202  51.916  1.00  0.00     0.150 A 
ENDROOT
BRANCH   7   8
HETATM    8  N3  UNL     1      21.844   1.748  52.384  1.00  0.00    -0.401 N 
HETATM    9  H14 UNL     1      21.818   2.759  52.522  1.00  0.00     0.154 HD
BRANCH   8  10
HETATM   10  C12 UNL     1      20.617   1.261  51.886  1.00  0.00     0.105 C 
HETATM   11  C13 UNL     1      20.776   1.040  50.424  1.00  0.00     0.023 C 
HETATM   12  C14 UNL     1      20.649   1.981  49.502  1.00  0.00     0.008 C 
HETATM   13  C15 UNL     1      20.347   3.415  49.486  1.00  0.00     0.053 C 
HETATM   14  C16 UNL     1      19.044   3.619  48.725  1.00  0.00     0.020 C 
HETATM   15  C17 UNL     1      20.284   4.053  50.822  1.00  0.00    -0.020 C 
HETATM   16  C18 UNL     1      19.898   3.545  51.989  1.00  0.00    -0.028 C 
HETATM   17  C19 UNL     1      19.429   2.144  52.166  1.00  0.00     0.055 C 
BRANCH  12  18
HETATM   18  N4  UNL     1      20.828   1.641  48.115  1.00  0.00    -0.402 N 
HETATM   19  H17 UNL     1      21.868   1.675  47.938  1.00  0.00     0.156 HD
HETATM   20  H18 UNL     1      19.906   1.463  47.663  1.00  0.00     0.156 HD
ENDBRANCH  12  18
ENDBRANCH   8  10
ENDBRANCH   7   8
BRANCH   4  21
HETATM   21  C4  UNL     1      27.115   1.394  53.606  1.00  0.00     0.188 C 
BRANCH  21  22
HETATM   22  C5  UNL     1      27.880   0.135  53.496  1.00  0.00    -0.039 A 
HETATM   23  C6  UNL     1      29.185   0.047  53.803  1.00  0.00    -0.011 A 
HETATM   24  C7  UNL     1      29.730  -1.309  53.613  1.00  0.00     0.092 A 
HETATM   25  C8  UNL     1      28.518  -2.049  53.130  1.00  0.00     0.047 A 
HETATM   26  C9  UNL     1      27.489  -1.197  53.076  1.00  0.00     0.040 A 
BRANCH  25  27
HETATM   27  O1  UNL     1      28.563  -3.400  52.816  1.00  0.00    -0.365 OA
HETATM   28  H10 UNL     1      28.245  -3.700  51.906  1.00  0.00     0.217 HD
ENDBRANCH  25  27
ENDBRANCH  21  22
ENDBRANCH   4  21
TORSDOF 6
ENDMDL
MODEL 9
REMARK VINA RESULT:      -7.0      3.055      7.997
REMARK  6 active torsions:
REMARK  status: ('A' for Active; 'I' for Inactive)
REMARK    1  A    between atoms: N1_4  and  C4_5 
REMARK    2  A    between atoms: C4_5  and  C5_6 
REMARK    3  A    between atoms: C8_9  and  O1_10 
REMARK    4  A    between atoms: C11_14  and  N3_15 
REMARK    5  A    between atoms: N3_15  and  C12_16 
REMARK    6  A    between atoms: C14_18  and  N4_19 
ROOT
HETATM    1  C1  UNL     1      26.017   3.232  49.795  1.00  0.00     0.047 C 
HETATM    2  C2  UNL     1      24.769   3.295  50.594  1.00  0.00    -0.039 A 
HETATM    3  C3  UNL     1      23.717   3.744  49.880  1.00  0.00     0.117 A 
HETATM    4  N1  UNL     1      22.390   3.923  50.342  1.00  0.00    -0.277 N 
HETATM    5  N2  UNL     1      22.175   3.586  51.706  1.00  0.00    -0.187 NA
HETATM    6  C10 UNL     1      23.202   3.152  52.384  1.00  0.00     0.141 A 
HETATM    7  C11 UNL     1      24.624   2.924  52.011  1.00  0.00     0.150 A 
ENDROOT
BRANCH   7   8
HETATM    8  N3  UNL     1      24.985   1.607  52.374  1.00  0.00    -0.401 N 
HETATM    9  H14 UNL     1      25.579   1.099  51.720  1.00  0.00     0.154 HD
BRANCH   8  10
HETATM   10  C12 UNL     1      25.317   1.314  53.714  1.00  0.00     0.105 C 
HETATM   11  C13 UNL     1      26.604   1.992  54.021  1.00  0.00     0.023 C 
HETATM   12  C14 UNL     1      27.800   1.504  53.735  1.00  0.00     0.008 C 
HETATM   13  C15 UNL     1      28.325   0.292  53.100  1.00  0.00     0.053 C 
HETATM   14  C16 UNL     1      29.147  -0.468  54.132  1.00  0.00     0.020 C 
HETATM   15  C17 UNL     1      27.299  -0.587  52.491  1.00  0.00    -0.020 C 
HETATM   16  C18 UNL     1      26.040  -0.805  52.860  1.00  0.00    -0.028 C 
HETATM   17  C19 UNL     1      25.398  -0.156  54.035  1.00  0.00     0.055 C 
BRANCH  12  18
HETATM   18  N4  UNL     1      28.975   2.259  54.084  1.00  0.00    -0.402 N 
HETATM   19  H17 UNL     1      29.269   1.915  55.038  1.00  0.00     0.156 HD
HETATM   20  H18 UNL     1      29.212   2.932  53.325  1.00  0.00     0.156 HD
ENDBRANCH  12  18
ENDBRANCH   8  10
ENDBRANCH   7   8
BRANCH   4  21
HETATM   21  C4  UNL     1      21.286   4.396  49.555  1.00  0.00     0.188 C 
BRANCH  21  22
HETATM   22  C5  UNL     1      21.562   4.494  48.107  1.00  0.00    -0.039 A 
HETATM   23  C6  UNL     1      22.056   5.603  47.533  1.00  0.00    -0.011 A 
HETATM   24  C7  UNL     1      22.247   5.462  46.078  1.00  0.00     0.092 A 
HETATM   25  C8  UNL     1      21.780   4.054  45.855  1.00  0.00     0.047 A 
HETATM   26  C9  UNL     1      21.399   3.538  47.029  1.00  0.00     0.040 A 
BRANCH  25  27
HETATM   27  O1  UNL     1      21.782   3.475  44.595  1.00  0.00    -0.365 OA
HETATM   28  H10 UNL     1      20.973   2.949  44.298  1.00  0.00     0.217 HD
ENDBRANCH  25  27
ENDBRANCH  21  22
ENDBRANCH   4  21
TORSDOF 6
ENDMDL
