MODEL 1
REMARK VINA RESULT:      -9.4      0.000      0.000
REMARK  5 active torsions:
REMARK  status: ('A' for Active; 'I' for Inactive)
REMARK    1  A    between atoms: O1_2  and  C2_3 
REMARK    2  A    between atoms: C5_8  and  C7_10 
REMARK    3  A    between atoms: C7_10  and  N2_11 
REMARK       I    between atoms: N2_11  and  C8_12 
REMARK    4  A    between atoms: C8_12  and  C9_14 
REMARK    5  A    between atoms: C19_26  and  O4_27 
ROOT
HETATM    1  C9  UNL     1      22.205   1.113  52.814  1.00  0.00     0.133 C 
HETATM    2  C10 UNL     1      21.796   1.049  51.363  1.00  0.00    -0.001 C 
HETATM    3  C11 UNL     1      20.780   0.851  50.533  1.00  0.00    -0.052 C 
HETATM    4  C12 UNL     1      20.981   0.913  49.078  1.00  0.00     0.049 C 
HETATM    5  C13 UNL     1      19.378   0.556  50.884  1.00  0.00    -0.001 A 
HETATM    6  C14 UNL     1      18.648   0.995  49.831  1.00  0.00     0.056 A 
HETATM    7  C15 UNL     1      17.261   0.843  49.885  1.00  0.00     0.117 A 
HETATM    8  F1  UNL     1      16.520   1.277  48.840  1.00  0.00    -0.206 F 
HETATM    9  C16 UNL     1      16.672   0.253  51.004  1.00  0.00     0.044 A 
HETATM   10  C17 UNL     1      17.392  -0.203  52.092  1.00  0.00     0.033 A 
HETATM   11  C18 UNL     1      18.734  -0.030  51.986  1.00  0.00     0.045 A 
HETATM   12  N3  UNL     1      19.242  -0.576  53.223  1.00  0.00    -0.336 N 
HETATM   13  C19 UNL     1      20.583  -0.683  53.748  1.00  0.00     0.143 C 
HETATM   14  C20 UNL     1      21.725  -0.034  53.592  1.00  0.00    -0.016 C 
HETATM   15  C21 UNL     1      22.824  -0.598  54.410  1.00  0.00     0.049 C 
HETATM   16  H24 UNL     1      18.561  -0.973  53.880  1.00  0.00     0.168 HD
ENDROOT
BRANCH   1  17
HETATM   17  C8  UNL     1      23.634   1.385  52.954  1.00  0.00     0.229 C 
HETATM   18  N2  UNL     1      24.682   0.538  52.502  1.00  0.00    -0.359 N 
HETATM   19  H15 UNL     1      24.224  -0.319  52.043  1.00  0.00     0.162 HD
HETATM   20  O3  UNL     1      24.023   2.445  53.516  1.00  0.00    -0.272 OA
BRANCH  18  21
HETATM   21  C7  UNL     1      26.103   0.564  52.520  1.00  0.00     0.138 C 
BRANCH  21  22
HETATM   22  C5  UNL     1      26.815  -0.316  53.471  1.00  0.00     0.048 C 
HETATM   23  C2  UNL     1      28.019   0.501  53.990  1.00  0.00     0.272 C 
HETATM   24  O2  UNL     1      29.119   0.257  53.173  1.00  0.00    -0.331 OA
HETATM   25  C3  UNL     1      29.632  -0.987  53.601  1.00  0.00     0.440 C 
HETATM   26  N1  UNL     1      28.581  -1.999  53.546  1.00  0.00     0.107 N 
HETATM   27  C4  UNL     1      27.430  -1.517  52.792  1.00  0.00     0.288 C 
HETATM   28  H7  UNL     1      28.315  -2.321  54.498  1.00  0.00     0.318 HD
HETATM   29  C6  UNL     1      26.087  -0.771  54.681  1.00  0.00     0.024 C 
BRANCH  23  30
HETATM   30  O1  UNL     1      27.690   1.836  54.111  1.00  0.00    -0.365 OA
HETATM   31  C1  UNL     1      28.811   2.551  53.663  1.00  0.00     0.204 C 
ENDBRANCH  23  30
ENDBRANCH  21  22
ENDBRANCH  18  21
ENDBRANCH   1  17
BRANCH  13  32
HETATM   32  O4  UNL     1      20.736  -1.744  54.662  1.00  0.00    -0.346 OA
HETATM   33  H25 UNL     1      21.653  -2.199  54.684  1.00  0.00     0.219 HD
ENDBRANCH  13  32
TORSDOF 5
ENDMDL
MODEL 2
REMARK VINA RESULT:      -9.3      3.573      8.810
REMARK  5 active torsions:
REMARK  status: ('A' for Active; 'I' for Inactive)
REMARK    1  A    between atoms: O1_2  and  C2_3 
REMARK    2  A    between atoms: C5_8  and  C7_10 
REMARK    3  A    between atoms: C7_10  and  N2_11 
REMARK       I    between atoms: N2_11  and  C8_12 
REMARK    4  A    between atoms: C8_12  and  C9_14 
REMARK    5  A    between atoms: C19_26  and  O4_27 
ROOT
HETATM    1  C9  UNL     1      23.972   0.462  53.304  1.00  0.00     0.133 C 
HETATM    2  C10 UNL     1      24.970  -0.600  52.914  1.00  0.00    -0.001 C 
HETATM    3  C11 UNL     1      26.261  -0.894  52.833  1.00  0.00    -0.052 C 
HETATM    4  C12 UNL     1      26.700  -2.204  52.332  1.00  0.00     0.049 C 
HETATM    5  C13 UNL     1      27.403  -0.032  53.199  1.00  0.00    -0.001 A 
HETATM    6  C14 UNL     1      28.411  -0.887  53.495  1.00  0.00     0.056 A 
HETATM    7  C15 UNL     1      29.638  -0.344  53.881  1.00  0.00     0.117 A 
HETATM    8  F1  UNL     1      30.654  -1.186  54.180  1.00  0.00    -0.206 F 
HETATM    9  C16 UNL     1      29.792   1.041  53.952  1.00  0.00     0.044 A 
HETATM   10  C17 UNL     1      28.780   1.935  53.655  1.00  0.00     0.033 A 
HETATM   11  C18 UNL     1      27.611   1.354  53.286  1.00  0.00     0.045 A 
HETATM   12  N3  UNL     1      26.739   2.479  53.037  1.00  0.00    -0.336 N 
HETATM   13  C19 UNL     1      25.355   2.552  52.634  1.00  0.00     0.143 C 
HETATM   14  C20 UNL     1      24.288   1.777  52.736  1.00  0.00    -0.016 C 
HETATM   15  C21 UNL     1      23.081   2.375  52.119  1.00  0.00     0.049 C 
HETATM   16  H24 UNL     1      27.135   3.418  53.155  1.00  0.00     0.168 HD
ENDROOT
BRANCH   1  17
HETATM   17  C8  UNL     1      22.600   0.016  53.072  1.00  0.00     0.229 C 
HETATM   18  N2  UNL     1      21.440   0.831  53.178  1.00  0.00    -0.359 N 
HETATM   19  H15 UNL     1      21.767   1.818  53.451  1.00  0.00     0.162 HD
HETATM   20  O3  UNL     1      22.370  -1.182  52.750  1.00  0.00    -0.272 OA
BRANCH  18  21
HETATM   21  C7  UNL     1      20.039   0.649  53.018  1.00  0.00     0.138 C 
BRANCH  21  22
HETATM   22  C5  UNL     1      19.463   0.760  51.660  1.00  0.00     0.048 C 
HETATM   23  C2  UNL     1      18.888   2.190  51.556  1.00  0.00     0.272 C 
HETATM   24  O2  UNL     1      17.556   2.175  51.959  1.00  0.00    -0.331 OA
HETATM   25  C3  UNL     1      16.837   1.682  50.847  1.00  0.00     0.440 C 
HETATM   26  N1  UNL     1      17.379   0.387  50.445  1.00  0.00     0.107 N 
HETATM   27  C4  UNL     1      18.270  -0.147  51.468  1.00  0.00     0.288 C 
HETATM   28  H7  UNL     1      17.843   0.443  49.516  1.00  0.00     0.318 HD
HETATM   29  C6  UNL     1      20.374   0.608  50.499  1.00  0.00     0.024 C 
BRANCH  23  30
HETATM   30  O1  UNL     1      19.676   3.087  52.248  1.00  0.00    -0.365 OA
HETATM   31  C1  UNL     1      19.927   4.144  51.361  1.00  0.00     0.204 C 
ENDBRANCH  23  30
ENDBRANCH  21  22
ENDBRANCH  18  21
ENDBRANCH   1  17
BRANCH  13  32
HETATM   32  O4  UNL     1      25.039   3.746  51.958  1.00  0.00    -0.346 OA
HETATM   33  H25 UNL     1      25.325   3.803  50.975  1.00  0.00     0.219 HD
ENDBRANCH  13  32
TORSDOF 5
ENDMDL
MODEL 3
REMARK VINA RESULT:      -9.2      2.367      3.503
REMARK  5 active torsions:
REMARK  status: ('A' for Active; 'I' for Inactive)
REMARK    1  A    between atoms: O1_2  and  C2_3 
REMARK    2  A    between atoms: C5_8  and  C7_10 
REMARK    3  A    between atoms: C7_10  and  N2_11 
REMARK       I    between atoms: N2_11  and  C8_12 
REMARK    4  A    between atoms: C8_12  and  C9_14 
REMARK    5  A    between atoms: C19_26  and  O4_27 
ROOT
HETATM    1  C9  UNL     1      22.041   1.271  51.854  1.00  0.00     0.133 C 
HETATM    2  C10 UNL     1      21.825   0.253  52.947  1.00  0.00    -0.001 C 
HETATM    3  C11 UNL     1      20.932  -0.537  53.528  1.00  0.00    -0.052 C 
HETATM    4  C12 UNL     1      21.317  -1.397  54.657  1.00  0.00     0.049 C 
HETATM    5  C13 UNL     1      19.505  -0.688  53.182  1.00  0.00    -0.001 A 
HETATM    6  C14 UNL     1      19.166  -1.929  53.605  1.00  0.00     0.056 A 
HETATM    7  C15 UNL     1      17.852  -2.353  53.405  1.00  0.00     0.117 A 
HETATM    8  F1  UNL     1      17.499  -3.591  53.823  1.00  0.00    -0.206 F 
HETATM    9  C16 UNL     1      16.935  -1.502  52.786  1.00  0.00     0.044 A 
HETATM   10  C17 UNL     1      17.254  -0.232  52.346  1.00  0.00     0.033 A 
HETATM   11  C18 UNL     1      18.544   0.129  52.564  1.00  0.00     0.045 A 
HETATM   12  N3  UNL     1      18.616   1.467  52.025  1.00  0.00    -0.336 N 
HETATM   13  C19 UNL     1      19.708   2.404  51.922  1.00  0.00     0.143 C 
HETATM   14  C20 UNL     1      21.027   2.331  51.856  1.00  0.00    -0.016 C 
HETATM   15  C21 UNL     1      21.674   3.661  51.759  1.00  0.00     0.049 C 
HETATM   16  H24 UNL     1      17.755   1.865  51.632  1.00  0.00     0.168 HD
ENDROOT
BRANCH   1  17
HETATM   17  C8  UNL     1      23.421   1.751  51.837  1.00  0.00     0.229 C 
HETATM   18  N2  UNL     1      24.283   1.820  52.965  1.00  0.00    -0.359 N 
HETATM   19  H15 UNL     1      23.732   1.452  53.811  1.00  0.00     0.162 HD
HETATM   20  O3  UNL     1      23.938   2.150  50.757  1.00  0.00    -0.272 OA
BRANCH  18  21
HETATM   21  C7  UNL     1      25.619   2.238  53.212  1.00  0.00     0.138 C 
BRANCH  21  22
HETATM   22  C5  UNL     1      26.715   1.270  52.991  1.00  0.00     0.048 C 
HETATM   23  C2  UNL     1      26.584   0.214  54.111  1.00  0.00     0.272 C 
HETATM   24  O2  UNL     1      27.353   0.610  55.201  1.00  0.00    -0.331 OA
HETATM   25  C3  UNL     1      28.680   0.259  54.867  1.00  0.00     0.440 C 
HETATM   26  N1  UNL     1      29.046   0.871  53.594  1.00  0.00     0.107 N 
HETATM   27  C4  UNL     1      28.077   1.888  53.204  1.00  0.00     0.288 C 
HETATM   28  H7  UNL     1      29.177   0.154  52.852  1.00  0.00     0.318 HD
HETATM   29  C6  UNL     1      26.730   0.508  51.718  1.00  0.00     0.024 C 
BRANCH  23  30
HETATM   30  O1  UNL     1      25.258  -0.020  54.411  1.00  0.00    -0.365 OA
HETATM   31  C1  UNL     1      25.259  -0.916  55.490  1.00  0.00     0.204 C 
ENDBRANCH  23  30
ENDBRANCH  21  22
ENDBRANCH  18  21
ENDBRANCH   1  17
BRANCH  13  32
HETATM   32  O4  UNL     1      19.283   3.746  51.880  1.00  0.00    -0.346 OA
HETATM   33  H25 UNL     1      18.748   4.081  52.687  1.00  0.00     0.219 HD
ENDBRANCH  13  32
TORSDOF 5
ENDMDL
MODEL 4
REMARK VINA RESULT:      -9.2      7.542      9.615
REMARK  5 active torsions:
REMARK  status: ('A' for Active; 'I' for Inactive)
REMARK    1  A    between atoms: O1_2  and  C2_3 
REMARK    2  A    between atoms: C5_8  and  C7_10 
REMARK    3  A    between atoms: C7_10  and  N2_11 
REMARK       I    between atoms: N2_11  and  C8_12 
REMARK    4  A    between atoms: C8_12  and  C9_14 
REMARK    5  A    between atoms: C19_26  and  O4_27 
ROOT
HETATM    1  C9  UNL     1      27.750   7.165  48.083  1.00  0.00     0.133 C 
HETATM    2  C10 UNL     1      27.352   5.793  48.568  1.00  0.00    -0.001 C 
HETATM    3  C11 UNL     1      26.442   5.108  49.247  1.00  0.00    -0.052 C 
HETATM    4  C12 UNL     1      26.576   3.654  49.420  1.00  0.00     0.049 C 
HETATM    5  C13 UNL     1      25.228   5.631  49.904  1.00  0.00    -0.001 A 
HETATM    6  C14 UNL     1      24.369   4.585  49.948  1.00  0.00     0.056 A 
HETATM    7  C15 UNL     1      23.115   4.790  50.526  1.00  0.00     0.117 A 
HETATM    8  F1  UNL     1      22.247   3.754  50.577  1.00  0.00    -0.206 F 
HETATM    9  C16 UNL     1      22.784   6.047  51.036  1.00  0.00     0.044 A 
HETATM   10  C17 UNL     1      23.641   7.131  51.004  1.00  0.00     0.033 A 
HETATM   11  C18 UNL     1      24.844   6.875  50.431  1.00  0.00     0.045 A 
HETATM   12  N3  UNL     1      25.536   8.140  50.522  1.00  0.00    -0.336 N 
HETATM   13  C19 UNL     1      26.846   8.554  50.080  1.00  0.00     0.143 C 
HETATM   14  C20 UNL     1      27.700   8.180  49.142  1.00  0.00    -0.016 C 
HETATM   15  C21 UNL     1      28.944   8.985  49.141  1.00  0.00     0.049 C 
HETATM   16  H24 UNL     1      25.042   8.917  50.976  1.00  0.00     0.168 HD
ENDROOT
BRANCH   1  17
HETATM   17  C8  UNL     1      29.007   7.125  47.340  1.00  0.00     0.229 C 
HETATM   18  N2  UNL     1      30.186   6.446  47.752  1.00  0.00    -0.359 N 
HETATM   19  H15 UNL     1      29.970   5.975  48.694  1.00  0.00     0.162 HD
HETATM   20  O3  UNL     1      29.109   7.727  46.236  1.00  0.00    -0.272 OA
BRANCH  18  21
HETATM   21  C7  UNL     1      31.498   6.261  47.237  1.00  0.00     0.138 C 
BRANCH  21  22
HETATM   22  C5  UNL     1      32.486   5.534  48.063  1.00  0.00     0.048 C 
HETATM   23  C2  UNL     1      33.875   6.003  47.578  1.00  0.00     0.272 C 
HETATM   24  O2  UNL     1      34.316   5.151  46.569  1.00  0.00    -0.331 OA
HETATM   25  C3  UNL     1      34.807   4.007  47.235  1.00  0.00     0.440 C 
HETATM   26  N1  UNL     1      33.769   3.458  48.102  1.00  0.00     0.107 N 
HETATM   27  C4  UNL     1      32.469   4.046  47.800  1.00  0.00     0.288 C 
HETATM   28  H7  UNL     1      34.019   3.563  49.106  1.00  0.00     0.318 HD
HETATM   29  C6  UNL     1      32.474   5.761  49.530  1.00  0.00     0.024 C 
BRANCH  23  30
HETATM   30  O1  UNL     1      33.846   7.335  47.220  1.00  0.00    -0.365 OA
HETATM   31  C1  UNL     1      34.951   7.928  47.849  1.00  0.00     0.204 C 
ENDBRANCH  23  30
ENDBRANCH  21  22
ENDBRANCH  18  21
ENDBRANCH   1  17
BRANCH  13  32
HETATM   32  O4  UNL     1      27.367   9.628  50.826  1.00  0.00    -0.346 OA
HETATM   33  H25 UNL     1      28.070  10.210  50.359  1.00  0.00     0.219 HD
ENDBRANCH  13  32
TORSDOF 5
ENDMDL
MODEL 5
REMARK VINA RESULT:      -9.1      3.569      8.293
REMARK  5 active torsions:
REMARK  status: ('A' for Active; 'I' for Inactive)
REMARK    1  A    between atoms: O1_2  and  C2_3 
REMARK    2  A    between atoms: C5_8  and  C7_10 
REMARK    3  A    between atoms: C7_10  and  N2_11 
REMARK       I    between atoms: N2_11  and  C8_12 
REMARK    4  A    between atoms: C8_12  and  C9_14 
REMARK    5  A    between atoms: C19_26  and  O4_27 
ROOT
HETATM    1  C9  UNL     1      22.933  -0.098  52.918  1.00  0.00     0.133 C 
HETATM    2  C10 UNL     1      23.555   1.277  52.927  1.00  0.00    -0.001 C 
HETATM    3  C11 UNL     1      24.651   1.965  53.215  1.00  0.00    -0.052 C 
HETATM    4  C12 UNL     1      24.697   3.420  53.004  1.00  0.00     0.049 C 
HETATM    5  C13 UNL     1      25.923   1.446  53.756  1.00  0.00    -0.001 A 
HETATM    6  C14 UNL     1      26.867   2.330  53.354  1.00  0.00     0.056 A 
HETATM    7  C15 UNL     1      28.190   2.091  53.727  1.00  0.00     0.117 A 
HETATM    8  F1  UNL     1      29.144   2.965  53.333  1.00  0.00    -0.206 F 
HETATM    9  C16 UNL     1      28.502   0.966  54.492  1.00  0.00     0.044 A 
HETATM   10  C17 UNL     1      27.559   0.048  54.916  1.00  0.00     0.033 A 
HETATM   11  C18 UNL     1      26.290   0.330  54.525  1.00  0.00     0.045 A 
HETATM   12  N3  UNL     1      25.517  -0.755  55.083  1.00  0.00    -0.336 N 
HETATM   13  C19 UNL     1      24.109  -1.065  55.018  1.00  0.00     0.143 C 
HETATM   14  C20 UNL     1      23.112  -0.813  54.186  1.00  0.00    -0.016 C 
HETATM   15  C21 UNL     1      21.826  -1.398  54.634  1.00  0.00     0.049 C 
HETATM   16  H24 UNL     1      26.021  -1.459  55.635  1.00  0.00     0.168 HD
ENDROOT
BRANCH   1  17
HETATM   17  C8  UNL     1      21.554  -0.057  52.435  1.00  0.00     0.229 C 
HETATM   18  N2  UNL     1      20.602   0.950  52.750  1.00  0.00    -0.359 N 
HETATM   19  H15 UNL     1      21.087   1.660  53.394  1.00  0.00     0.162 HD
HETATM   20  O3  UNL     1      21.124  -0.966  51.674  1.00  0.00    -0.272 OA
BRANCH  18  21
HETATM   21  C7  UNL     1      19.241   1.213  52.429  1.00  0.00     0.138 C 
BRANCH  21  22
HETATM   22  C5  UNL     1      18.938   1.946  51.181  1.00  0.00     0.048 C 
HETATM   23  C2  UNL     1      19.094   3.445  51.519  1.00  0.00     0.272 C 
HETATM   24  O2  UNL     1      17.864   3.948  51.936  1.00  0.00    -0.331 OA
HETATM   25  C3  UNL     1      17.132   4.172  50.749  1.00  0.00     0.440 C 
HETATM   26  N1  UNL     1      17.068   2.940  49.969  1.00  0.00     0.107 N 
HETATM   27  C4  UNL     1      17.494   1.795  50.763  1.00  0.00     0.288 C 
HETATM   28  H7  UNL     1      17.609   3.022  49.084  1.00  0.00     0.318 HD
HETATM   29  C6  UNL     1      19.806   1.707  50.001  1.00  0.00     0.024 C 
BRANCH  23  30
HETATM   30  O1  UNL     1      20.119   3.642  52.421  1.00  0.00    -0.365 OA
HETATM   31  C1  UNL     1      21.058   4.453  51.768  1.00  0.00     0.204 C 
ENDBRANCH  23  30
ENDBRANCH  21  22
ENDBRANCH  18  21
ENDBRANCH   1  17
BRANCH  13  32
HETATM   32  O4  UNL     1      23.661  -1.830  56.112  1.00  0.00    -0.346 OA
HETATM   33  H25 UNL     1      22.925  -1.413  56.690  1.00  0.00     0.219 HD
ENDBRANCH  13  32
TORSDOF 5
ENDMDL
MODEL 6
REMARK VINA RESULT:      -9.1      3.637      7.961
REMARK  5 active torsions:
REMARK  status: ('A' for Active; 'I' for Inactive)
REMARK    1  A    between atoms: O1_2  and  C2_3 
REMARK    2  A    between atoms: C5_8  and  C7_10 
REMARK    3  A    between atoms: C7_10  and  N2_11 
REMARK       I    between atoms: N2_11  and  C8_12 
REMARK    4  A    between atoms: C8_12  and  C9_14 
REMARK    5  A    between atoms: C19_26  and  O4_27 
ROOT
HETATM    1  C9  UNL     1      22.932   0.013  52.890  1.00  0.00     0.133 C 
HETATM    2  C10 UNL     1      23.597   1.367  52.928  1.00  0.00    -0.001 C 
HETATM    3  C11 UNL     1      24.712   2.016  53.237  1.00  0.00    -0.052 C 
HETATM    4  C12 UNL     1      24.805   3.472  53.050  1.00  0.00     0.049 C 
HETATM    5  C13 UNL     1      25.961   1.449  53.781  1.00  0.00    -0.001 A 
HETATM    6  C14 UNL     1      26.936   2.309  53.402  1.00  0.00     0.056 A 
HETATM    7  C15 UNL     1      28.248   2.022  53.783  1.00  0.00     0.117 A 
HETATM    8  F1  UNL     1      29.232   2.872  53.412  1.00  0.00    -0.206 F 
HETATM    9  C16 UNL     1      28.517   0.875  54.532  1.00  0.00     0.044 A 
HETATM   10  C17 UNL     1      27.542  -0.019  54.932  1.00  0.00     0.033 A 
HETATM   11  C18 UNL     1      26.286   0.309  54.534  1.00  0.00     0.045 A 
HETATM   12  N3  UNL     1      25.474  -0.761  55.067  1.00  0.00    -0.336 N 
HETATM   13  C19 UNL     1      24.058  -1.025  54.985  1.00  0.00     0.143 C 
HETATM   14  C20 UNL     1      23.077  -0.728  54.148  1.00  0.00    -0.016 C 
HETATM   15  C21 UNL     1      21.769  -1.280  54.574  1.00  0.00     0.049 C 
HETATM   16  H24 UNL     1      25.950  -1.489  55.612  1.00  0.00     0.168 HD
ENDROOT
BRANCH   1  17
HETATM   17  C8  UNL     1      21.560   0.105  52.396  1.00  0.00     0.229 C 
HETATM   18  N2  UNL     1      20.789   1.297  52.327  1.00  0.00    -0.359 N 
HETATM   19  H15 UNL     1      21.402   2.097  52.697  1.00  0.00     0.162 HD
HETATM   20  O3  UNL     1      20.966  -0.929  51.985  1.00  0.00    -0.272 OA
BRANCH  18  21
HETATM   21  C7  UNL     1      19.475   1.647  51.909  1.00  0.00     0.138 C 
BRANCH  21  22
HETATM   22  C5  UNL     1      19.303   2.825  51.032  1.00  0.00     0.048 C 
HETATM   23  C2  UNL     1      20.175   2.560  49.785  1.00  0.00     0.272 C 
HETATM   24  O2  UNL     1      21.445   3.090  49.997  1.00  0.00    -0.331 OA
HETATM   25  C3  UNL     1      21.316   4.475  49.754  1.00  0.00     0.440 C 
HETATM   26  N1  UNL     1      20.263   5.028  50.601  1.00  0.00     0.107 N 
HETATM   27  C4  UNL     1      19.879   4.082  51.642  1.00  0.00     0.288 C 
HETATM   28  H7  UNL     1      19.446   5.338  50.037  1.00  0.00     0.318 HD
HETATM   29  C6  UNL     1      17.944   3.122  50.517  1.00  0.00     0.024 C 
BRANCH  23  30
HETATM   30  O1  UNL     1      20.170   1.220  49.459  1.00  0.00    -0.365 OA
HETATM   31  C1  UNL     1      21.373   0.984  48.778  1.00  0.00     0.204 C 
ENDBRANCH  23  30
ENDBRANCH  21  22
ENDBRANCH  18  21
ENDBRANCH   1  17
BRANCH  13  32
HETATM   32  O4  UNL     1      23.575  -1.793  56.062  1.00  0.00    -0.346 OA
HETATM   33  H25 UNL     1      22.601  -1.635  56.336  1.00  0.00     0.219 HD
ENDBRANCH  13  32
TORSDOF 5
ENDMDL
MODEL 7
REMARK VINA RESULT:      -9.0      4.891      6.867
REMARK  5 active torsions:
REMARK  status: ('A' for Active; 'I' for Inactive)
REMARK    1  A    between atoms: O1_2  and  C2_3 
REMARK    2  A    between atoms: C5_8  and  C7_10 
REMARK    3  A    between atoms: C7_10  and  N2_11 
REMARK       I    between atoms: N2_11  and  C8_12 
REMARK    4  A    between atoms: C8_12  and  C9_14 
REMARK    5  A    between atoms: C19_26  and  O4_27 
ROOT
HETATM    1  C9  UNL     1      24.360   2.663  51.294  1.00  0.00     0.133 C 
HETATM    2  C10 UNL     1      23.107   1.959  50.834  1.00  0.00    -0.001 C 
HETATM    3  C11 UNL     1      22.190   1.058  51.162  1.00  0.00    -0.052 C 
HETATM    4  C12 UNL     1      21.090   0.741  50.240  1.00  0.00     0.049 C 
HETATM    5  C13 UNL     1      22.109   0.271  52.408  1.00  0.00    -0.001 A 
HETATM    6  C14 UNL     1      20.799  -0.042  52.546  1.00  0.00     0.056 A 
HETATM    7  C15 UNL     1      20.418  -0.797  53.656  1.00  0.00     0.117 A 
HETATM    8  F1  UNL     1      19.113  -1.117  53.807  1.00  0.00    -0.206 F 
HETATM    9  C16 UNL     1      21.382  -1.205  54.581  1.00  0.00     0.044 A 
HETATM   10  C17 UNL     1      22.725  -0.900  54.464  1.00  0.00     0.033 A 
HETATM   11  C18 UNL     1      23.038  -0.164  53.368  1.00  0.00     0.045 A 
HETATM   12  N3  UNL     1      24.467   0.014  53.479  1.00  0.00    -0.336 N 
HETATM   13  C19 UNL     1      25.416   0.719  52.650  1.00  0.00     0.143 C 
HETATM   14  C20 UNL     1      25.376   1.738  51.808  1.00  0.00    -0.016 C 
HETATM   15  C21 UNL     1      26.699   2.045  51.213  1.00  0.00     0.049 C 
HETATM   16  H24 UNL     1      24.937  -0.423  54.280  1.00  0.00     0.168 HD
ENDROOT
BRANCH   1  17
HETATM   17  C8  UNL     1      24.848   3.599  50.284  1.00  0.00     0.229 C 
HETATM   18  N2  UNL     1      25.494   4.836  50.552  1.00  0.00    -0.359 N 
HETATM   19  H15 UNL     1      25.555   4.940  51.620  1.00  0.00     0.162 HD
HETATM   20  O3  UNL     1      24.708   3.336  49.058  1.00  0.00    -0.272 OA
BRANCH  18  21
HETATM   21  C7  UNL     1      26.040   5.898  49.780  1.00  0.00     0.138 C 
BRANCH  21  22
HETATM   22  C5  UNL     1      25.432   7.241  49.895  1.00  0.00     0.048 C 
HETATM   23  C2  UNL     1      24.786   7.536  48.523  1.00  0.00     0.272 C 
HETATM   24  O2  UNL     1      25.713   8.189  47.715  1.00  0.00    -0.331 OA
HETATM   25  C3  UNL     1      25.696   9.535  48.142  1.00  0.00     0.440 C 
HETATM   26  N1  UNL     1      25.966   9.601  49.575  1.00  0.00     0.107 N 
HETATM   27  C4  UNL     1      26.468   8.326  50.073  1.00  0.00     0.288 C 
HETATM   28  H7  UNL     1      25.130   9.922  50.104  1.00  0.00     0.318 HD
HETATM   29  C6  UNL     1      24.356   7.438  50.897  1.00  0.00     0.024 C 
BRANCH  23  30
HETATM   30  O1  UNL     1      24.266   6.385  47.969  1.00  0.00    -0.365 OA
HETATM   31  C1  UNL     1      23.050   6.758  47.378  1.00  0.00     0.204 C 
ENDBRANCH  23  30
ENDBRANCH  21  22
ENDBRANCH  18  21
ENDBRANCH   1  17
BRANCH  13  32
HETATM   32  O4  UNL     1      26.723   0.204  52.746  1.00  0.00    -0.346 OA
HETATM   33  H25 UNL     1      27.290   0.236  51.893  1.00  0.00     0.219 HD
ENDBRANCH  13  32
TORSDOF 5
ENDMDL
MODEL 8
REMARK VINA RESULT:      -8.9      4.388      6.674
REMARK  5 active torsions:
REMARK  status: ('A' for Active; 'I' for Inactive)
REMARK    1  A    between atoms: O1_2  and  C2_3 
REMARK    2  A    between atoms: C5_8  and  C7_10 
REMARK    3  A    between atoms: C7_10  and  N2_11 
REMARK       I    between atoms: N2_11  and  C8_12 
REMARK    4  A    between atoms: C8_12  and  C9_14 
REMARK    5  A    between atoms: C19_26  and  O4_27 
ROOT
HETATM    1  C9  UNL     1      22.117   1.393  49.946  1.00  0.00     0.133 C 
HETATM    2  C10 UNL     1      23.079   1.628  51.085  1.00  0.00    -0.001 C 
HETATM    3  C11 UNL     1      23.413   1.255  52.313  1.00  0.00    -0.052 C 
HETATM    4  C12 UNL     1      24.548   1.886  53.004  1.00  0.00     0.049 C 
HETATM    5  C13 UNL     1      22.764   0.225  53.147  1.00  0.00    -0.001 A 
HETATM    6  C14 UNL     1      23.726  -0.199  54.002  1.00  0.00     0.056 A 
HETATM    7  C15 UNL     1      23.392  -1.190  54.926  1.00  0.00     0.117 A 
HETATM    8  F1  UNL     1      24.343  -1.622  55.785  1.00  0.00    -0.206 F 
HETATM    9  C16 UNL     1      22.098  -1.711  54.946  1.00  0.00     0.044 A 
HETATM   10  C17 UNL     1      21.098  -1.298  54.086  1.00  0.00     0.033 A 
HETATM   11  C18 UNL     1      21.477  -0.333  53.210  1.00  0.00     0.045 A 
HETATM   12  N3  UNL     1      20.278  -0.085  52.444  1.00  0.00    -0.336 N 
HETATM   13  C19 UNL     1      20.009   0.808  51.342  1.00  0.00     0.143 C 
HETATM   14  C20 UNL     1      20.716   1.379  50.380  1.00  0.00    -0.016 C 
HETATM   15  C21 UNL     1      19.894   2.235  49.492  1.00  0.00     0.049 C 
HETATM   16  H24 UNL     1      19.438  -0.618  52.694  1.00  0.00     0.168 HD
ENDROOT
BRANCH   1  17
HETATM   17  C8  UNL     1      22.395   2.282  48.821  1.00  0.00     0.229 C 
HETATM   18  N2  UNL     1      22.725   3.660  48.922  1.00  0.00    -0.359 N 
HETATM   19  H15 UNL     1      22.734   3.911  49.967  1.00  0.00     0.162 HD
HETATM   20  O3  UNL     1      22.351   1.839  47.640  1.00  0.00    -0.272 OA
BRANCH  18  21
HETATM   21  C7  UNL     1      23.024   4.714  48.015  1.00  0.00     0.138 C 
BRANCH  21  22
HETATM   22  C5  UNL     1      23.528   5.993  48.560  1.00  0.00     0.048 C 
HETATM   23  C2  UNL     1      24.728   5.629  49.462  1.00  0.00     0.272 C 
HETATM   24  O2  UNL     1      24.274   5.427  50.763  1.00  0.00    -0.331 OA
HETATM   25  C3  UNL     1      24.111   6.721  51.305  1.00  0.00     0.440 C 
HETATM   26  N1  UNL     1      23.223   7.505  50.452  1.00  0.00     0.107 N 
HETATM   27  C4  UNL     1      22.536   6.653  49.489  1.00  0.00     0.288 C 
HETATM   28  H7  UNL     1      23.733   8.283  49.988  1.00  0.00     0.318 HD
HETATM   29  C6  UNL     1      24.037   7.008  47.604  1.00  0.00     0.024 C 
BRANCH  23  30
HETATM   30  O1  UNL     1      25.430   4.564  48.938  1.00  0.00    -0.365 OA
HETATM   31  C1  UNL     1      26.783   4.929  48.994  1.00  0.00     0.204 C 
ENDBRANCH  23  30
ENDBRANCH  21  22
ENDBRANCH  18  21
ENDBRANCH   1  17
BRANCH  13  32
HETATM   32  O4  UNL     1      18.654   1.181  51.250  1.00  0.00    -0.346 OA
HETATM   33  H25 UNL     1      18.166   1.347  52.136  1.00  0.00     0.219 HD
ENDBRANCH  13  32
TORSDOF 5
ENDMDL
MODEL 9
REMARK VINA RESULT:      -8.4      8.620     10.848
REMARK  5 active torsions:
REMARK  status: ('A' for Active; 'I' for Inactive)
REMARK    1  A    between atoms: O1_2  and  C2_3 
REMARK    2  A    between atoms: C5_8  and  C7_10 
REMARK    3  A    between atoms: C7_10  and  N2_11 
REMARK       I    between atoms: N2_11  and  C8_12 
REMARK    4  A    between atoms: C8_12  and  C9_14 
REMARK    5  A    between atoms: C19_26  and  O4_27 
ROOT
HETATM    1  C9  UNL     1      27.837   7.200  48.097  1.00  0.00     0.133 C 
HETATM    2  C10 UNL     1      27.444   5.818  48.558  1.00  0.00    -0.001 C 
HETATM    3  C11 UNL     1      26.531   5.116  49.216  1.00  0.00    -0.052 C 
HETATM    4  C12 UNL     1      26.674   3.661  49.370  1.00  0.00     0.049 C 
HETATM    5  C13 UNL     1      25.304   5.621  49.864  1.00  0.00    -0.001 A 
HETATM    6  C14 UNL     1      24.453   4.568  49.882  1.00  0.00     0.056 A 
HETATM    7  C15 UNL     1      23.190   4.755  50.447  1.00  0.00     0.117 A 
HETATM    8  F1  UNL     1      22.330   3.712  50.472  1.00  0.00    -0.206 F 
HETATM    9  C16 UNL     1      22.843   6.002  50.970  1.00  0.00     0.044 A 
HETATM   10  C17 UNL     1      23.692   7.092  50.964  1.00  0.00     0.033 A 
HETATM   11  C18 UNL     1      24.904   6.854  50.403  1.00  0.00     0.045 A 
HETATM   12  N3  UNL     1      25.584   8.124  50.520  1.00  0.00    -0.336 N 
HETATM   13  C19 UNL     1      26.897   8.553  50.101  1.00  0.00     0.143 C 
HETATM   14  C20 UNL     1      27.766   8.199  49.169  1.00  0.00    -0.016 C 
HETATM   15  C21 UNL     1      29.004   9.014  49.196  1.00  0.00     0.049 C 
HETATM   16  H24 UNL     1      25.079   8.890  50.979  1.00  0.00     0.168 HD
ENDROOT
BRANCH   1  17
HETATM   17  C8  UNL     1      29.104   7.180  47.370  1.00  0.00     0.229 C 
HETATM   18  N2  UNL     1      29.408   7.964  46.224  1.00  0.00    -0.359 N 
HETATM   19  H15 UNL     1      28.543   8.563  46.008  1.00  0.00     0.162 HD
HETATM   20  O3  UNL     1      30.038   6.422  47.748  1.00  0.00    -0.272 OA
BRANCH  18  21
HETATM   21  C7  UNL     1      30.523   8.124  45.356  1.00  0.00     0.138 C 
BRANCH  21  22
HETATM   22  C5  UNL     1      31.267   9.401  45.389  1.00  0.00     0.048 C 
HETATM   23  C2  UNL     1      32.260   9.286  46.566  1.00  0.00     0.272 C 
HETATM   24  O2  UNL     1      31.657   9.779  47.720  1.00  0.00    -0.331 OA
HETATM   25  C3  UNL     1      31.760  11.185  47.621  1.00  0.00     0.440 C 
HETATM   26  N1  UNL     1      31.164  11.635  46.367  1.00  0.00     0.107 N 
HETATM   27  C4  UNL     1      30.382  10.572  45.747  1.00  0.00     0.288 C 
HETATM   28  H7  UNL     1      31.884  12.016  45.720  1.00  0.00     0.318 HD
HETATM   29  C6  UNL     1      32.086   9.765  44.206  1.00  0.00     0.024 C 
BRANCH  23  30
HETATM   30  O1  UNL     1      32.732   7.995  46.684  1.00  0.00    -0.365 OA
HETATM   31  C1  UNL     1      33.555   7.988  47.821  1.00  0.00     0.204 C 
ENDBRANCH  23  30
ENDBRANCH  21  22
ENDBRANCH  18  21
ENDBRANCH   1  17
BRANCH  13  32
HETATM   32  O4  UNL     1      27.400   9.621  50.869  1.00  0.00    -0.346 OA
HETATM   33  H25 UNL     1      28.233   9.426  51.433  1.00  0.00     0.219 HD
ENDBRANCH  13  32
TORSDOF 5
ENDMDL
