MODEL 1
REMARK VINA RESULT:      -8.5      0.000      0.000
REMARK  2 active torsions:
REMARK  status: ('A' for Active; 'I' for Inactive)
REMARK    1  A    between atoms: C7_7  and  N1_8 
REMARK    2  A    between atoms: N1_8  and  C8_9 
ROOT
HETATM    1  C1  UNL     1      29.441  -2.495  53.431  1.00  0.00     0.018 C 
HETATM    2  C2  UNL     1      29.051  -1.356  53.380  1.00  0.00    -0.077 C 
HETATM    3  C3  UNL     1      28.595   0.002  53.299  1.00  0.00     0.025 A 
HETATM    4  C4  UNL     1      29.394   0.934  53.929  1.00  0.00     0.021 A 
HETATM    5  C5  UNL     1      28.991   2.251  53.872  1.00  0.00     0.004 A 
HETATM    6  C6  UNL     1      27.831   2.556  53.200  1.00  0.00     0.030 A 
HETATM    7  C7  UNL     1      27.017   1.664  52.569  1.00  0.00     0.041 A 
HETATM    8  C18 UNL     1      27.433   0.351  52.632  1.00  0.00    -0.017 A 
HETATM    9  C19 UNL     1      26.658  -0.755  51.990  1.00  0.00     0.052 C 
ENDROOT
BRANCH   7  10
HETATM   10  N1  UNL     1      25.809   1.866  51.869  1.00  0.00    -0.339 N 
HETATM   11  H5  UNL     1      24.908   1.424  52.110  1.00  0.00     0.167 HD
BRANCH  10  12
HETATM   12  C8  UNL     1      25.858   2.735  50.763  1.00  0.00     0.156 C 
HETATM   13  N2  UNL     1      26.749   2.953  49.873  1.00  0.00    -0.269 NA
HETATM   14  C9  UNL     1      27.022   4.286  49.292  1.00  0.00     0.164 C 
HETATM   15  C10 UNL     1      25.941   5.173  49.725  1.00  0.00     0.061 C 
HETATM   16  C11 UNL     1      24.675   4.404  49.537  1.00  0.00     0.025 C 
HETATM   17  C16 UNL     1      25.711   6.452  49.048  1.00  0.00    -0.052 C 
HETATM   18  C12 UNL     1      24.681   3.562  50.569  1.00  0.00     0.111 C 
HETATM   19  O1  UNL     1      23.466   3.674  51.290  1.00  0.00    -0.345 OA
HETATM   20  C13 UNL     1      23.295   4.792  52.151  1.00  0.00     0.202 C 
HETATM   21  C14 UNL     1      23.265   6.094  51.363  1.00  0.00     0.201 C 
HETATM   22  O2  UNL     1      24.443   6.297  50.654  1.00  0.00    -0.361 OA
HETATM   23  C15 UNL     1      24.739   7.180  49.652  1.00  0.00     0.138 C 
HETATM   24  C17 UNL     1      26.355   7.060  47.839  1.00  0.00     0.046 C 
ENDBRANCH  10  12
ENDBRANCH   7  10
TORSDOF 2
ENDMDL
MODEL 2
REMARK VINA RESULT:      -8.3      3.186      4.949
REMARK  2 active torsions:
REMARK  status: ('A' for Active; 'I' for Inactive)
REMARK    1  A    between atoms: C7_7  and  N1_8 
REMARK    2  A    between atoms: N1_8  and  C8_9 
ROOT
HETATM    1  C1  UNL     1      30.164  -2.028  53.971  1.00  0.00     0.018 C 
HETATM    2  C2  UNL     1      29.482  -1.057  53.756  1.00  0.00    -0.077 C 
HETATM    3  C3  UNL     1      28.679   0.099  53.481  1.00  0.00     0.025 A 
HETATM    4  C4  UNL     1      29.131   1.280  54.033  1.00  0.00     0.021 A 
HETATM    5  C5  UNL     1      28.388   2.415  53.791  1.00  0.00     0.004 A 
HETATM    6  C6  UNL     1      27.253   2.307  53.022  1.00  0.00     0.030 A 
HETATM    7  C7  UNL     1      26.776   1.161  52.461  1.00  0.00     0.041 A 
HETATM    8  C18 UNL     1      27.530   0.033  52.712  1.00  0.00    -0.017 A 
HETATM    9  C19 UNL     1      27.149  -1.308  52.169  1.00  0.00     0.052 C 
ENDROOT
BRANCH   7  10
HETATM   10  N1  UNL     1      25.626   0.938  51.675  1.00  0.00    -0.339 N 
HETATM   11  H5  UNL     1      25.621   0.874  50.645  1.00  0.00     0.167 HD
BRANCH  10  12
HETATM   12  C8  UNL     1      24.408   0.797  52.365  1.00  0.00     0.156 C 
HETATM   13  N2  UNL     1      24.061   0.091  53.373  1.00  0.00    -0.269 NA
HETATM   14  C9  UNL     1      22.728  -0.533  53.521  1.00  0.00     0.164 C 
HETATM   15  C10 UNL     1      21.873   0.027  52.472  1.00  0.00     0.061 C 
HETATM   16  C11 UNL     1      22.131   1.499  52.470  1.00  0.00     0.025 C 
HETATM   17  C16 UNL     1      20.416  -0.101  52.552  1.00  0.00    -0.052 C 
HETATM   18  C12 UNL     1      23.308   1.594  51.855  1.00  0.00     0.111 C 
HETATM   19  O1  UNL     1      23.213   2.505  50.772  1.00  0.00    -0.345 OA
HETATM   20  C13 UNL     1      22.578   2.067  49.578  1.00  0.00     0.202 C 
HETATM   21  C14 UNL     1      21.104   1.772  49.815  1.00  0.00     0.201 C 
HETATM   22  O2  UNL     1      20.923   0.775  50.767  1.00  0.00    -0.361 OA
HETATM   23  C15 UNL     1      19.800   0.384  51.445  1.00  0.00     0.138 C 
HETATM   24  C17 UNL     1      19.530  -0.663  53.623  1.00  0.00     0.046 C 
ENDBRANCH  10  12
ENDBRANCH   7  10
TORSDOF 2
ENDMDL
MODEL 3
REMARK VINA RESULT:      -8.2      2.054      6.747
REMARK  2 active torsions:
REMARK  status: ('A' for Active; 'I' for Inactive)
REMARK    1  A    between atoms: C7_7  and  N1_8 
REMARK    2  A    between atoms: N1_8  and  C8_9 
ROOT
HETATM    1  C1  UNL     1      24.257   8.850  48.024  1.00  0.00     0.018 C 
HETATM    2  C2  UNL     1      25.019   7.931  48.188  1.00  0.00    -0.077 C 
HETATM    3  C3  UNL     1      25.925   6.839  48.403  1.00  0.00     0.025 A 
HETATM    4  C4  UNL     1      27.257   7.122  48.179  1.00  0.00     0.021 A 
HETATM    5  C5  UNL     1      28.160   6.100  48.377  1.00  0.00     0.004 A 
HETATM    6  C6  UNL     1      27.689   4.873  48.782  1.00  0.00     0.030 A 
HETATM    7  C7  UNL     1      26.383   4.557  49.012  1.00  0.00     0.041 A 
HETATM    8  C18 UNL     1      25.491   5.590  48.811  1.00  0.00    -0.017 A 
HETATM    9  C19 UNL     1      24.021   5.415  49.022  1.00  0.00     0.052 C 
ENDROOT
BRANCH   7  10
HETATM   10  N1  UNL     1      25.795   3.340  49.412  1.00  0.00    -0.339 N 
HETATM   11  H5  UNL     1      25.224   2.734  48.802  1.00  0.00     0.167 HD
BRANCH  10  12
HETATM   12  C8  UNL     1      26.012   2.942  50.745  1.00  0.00     0.156 C 
HETATM   13  N2  UNL     1      27.075   2.751  51.428  1.00  0.00    -0.269 NA
HETATM   14  C9  UNL     1      27.216   1.691  52.450  1.00  0.00     0.164 C 
HETATM   15  C10 UNL     1      25.880   1.138  52.682  1.00  0.00     0.061 C 
HETATM   16  C11 UNL     1      24.960   2.310  52.790  1.00  0.00     0.025 C 
HETATM   17  C16 UNL     1      25.605   0.331  53.874  1.00  0.00    -0.052 C 
HETATM   18  C12 UNL     1      24.812   2.690  51.522  1.00  0.00     0.111 C 
HETATM   19  O1  UNL     1      23.434   2.762  51.198  1.00  0.00    -0.345 OA
HETATM   20  C13 UNL     1      22.735   1.548  50.958  1.00  0.00     0.202 C 
HETATM   21  C14 UNL     1      22.675   0.690  52.214  1.00  0.00     0.201 C 
HETATM   22  O2  UNL     1      23.943   0.351  52.670  1.00  0.00    -0.361 OA
HETATM   23  C15 UNL     1      24.348  -0.179  53.865  1.00  0.00     0.138 C 
HETATM   24  C17 UNL     1      26.460  -0.007  55.058  1.00  0.00     0.046 C 
ENDBRANCH  10  12
ENDBRANCH   7  10
TORSDOF 2
ENDMDL
MODEL 4
REMARK VINA RESULT:      -8.1      2.249      7.117
REMARK  2 active torsions:
REMARK  status: ('A' for Active; 'I' for Inactive)
REMARK    1  A    between atoms: C7_7  and  N1_8 
REMARK    2  A    between atoms: N1_8  and  C8_9 
ROOT
HETATM    1  C1  UNL     1      26.657   8.335  46.605  1.00  0.00     0.018 C 
HETATM    2  C2  UNL     1      26.152   7.683  47.484  1.00  0.00    -0.077 C 
HETATM    3  C3  UNL     1      25.547   6.892  48.517  1.00  0.00     0.025 A 
HETATM    4  C4  UNL     1      24.280   7.286  48.899  1.00  0.00     0.021 A 
HETATM    5  C5  UNL     1      23.663   6.550  49.887  1.00  0.00     0.004 A 
HETATM    6  C6  UNL     1      24.335   5.479  50.429  1.00  0.00     0.030 A 
HETATM    7  C7  UNL     1      25.585   5.062  50.078  1.00  0.00     0.041 A 
HETATM    8  C18 UNL     1      26.190   5.807  49.087  1.00  0.00    -0.017 A 
HETATM    9  C19 UNL     1      27.560   5.484  48.582  1.00  0.00     0.052 C 
ENDROOT
BRANCH   7  10
HETATM   10  N1  UNL     1      26.365   3.997  50.574  1.00  0.00    -0.339 N 
HETATM   11  H5  UNL     1      27.385   4.036  50.725  1.00  0.00     0.167 HD
BRANCH  10  12
HETATM   12  C8  UNL     1      25.684   2.803  50.876  1.00  0.00     0.156 C 
HETATM   13  N2  UNL     1      24.495   2.401  50.634  1.00  0.00    -0.269 NA
HETATM   14  C9  UNL     1      23.703   1.569  51.566  1.00  0.00     0.164 C 
HETATM   15  C10 UNL     1      24.616   1.114  52.617  1.00  0.00     0.061 C 
HETATM   16  C11 UNL     1      25.859   0.666  51.920  1.00  0.00     0.025 C 
HETATM   17  C16 UNL     1      24.248  -0.004  53.489  1.00  0.00    -0.052 C 
HETATM   18  C12 UNL     1      26.455   1.815  51.607  1.00  0.00     0.111 C 
HETATM   19  O1  UNL     1      27.787   1.814  52.093  1.00  0.00    -0.345 OA
HETATM   20  C13 UNL     1      27.997   2.037  53.481  1.00  0.00     0.202 C 
HETATM   21  C14 UNL     1      27.403   0.909  54.314  1.00  0.00     0.201 C 
HETATM   22  O2  UNL     1      26.032   0.790  54.120  1.00  0.00    -0.361 OA
HETATM   23  C15 UNL     1      25.168  -0.214  54.464  1.00  0.00     0.138 C 
HETATM   24  C17 UNL     1      23.061  -0.919  53.476  1.00  0.00     0.046 C 
ENDBRANCH  10  12
ENDBRANCH   7  10
TORSDOF 2
ENDMDL
MODEL 5
REMARK VINA RESULT:      -7.9      2.265      3.303
REMARK  2 active torsions:
REMARK  status: ('A' for Active; 'I' for Inactive)
REMARK    1  A    between atoms: C7_7  and  N1_8 
REMARK    2  A    between atoms: N1_8  and  C8_9 
ROOT
HETATM    1  C1  UNL     1      22.174  -1.452  54.804  1.00  0.00     0.018 C 
HETATM    2  C2  UNL     1      22.945  -0.821  54.126  1.00  0.00    -0.077 C 
HETATM    3  C3  UNL     1      23.856  -0.080  53.302  1.00  0.00     0.025 A 
HETATM    4  C4  UNL     1      25.154  -0.549  53.284  1.00  0.00     0.021 A 
HETATM    5  C5  UNL     1      26.060   0.135  52.502  1.00  0.00     0.004 A 
HETATM    6  C6  UNL     1      25.625   1.230  51.793  1.00  0.00     0.030 A 
HETATM    7  C7  UNL     1      24.353   1.721  51.786  1.00  0.00     0.041 A 
HETATM    8  C18 UNL     1      23.458   1.027  52.572  1.00  0.00    -0.017 A 
HETATM    9  C19 UNL     1      22.021   1.430  52.677  1.00  0.00     0.052 C 
ENDROOT
BRANCH   7  10
HETATM   10  N1  UNL     1      23.807   2.834  51.113  1.00  0.00    -0.339 N 
HETATM   11  H5  UNL     1      22.861   3.212  51.275  1.00  0.00     0.167 HD
BRANCH  10  12
HETATM   12  C8  UNL     1      24.628   3.457  50.155  1.00  0.00     0.156 C 
HETATM   13  N2  UNL     1      25.684   3.077  49.542  1.00  0.00    -0.269 NA
HETATM   14  C9  UNL     1      26.802   3.980  49.195  1.00  0.00     0.164 C 
HETATM   15  C10 UNL     1      26.342   5.348  49.440  1.00  0.00     0.061 C 
HETATM   16  C11 UNL     1      24.968   5.432  48.863  1.00  0.00     0.025 C 
HETATM   17  C16 UNL     1      27.062   6.489  48.870  1.00  0.00    -0.052 C 
HETATM   18  C12 UNL     1      24.225   4.796  49.766  1.00  0.00     0.111 C 
HETATM   19  O1  UNL     1      23.147   5.622  50.172  1.00  0.00    -0.345 OA
HETATM   20  C13 UNL     1      23.416   6.681  51.080  1.00  0.00     0.202 C 
HETATM   21  C14 UNL     1      24.335   7.722  50.455  1.00  0.00     0.201 C 
HETATM   22  O2  UNL     1      25.559   7.175  50.086  1.00  0.00    -0.361 OA
HETATM   23  C15 UNL     1      26.553   7.675  49.289  1.00  0.00     0.138 C 
HETATM   24  C17 UNL     1      28.229   6.553  47.931  1.00  0.00     0.046 C 
ENDBRANCH  10  12
ENDBRANCH   7  10
TORSDOF 2
ENDMDL
MODEL 6
REMARK VINA RESULT:      -7.8      3.471      5.019
REMARK  2 active torsions:
REMARK  status: ('A' for Active; 'I' for Inactive)
REMARK    1  A    between atoms: C7_7  and  N1_8 
REMARK    2  A    between atoms: N1_8  and  C8_9 
ROOT
HETATM    1  C1  UNL     1      18.289  -1.045  53.033  1.00  0.00     0.018 C 
HETATM    2  C2  UNL     1      19.436  -0.686  53.128  1.00  0.00    -0.077 C 
HETATM    3  C3  UNL     1      20.803  -0.261  53.221  1.00  0.00     0.025 A 
HETATM    4  C4  UNL     1      21.676  -1.188  53.755  1.00  0.00     0.021 A 
HETATM    5  C5  UNL     1      23.000  -0.820  53.859  1.00  0.00     0.004 A 
HETATM    6  C6  UNL     1      23.371   0.433  53.431  1.00  0.00     0.030 A 
HETATM    7  C7  UNL     1      22.539   1.373  52.900  1.00  0.00     0.041 A 
HETATM    8  C18 UNL     1      21.218   0.990  52.801  1.00  0.00    -0.017 A 
HETATM    9  C19 UNL     1      20.173   1.901  52.238  1.00  0.00     0.052 C 
ENDROOT
BRANCH   7  10
HETATM   10  N1  UNL     1      22.810   2.681  52.446  1.00  0.00    -0.339 N 
HETATM   11  H5  UNL     1      22.322   3.529  52.772  1.00  0.00     0.167 HD
BRANCH  10  12
HETATM   12  C8  UNL     1      23.820   2.815  51.476  1.00  0.00     0.156 C 
HETATM   13  N2  UNL     1      25.011   2.358  51.399  1.00  0.00    -0.269 NA
HETATM   14  C9  UNL     1      26.143   3.107  50.813  1.00  0.00     0.164 C 
HETATM   15  C10 UNL     1      25.581   4.281  50.142  1.00  0.00     0.061 C 
HETATM   16  C11 UNL     1      24.395   3.791  49.377  1.00  0.00     0.025 C 
HETATM   17  C16 UNL     1      26.374   5.034  49.167  1.00  0.00    -0.052 C 
HETATM   18  C12 UNL     1      23.474   3.630  50.325  1.00  0.00     0.111 C 
HETATM   19  O1  UNL     1      22.296   4.337  49.978  1.00  0.00    -0.345 OA
HETATM   20  C13 UNL     1      22.282   5.748  50.149  1.00  0.00     0.202 C 
HETATM   21  C14 UNL     1      23.286   6.423  49.225  1.00  0.00     0.201 C 
HETATM   22  O2  UNL     1      24.585   5.991  49.469  1.00  0.00    -0.361 OA
HETATM   23  C15 UNL     1      25.727   6.143  48.731  1.00  0.00     0.138 C 
HETATM   24  C17 UNL     1      27.737   4.782  48.597  1.00  0.00     0.046 C 
ENDBRANCH  10  12
ENDBRANCH   7  10
TORSDOF 2
ENDMDL
MODEL 7
REMARK VINA RESULT:      -7.8      1.741      2.494
REMARK  2 active torsions:
REMARK  status: ('A' for Active; 'I' for Inactive)
REMARK    1  A    between atoms: C7_7  and  N1_8 
REMARK    2  A    between atoms: N1_8  and  C8_9 
ROOT
HETATM    1  C1  UNL     1      29.586  -0.860  53.572  1.00  0.00     0.018 C 
HETATM    2  C2  UNL     1      28.446  -0.503  53.415  1.00  0.00    -0.077 C 
HETATM    3  C3  UNL     1      27.088  -0.070  53.248  1.00  0.00     0.025 A 
HETATM    4  C4  UNL     1      26.137  -1.069  53.299  1.00  0.00     0.021 A 
HETATM    5  C5  UNL     1      24.820  -0.694  53.145  1.00  0.00     0.004 A 
HETATM    6  C6  UNL     1      24.532   0.637  52.951  1.00  0.00     0.030 A 
HETATM    7  C7  UNL     1      25.443   1.649  52.894  1.00  0.00     0.041 A 
HETATM    8  C18 UNL     1      26.757   1.259  53.051  1.00  0.00    -0.017 A 
HETATM    9  C19 UNL     1      27.882   2.245  53.017  1.00  0.00     0.052 C 
ENDROOT
BRANCH   7  10
HETATM   10  N1  UNL     1      25.260   3.032  52.688  1.00  0.00    -0.339 N 
HETATM   11  H5  UNL     1      25.329   3.751  53.425  1.00  0.00     0.167 HD
BRANCH  10  12
HETATM   12  C8  UNL     1      24.960   3.440  51.375  1.00  0.00     0.156 C 
HETATM   13  N2  UNL     1      25.690   3.843  50.406  1.00  0.00    -0.269 NA
HETATM   14  C9  UNL     1      25.276   4.887  49.444  1.00  0.00     0.164 C 
HETATM   15  C10 UNL     1      23.849   5.133  49.663  1.00  0.00     0.061 C 
HETATM   16  C11 UNL     1      23.213   3.787  49.789  1.00  0.00     0.025 C 
HETATM   17  C16 UNL     1      23.051   5.836  48.656  1.00  0.00    -0.052 C 
HETATM   18  C12 UNL     1      23.553   3.410  51.020  1.00  0.00     0.111 C 
HETATM   19  O1  UNL     1      22.393   3.049  51.750  1.00  0.00    -0.345 OA
HETATM   20  C13 UNL     1      21.564   4.087  52.254  1.00  0.00     0.202 C 
HETATM   21  C14 UNL     1      20.933   4.885  51.122  1.00  0.00     0.201 C 
HETATM   22  O2  UNL     1      21.893   5.481  50.313  1.00  0.00    -0.361 OA
HETATM   23  C15 UNL     1      21.782   6.062  49.078  1.00  0.00     0.138 C 
HETATM   24  C17 UNL     1      23.401   6.328  47.284  1.00  0.00     0.046 C 
ENDBRANCH  10  12
ENDBRANCH   7  10
TORSDOF 2
ENDMDL
MODEL 8
REMARK VINA RESULT:      -7.6      3.337      7.075
REMARK  2 active torsions:
REMARK  status: ('A' for Active; 'I' for Inactive)
REMARK    1  A    between atoms: C7_7  and  N1_8 
REMARK    2  A    between atoms: N1_8  and  C8_9 
ROOT
HETATM    1  C1  UNL     1      25.066   7.889  48.271  1.00  0.00     0.018 C 
HETATM    2  C2  UNL     1      25.272   6.830  48.810  1.00  0.00    -0.077 C 
HETATM    3  C3  UNL     1      25.527   5.581  49.466  1.00  0.00     0.025 A 
HETATM    4  C4  UNL     1      26.516   4.804  48.897  1.00  0.00     0.021 A 
HETATM    5  C5  UNL     1      26.792   3.596  49.500  1.00  0.00     0.004 A 
HETATM    6  C6  UNL     1      26.078   3.238  50.619  1.00  0.00     0.030 A 
HETATM    7  C7  UNL     1      25.095   3.978  51.207  1.00  0.00     0.041 A 
HETATM    8  C18 UNL     1      24.830   5.184  50.594  1.00  0.00    -0.017 A 
HETATM    9  C19 UNL     1      23.784   6.120  51.113  1.00  0.00     0.052 C 
ENDROOT
BRANCH   7  10
HETATM   10  N1  UNL     1      24.297   3.703  52.337  1.00  0.00    -0.339 N 
HETATM   11  H5  UNL     1      24.452   4.099  53.277  1.00  0.00     0.167 HD
BRANCH  10  12
HETATM   12  C8  UNL     1      23.218   2.819  52.147  1.00  0.00     0.156 C 
HETATM   13  N2  UNL     1      21.982   3.008  51.883  1.00  0.00    -0.269 NA
HETATM   14  C9  UNL     1      20.888   2.174  52.426  1.00  0.00     0.164 C 
HETATM   15  C10 UNL     1      21.510   1.008  53.057  1.00  0.00     0.061 C 
HETATM   16  C11 UNL     1      22.554   0.529  52.102  1.00  0.00     0.025 C 
HETATM   17  C16 UNL     1      20.714  -0.181  53.373  1.00  0.00    -0.052 C 
HETATM   18  C12 UNL     1      23.539   1.409  52.271  1.00  0.00     0.111 C 
HETATM   19  O1  UNL     1      24.749   0.729  52.557  1.00  0.00    -0.345 OA
HETATM   20  C13 UNL     1      24.936   0.208  53.866  1.00  0.00     0.202 C 
HETATM   21  C14 UNL     1      23.928  -0.893  54.168  1.00  0.00     0.201 C 
HETATM   22  O2  UNL     1      22.620  -0.430  54.092  1.00  0.00    -0.361 OA
HETATM   23  C15 UNL     1      21.435  -1.113  54.045  1.00  0.00     0.138 C 
HETATM   24  C17 UNL     1      19.282  -0.518  53.083  1.00  0.00     0.046 C 
ENDBRANCH  10  12
ENDBRANCH   7  10
TORSDOF 2
ENDMDL
MODEL 9
REMARK VINA RESULT:      -7.4      4.374      7.001
REMARK  2 active torsions:
REMARK  status: ('A' for Active; 'I' for Inactive)
REMARK    1  A    between atoms: C7_7  and  N1_8 
REMARK    2  A    between atoms: N1_8  and  C8_9 
ROOT
HETATM    1  C1  UNL     1      26.355   5.871  48.714  1.00  0.00     0.018 C 
HETATM    2  C2  UNL     1      26.071   4.945  49.432  1.00  0.00    -0.077 C 
HETATM    3  C3  UNL     1      25.738   3.855  50.303  1.00  0.00     0.025 A 
HETATM    4  C4  UNL     1      26.689   2.858  50.393  1.00  0.00     0.021 A 
HETATM    5  C5  UNL     1      26.408   1.793  51.222  1.00  0.00     0.004 A 
HETATM    6  C6  UNL     1      25.213   1.784  51.902  1.00  0.00     0.030 A 
HETATM    7  C7  UNL     1      24.252   2.748  51.836  1.00  0.00     0.041 A 
HETATM    8  C18 UNL     1      24.547   3.808  51.005  1.00  0.00    -0.017 A 
HETATM    9  C19 UNL     1      23.602   4.953  50.820  1.00  0.00     0.052 C 
ENDROOT
BRANCH   7  10
HETATM   10  N1  UNL     1      22.996   2.832  52.474  1.00  0.00    -0.339 N 
HETATM   11  H5  UNL     1      22.810   3.362  53.340  1.00  0.00     0.167 HD
BRANCH  10  12
HETATM   12  C8  UNL     1      21.934   2.133  51.870  1.00  0.00     0.156 C 
HETATM   13  N2  UNL     1      21.025   2.487  51.044  1.00  0.00    -0.269 NA
HETATM   14  C9  UNL     1      19.640   1.969  51.075  1.00  0.00     0.164 C 
HETATM   15  C10 UNL     1      19.623   0.843  52.011  1.00  0.00     0.061 C 
HETATM   16  C11 UNL     1      20.832   0.025  51.696  1.00  0.00     0.025 C 
HETATM   17  C16 UNL     1      18.510  -0.110  52.009  1.00  0.00    -0.052 C 
HETATM   18  C12 UNL     1      21.821   0.734  52.239  1.00  0.00     0.111 C 
HETATM   19  O1  UNL     1      22.581  -0.087  53.109  1.00  0.00    -0.345 OA
HETATM   20  C13 UNL     1      22.042  -0.390  54.389  1.00  0.00     0.202 C 
HETATM   21  C14 UNL     1      20.774  -1.224  54.269  1.00  0.00     0.201 C 
HETATM   22  O2  UNL     1      19.785  -0.559  53.553  1.00  0.00    -0.361 OA
HETATM   23  C15 UNL     1      18.617  -1.020  53.010  1.00  0.00     0.138 C 
HETATM   24  C17 UNL     1      17.318  -0.235  51.109  1.00  0.00     0.046 C 
ENDBRANCH  10  12
ENDBRANCH   7  10
TORSDOF 2
ENDMDL
