MODEL 1
REMARK VINA RESULT:      -8.2      0.000      0.000
REMARK  4 active torsions:
REMARK  status: ('A' for Active; 'I' for Inactive)
REMARK    1  A    between atoms: C2_2  and  C3_3 
REMARK    2  A    between atoms: C2_2  and  N2_8 
REMARK    3  A    between atoms: C3_3  and  S1_4 
REMARK       I    between atoms: N2_8  and  C6_9 
REMARK       I    between atoms: C6_9  and  N3_11 
REMARK    4  A    between atoms: N3_11  and  C7_12 
ROOT
HETATM    1  C7  UNL     1      26.250   4.107  49.427  1.00  0.00     0.064 C 
HETATM    2  C8  UNL     1      27.515   4.410  49.014  1.00  0.00     0.031 C 
HETATM    3  C9  UNL     1      28.191   5.532  48.372  1.00  0.00     0.026 C 
HETATM    4  C10 UNL     1      28.021   6.715  47.897  1.00  0.00     0.135 C 
HETATM    5  O2  UNL     1      27.296   7.847  47.571  1.00  0.00    -0.361 OA
HETATM    6  C11 UNL     1      27.403   9.105  48.096  1.00  0.00     0.200 C 
HETATM    7  C12 UNL     1      26.408  10.161  47.900  1.00  0.00     0.194 C 
HETATM    8  O3  UNL     1      25.146  10.205  48.236  1.00  0.00    -0.389 OA
HETATM    9  C13 UNL     1      24.072   9.492  47.942  1.00  0.00     0.173 C 
HETATM   10  C14 UNL     1      23.984   8.099  48.509  1.00  0.00     0.024 C 
HETATM   11  C15 UNL     1      23.695   8.128  49.977  1.00  0.00     0.038 A 
HETATM   12  C16 UNL     1      24.068   7.721  51.240  1.00  0.00    -0.022 A 
HETATM   13  C17 UNL     1      25.021   7.151  50.292  1.00  0.00     0.177 A 
HETATM   14  O4  UNL     1      24.936   5.786  50.302  1.00  0.00    -0.357 OA
HETATM   15  C18 UNL     1      25.312   5.172  49.153  1.00  0.00     0.294 C 
HETATM   16  N4  UNL     1      23.972   4.772  48.641  1.00  0.00    -0.268 NA
HETATM   17  C19 UNL     1      23.261   5.780  48.167  1.00  0.00     0.087 C 
HETATM   18  C20 UNL     1      22.954   7.222  47.794  1.00  0.00     0.054 C 
ENDROOT
BRANCH   1  19
HETATM   19  N3  UNL     1      25.709   2.978  50.045  1.00  0.00    -0.308 N 
HETATM   20  C6  UNL     1      26.287   2.360  51.186  1.00  0.00     0.321 C 
HETATM   21  N2  UNL     1      25.588   1.219  51.667  1.00  0.00    -0.328 N 
HETATM   22  O1  UNL     1      27.294   2.604  51.870  1.00  0.00    -0.247 OA
HETATM   23  H9  UNL     1      24.702   0.869  51.198  1.00  0.00     0.165 HD
HETATM   24  H10 UNL     1      24.852   2.629  49.602  1.00  0.00     0.170 HD
BRANCH  21  25
HETATM   25  C2  UNL     1      26.001   0.422  52.832  1.00  0.00     0.160 C 
HETATM   26  C1  UNL     1      26.875  -0.727  52.326  1.00  0.00     0.046 C 
BRANCH  25  27
HETATM   27  C3  UNL     1      24.841  -0.081  53.478  1.00  0.00    -0.079 C 
BRANCH  27  28
HETATM   28  S1  UNL     1      23.809  -0.507  54.038  1.00  0.00     0.012 SA
HETATM   29  C4  UNL     1      22.565  -1.004  54.686  1.00  0.00     0.128 A 
HETATM   30  C5  UNL     1      23.424  -1.455  55.614  1.00  0.00     0.292 A 
HETATM   31  N1  UNL     1      24.860  -1.291  55.578  1.00  0.00    -0.016 N 
HETATM   32  H7  UNL     1      25.732  -0.700  55.671  1.00  0.00     0.292 HD
HETATM   33  H8  UNL     1      25.729  -0.701  55.671  1.00  0.00     0.292 HD
ENDBRANCH  27  28
ENDBRANCH  25  27
ENDBRANCH  21  25
ENDBRANCH   1  19
TORSDOF 4
ENDMDL
MODEL 2
REMARK VINA RESULT:      -8.0      3.750      8.634
REMARK  4 active torsions:
REMARK  status: ('A' for Active; 'I' for Inactive)
REMARK    1  A    between atoms: C2_2  and  C3_3 
REMARK    2  A    between atoms: C2_2  and  N2_8 
REMARK    3  A    between atoms: C3_3  and  S1_4 
REMARK       I    between atoms: N2_8  and  C6_9 
REMARK       I    between atoms: C6_9  and  N3_11 
REMARK    4  A    between atoms: N3_11  and  C7_12 
ROOT
HETATM    1  C7  UNL     1      24.897   4.263  49.264  1.00  0.00     0.064 C 
HETATM    2  C8  UNL     1      23.713   4.031  48.627  1.00  0.00     0.031 C 
HETATM    3  C9  UNL     1      22.631   3.056  48.701  1.00  0.00     0.026 C 
HETATM    4  C10 UNL     1      22.216   2.007  49.320  1.00  0.00     0.135 C 
HETATM    5  O2  UNL     1      22.283   0.991  50.256  1.00  0.00    -0.361 OA
HETATM    6  C11 UNL     1      21.483   0.787  51.346  1.00  0.00     0.200 C 
HETATM    7  C12 UNL     1      21.803  -0.140  52.434  1.00  0.00     0.194 C 
HETATM    8  O3  UNL     1      22.813  -0.153  53.261  1.00  0.00    -0.389 OA
HETATM    9  C13 UNL     1      24.126  -0.248  53.137  1.00  0.00     0.173 C 
HETATM   10  C14 UNL     1      24.858   0.932  52.552  1.00  0.00     0.024 C 
HETATM   11  C15 UNL     1      24.925   2.066  53.527  1.00  0.00     0.038 A 
HETATM   12  C16 UNL     1      24.678   3.400  53.771  1.00  0.00    -0.022 A 
HETATM   13  C17 UNL     1      24.270   3.119  52.398  1.00  0.00     0.177 A 
HETATM   14  O4  UNL     1      25.047   3.825  51.522  1.00  0.00    -0.357 OA
HETATM   15  C18 UNL     1      25.173   3.280  50.287  1.00  0.00     0.294 C 
HETATM   16  N4  UNL     1      26.574   2.784  50.382  1.00  0.00    -0.268 NA
HETATM   17  C19 UNL     1      26.709   1.713  51.145  1.00  0.00     0.087 C 
HETATM   18  C20 UNL     1      26.266   0.584  52.062  1.00  0.00     0.054 C 
ENDROOT
BRANCH   1  19
HETATM   19  N3  UNL     1      25.871   5.250  49.105  1.00  0.00    -0.308 N 
HETATM   20  C6  UNL     1      25.816   6.513  49.755  1.00  0.00     0.321 C 
HETATM   21  N2  UNL     1      26.903   7.383  49.464  1.00  0.00    -0.328 N 
HETATM   22  O1  UNL     1      25.007   7.035  50.538  1.00  0.00    -0.247 OA
HETATM   23  H9  UNL     1      27.688   7.096  48.810  1.00  0.00     0.165 HD
HETATM   24  H10 UNL     1      26.636   4.986  48.476  1.00  0.00     0.170 HD
BRANCH  21  25
HETATM   25  C2  UNL     1      27.054   8.736  50.020  1.00  0.00     0.160 C 
HETATM   26  C1  UNL     1      25.956   9.615  49.420  1.00  0.00     0.046 C 
BRANCH  25  27
HETATM   27  C3  UNL     1      28.338   9.234  49.670  1.00  0.00    -0.079 C 
BRANCH  27  28
HETATM   28  S1  UNL     1      29.467   9.658  49.345  1.00  0.00     0.012 SA
HETATM   29  C4  UNL     1      30.803  10.186  48.957  1.00  0.00     0.128 A 
HETATM   30  C5  UNL     1      31.164   8.898  49.073  1.00  0.00     0.292 A 
HETATM   31  N1  UNL     1      30.286   7.810  49.443  1.00  0.00    -0.016 N 
HETATM   32  H7  UNL     1      29.506   7.130  49.228  1.00  0.00     0.292 HD
HETATM   33  H8  UNL     1      29.508   7.132  49.228  1.00  0.00     0.292 HD
ENDBRANCH  27  28
ENDBRANCH  25  27
ENDBRANCH  21  25
ENDBRANCH   1  19
TORSDOF 4
ENDMDL
MODEL 3
REMARK VINA RESULT:      -7.8      3.898      8.542
REMARK  4 active torsions:
REMARK  status: ('A' for Active; 'I' for Inactive)
REMARK    1  A    between atoms: C2_2  and  C3_3 
REMARK    2  A    between atoms: C2_2  and  N2_8 
REMARK    3  A    between atoms: C3_3  and  S1_4 
REMARK       I    between atoms: N2_8  and  C6_9 
REMARK       I    between atoms: C6_9  and  N3_11 
REMARK    4  A    between atoms: N3_11  and  C7_12 
ROOT
HETATM    1  C7  UNL     1      25.232   3.581  50.275  1.00  0.00     0.064 C 
HETATM    2  C8  UNL     1      26.180   2.859  50.939  1.00  0.00     0.031 C 
HETATM    3  C9  UNL     1      26.216   1.864  52.005  1.00  0.00     0.026 C 
HETATM    4  C10 UNL     1      25.487   1.182  52.817  1.00  0.00     0.135 C 
HETATM    5  O2  UNL     1      24.301   0.764  53.393  1.00  0.00    -0.361 OA
HETATM    6  C11 UNL     1      23.717  -0.471  53.334  1.00  0.00     0.200 C 
HETATM    7  C12 UNL     1      22.333  -0.741  53.726  1.00  0.00     0.194 C 
HETATM    8  O3  UNL     1      21.213  -0.268  53.250  1.00  0.00    -0.389 OA
HETATM    9  C13 UNL     1      20.676   0.936  53.136  1.00  0.00     0.173 C 
HETATM   10  C14 UNL     1      21.287   1.880  52.133  1.00  0.00     0.024 C 
HETATM   11  C15 UNL     1      20.947   1.478  50.732  1.00  0.00     0.038 A 
HETATM   12  C16 UNL     1      21.409   1.164  49.472  1.00  0.00    -0.022 A 
HETATM   13  C17 UNL     1      22.568   1.478  50.302  1.00  0.00     0.177 A 
HETATM   14  O4  UNL     1      23.197   2.597  49.829  1.00  0.00    -0.357 OA
HETATM   15  C18 UNL     1      23.897   3.304  50.751  1.00  0.00     0.294 C 
HETATM   16  N4  UNL     1      22.983   4.469  50.908  1.00  0.00    -0.268 NA
HETATM   17  C19 UNL     1      21.880   4.195  51.583  1.00  0.00     0.087 C 
HETATM   18  C20 UNL     1      20.895   3.341  52.365  1.00  0.00     0.054 C 
ENDROOT
BRANCH   1  19
HETATM   19  N3  UNL     1      25.318   4.524  49.249  1.00  0.00    -0.308 N 
HETATM   20  C6  UNL     1      25.485   5.916  49.479  1.00  0.00     0.321 C 
HETATM   21  N2  UNL     1      25.549   6.714  48.304  1.00  0.00    -0.328 N 
HETATM   22  O1  UNL     1      25.591   6.604  50.508  1.00  0.00    -0.247 OA
HETATM   23  H9  UNL     1      25.475   6.287  47.335  1.00  0.00     0.165 HD
HETATM   24  H10 UNL     1      25.249   4.125  48.307  1.00  0.00     0.170 HD
BRANCH  21  25
HETATM   25  C2  UNL     1      25.718   8.175  48.301  1.00  0.00     0.160 C 
HETATM   26  C1  UNL     1      25.011   8.725  47.061  1.00  0.00     0.046 C 
BRANCH  25  27
HETATM   27  C3  UNL     1      27.105   8.476  48.258  1.00  0.00    -0.079 C 
BRANCH  27  28
HETATM   28  S1  UNL     1      28.329   8.728  48.239  1.00  0.00     0.012 SA
HETATM   29  C4  UNL     1      29.786   9.022  48.192  1.00  0.00     0.128 A 
HETATM   30  C5  UNL     1      29.587   9.389  49.469  1.00  0.00     0.292 A 
HETATM   31  N1  UNL     1      28.321   9.344  50.166  1.00  0.00    -0.016 N 
HETATM   32  H7  UNL     1      27.539   8.815  50.642  1.00  0.00     0.292 HD
HETATM   33  H8  UNL     1      27.541   8.816  50.641  1.00  0.00     0.292 HD
ENDBRANCH  27  28
ENDBRANCH  25  27
ENDBRANCH  21  25
ENDBRANCH   1  19
TORSDOF 4
ENDMDL
MODEL 4
REMARK VINA RESULT:      -7.7      4.893      7.957
REMARK  4 active torsions:
REMARK  status: ('A' for Active; 'I' for Inactive)
REMARK    1  A    between atoms: C2_2  and  C3_3 
REMARK    2  A    between atoms: C2_2  and  N2_8 
REMARK    3  A    between atoms: C3_3  and  S1_4 
REMARK       I    between atoms: N2_8  and  C6_9 
REMARK       I    between atoms: C6_9  and  N3_11 
REMARK    4  A    between atoms: N3_11  and  C7_12 
ROOT
HETATM    1  C7  UNL     1      29.898   6.593  47.635  1.00  0.00     0.064 C 
HETATM    2  C8  UNL     1      29.904   7.439  46.565  1.00  0.00     0.031 C 
HETATM    3  C9  UNL     1      30.795   7.750  45.452  1.00  0.00     0.026 C 
HETATM    4  C10 UNL     1      31.921   7.452  44.905  1.00  0.00     0.135 C 
HETATM    5  O2  UNL     1      33.116   6.767  44.782  1.00  0.00    -0.361 OA
HETATM    6  C11 UNL     1      33.494   5.885  43.808  1.00  0.00     0.200 C 
HETATM    7  C12 UNL     1      34.652   4.996  43.913  1.00  0.00     0.194 C 
HETATM    8  O3  UNL     1      34.913   4.048  44.773  1.00  0.00    -0.389 OA
HETATM    9  C13 UNL     1      35.071   3.989  46.084  1.00  0.00     0.173 C 
HETATM   10  C14 UNL     1      33.847   4.176  46.943  1.00  0.00     0.024 C 
HETATM   11  C15 UNL     1      32.956   2.975  46.887  1.00  0.00     0.038 A 
HETATM   12  C16 UNL     1      31.692   2.480  46.649  1.00  0.00    -0.022 A 
HETATM   13  C17 UNL     1      31.642   3.927  46.463  1.00  0.00     0.177 A 
HETATM   14  O4  UNL     1      30.820   4.494  47.397  1.00  0.00    -0.357 OA
HETATM   15  C18 UNL     1      31.094   5.786  47.705  1.00  0.00     0.294 C 
HETATM   16  N4  UNL     1      31.696   5.591  49.054  1.00  0.00    -0.268 NA
HETATM   17  C19 UNL     1      32.912   5.074  49.025  1.00  0.00     0.087 C 
HETATM   18  C20 UNL     1      34.178   4.512  48.399  1.00  0.00     0.054 C 
ENDROOT
BRANCH   1  19
HETATM   19  N3  UNL     1      28.970   6.376  48.656  1.00  0.00    -0.308 N 
HETATM   20  C6  UNL     1      27.582   6.644  48.518  1.00  0.00     0.321 C 
HETATM   21  N2  UNL     1      26.800   6.359  49.671  1.00  0.00    -0.328 N 
HETATM   22  O1  UNL     1      26.885   7.084  47.588  1.00  0.00    -0.247 OA
HETATM   23  H9  UNL     1      27.235   5.976  50.559  1.00  0.00     0.165 HD
HETATM   24  H10 UNL     1      29.378   6.005  49.520  1.00  0.00     0.170 HD
BRANCH  21  25
HETATM   25  C2  UNL     1      25.345   6.559  49.758  1.00  0.00     0.160 C 
HETATM   26  C1  UNL     1      25.096   7.848  50.543  1.00  0.00     0.046 C 
BRANCH  25  27
HETATM   27  C3  UNL     1      24.770   5.447  50.430  1.00  0.00    -0.079 C 
BRANCH  27  28
HETATM   28  S1  UNL     1      24.270   4.457  51.004  1.00  0.00     0.012 SA
HETATM   29  C4  UNL     1      23.679   3.263  51.666  1.00  0.00     0.128 A 
HETATM   30  C5  UNL     1      23.519   4.115  52.692  1.00  0.00     0.292 A 
HETATM   31  N1  UNL     1      23.907   5.507  52.694  1.00  0.00    -0.016 N 
HETATM   32  H7  UNL     1      23.771   6.512  52.394  1.00  0.00     0.292 HD
HETATM   33  H8  UNL     1      23.771   6.509  52.394  1.00  0.00     0.292 HD
ENDBRANCH  27  28
ENDBRANCH  25  27
ENDBRANCH  21  25
ENDBRANCH   1  19
TORSDOF 4
ENDMDL
MODEL 5
REMARK VINA RESULT:      -7.7      4.529      7.491
REMARK  4 active torsions:
REMARK  status: ('A' for Active; 'I' for Inactive)
REMARK    1  A    between atoms: C2_2  and  C3_3 
REMARK    2  A    between atoms: C2_2  and  N2_8 
REMARK    3  A    between atoms: C3_3  and  S1_4 
REMARK       I    between atoms: N2_8  and  C6_9 
REMARK       I    between atoms: C6_9  and  N3_11 
REMARK    4  A    between atoms: N3_11  and  C7_12 
ROOT
HETATM    1  C7  UNL     1      27.316   5.468  48.653  1.00  0.00     0.064 C 
HETATM    2  C8  UNL     1      27.274   4.148  48.996  1.00  0.00     0.031 C 
HETATM    3  C9  UNL     1      26.357   3.252  49.692  1.00  0.00     0.026 C 
HETATM    4  C10 UNL     1      25.221   3.187  50.293  1.00  0.00     0.135 C 
HETATM    5  O2  UNL     1      24.028   3.685  50.784  1.00  0.00    -0.361 OA
HETATM    6  C11 UNL     1      22.755   3.394  50.378  1.00  0.00     0.200 C 
HETATM    7  C12 UNL     1      21.577   4.179  50.752  1.00  0.00     0.194 C 
HETATM    8  O3  UNL     1      21.288   5.431  50.520  1.00  0.00    -0.389 OA
HETATM    9  C13 UNL     1      21.842   6.593  50.823  1.00  0.00     0.173 C 
HETATM   10  C14 UNL     1      23.130   6.954  50.130  1.00  0.00     0.024 C 
HETATM   11  C15 UNL     1      22.892   7.318  48.698  1.00  0.00     0.038 A 
HETATM   12  C16 UNL     1      23.214   7.095  47.377  1.00  0.00    -0.022 A 
HETATM   13  C17 UNL     1      24.035   6.201  48.188  1.00  0.00     0.177 A 
HETATM   14  O4  UNL     1      25.357   6.522  48.051  1.00  0.00    -0.357 OA
HETATM   15  C18 UNL     1      26.148   6.190  49.101  1.00  0.00     0.294 C 
HETATM   16  N4  UNL     1      26.374   7.547  49.673  1.00  0.00    -0.268 NA
HETATM   17  C19 UNL     1      25.321   8.045  50.297  1.00  0.00     0.087 C 
HETATM   18  C20 UNL     1      23.898   8.076  50.832  1.00  0.00     0.054 C 
ENDROOT
BRANCH   1  19
HETATM   19  N3  UNL     1      28.265   6.231  47.971  1.00  0.00    -0.308 N 
HETATM   20  C6  UNL     1      29.655   6.192  48.263  1.00  0.00     0.321 C 
HETATM   21  N2  UNL     1      30.460   7.043  47.458  1.00  0.00    -0.328 N 
HETATM   22  O1  UNL     1      30.336   5.561  49.089  1.00  0.00    -0.247 OA
HETATM   23  H9  UNL     1      30.040   7.655  46.700  1.00  0.00     0.165 HD
HETATM   24  H10 UNL     1      27.873   6.826  47.234  1.00  0.00     0.170 HD
BRANCH  21  25
HETATM   25  C2  UNL     1      31.921   7.167  47.583  1.00  0.00     0.160 C 
HETATM   26  C1  UNL     1      32.349   8.428  46.831  1.00  0.00     0.046 C 
BRANCH  25  27
HETATM   27  C3  UNL     1      32.529   6.017  47.015  1.00  0.00    -0.079 C 
BRANCH  27  28
HETATM   28  S1  UNL     1      33.045   4.993  46.520  1.00  0.00     0.012 SA
HETATM   29  C4  UNL     1      33.664   3.786  45.908  1.00  0.00     0.128 A 
HETATM   30  C5  UNL     1      33.412   3.247  47.112  1.00  0.00     0.292 A 
HETATM   31  N1  UNL     1      32.787   3.931  48.222  1.00  0.00    -0.016 N 
HETATM   32  H7  UNL     1      31.941   4.346  48.703  1.00  0.00     0.292 HD
HETATM   33  H8  UNL     1      31.943   4.344  48.701  1.00  0.00     0.292 HD
ENDBRANCH  27  28
ENDBRANCH  25  27
ENDBRANCH  21  25
ENDBRANCH   1  19
TORSDOF 4
ENDMDL
MODEL 6
REMARK VINA RESULT:      -7.6      5.893      8.106
REMARK  4 active torsions:
REMARK  status: ('A' for Active; 'I' for Inactive)
REMARK    1  A    between atoms: C2_2  and  C3_3 
REMARK    2  A    between atoms: C2_2  and  N2_8 
REMARK    3  A    between atoms: C3_3  and  S1_4 
REMARK       I    between atoms: N2_8  and  C6_9 
REMARK       I    between atoms: C6_9  and  N3_11 
REMARK    4  A    between atoms: N3_11  and  C7_12 
ROOT
HETATM    1  C7  UNL     1      20.695   2.120  52.297  1.00  0.00     0.064 C 
HETATM    2  C8  UNL     1      21.155   1.132  53.118  1.00  0.00     0.031 C 
HETATM    3  C9  UNL     1      22.420   0.452  53.370  1.00  0.00     0.026 C 
HETATM    4  C10 UNL     1      23.659   0.396  53.024  1.00  0.00     0.135 C 
HETATM    5  O2  UNL     1      24.780   0.765  52.304  1.00  0.00    -0.361 OA
HETATM    6  C11 UNL     1      25.920   1.369  52.758  1.00  0.00     0.200 C 
HETATM    7  C12 UNL     1      26.925   1.980  51.886  1.00  0.00     0.194 C 
HETATM    8  O3  UNL     1      26.821   2.971  51.043  1.00  0.00    -0.389 OA
HETATM    9  C13 UNL     1      26.106   3.206  49.955  1.00  0.00     0.173 C 
HETATM   10  C14 UNL     1      24.628   3.440  50.129  1.00  0.00     0.024 C 
HETATM   11  C15 UNL     1      24.359   4.786  50.726  1.00  0.00     0.038 A 
HETATM   12  C16 UNL     1      23.745   5.507  51.728  1.00  0.00    -0.022 A 
HETATM   13  C17 UNL     1      23.430   4.098  51.942  1.00  0.00     0.177 A 
HETATM   14  O4  UNL     1      22.086   3.890  51.803  1.00  0.00    -0.357 OA
HETATM   15  C18 UNL     1      21.727   2.637  51.428  1.00  0.00     0.294 C 
HETATM   16  N4  UNL     1      21.344   2.907  50.015  1.00  0.00    -0.268 NA
HETATM   17  C19 UNL     1      22.373   3.126  49.215  1.00  0.00     0.087 C 
HETATM   18  C20 UNL     1      23.836   3.280  48.829  1.00  0.00     0.054 C 
ENDROOT
BRANCH   1  19
HETATM   19  N3  UNL     1      19.436   2.702  52.142  1.00  0.00    -0.308 N 
HETATM   20  C6  UNL     1      18.311   2.003  51.628  1.00  0.00     0.321 C 
HETATM   21  N2  UNL     1      17.116   2.770  51.545  1.00  0.00    -0.328 N 
HETATM   22  O1  UNL     1      18.139   0.841  51.225  1.00  0.00    -0.247 OA
HETATM   23  H9  UNL     1      17.084   3.786  51.848  1.00  0.00     0.165 HD
HETATM   24  H10 UNL     1      19.390   3.684  52.432  1.00  0.00     0.170 HD
BRANCH  21  25
HETATM   25  C2  UNL     1      15.832   2.256  51.044  1.00  0.00     0.160 C 
HETATM   26  C1  UNL     1      15.664   2.740  49.603  1.00  0.00     0.046 C 
BRANCH  25  27
HETATM   27  C3  UNL     1      14.787   2.758  51.864  1.00  0.00    -0.079 C 
BRANCH  27  28
HETATM   28  S1  UNL     1      13.854   3.200  52.568  1.00  0.00     0.012 SA
HETATM   29  C4  UNL     1      12.727   3.712  53.392  1.00  0.00     0.128 A 
HETATM   30  C5  UNL     1      13.700   4.420  53.989  1.00  0.00     0.292 A 
HETATM   31  N1  UNL     1      15.102   4.378  53.639  1.00  0.00    -0.016 N 
HETATM   32  H7  UNL     1      15.909   4.614  52.998  1.00  0.00     0.292 HD
HETATM   33  H8  UNL     1      15.906   4.613  52.998  1.00  0.00     0.292 HD
ENDBRANCH  27  28
ENDBRANCH  25  27
ENDBRANCH  21  25
ENDBRANCH   1  19
TORSDOF 4
ENDMDL
MODEL 7
REMARK VINA RESULT:      -7.2      4.172      6.817
REMARK  4 active torsions:
REMARK  status: ('A' for Active; 'I' for Inactive)
REMARK    1  A    between atoms: C2_2  and  C3_3 
REMARK    2  A    between atoms: C2_2  and  N2_8 
REMARK    3  A    between atoms: C3_3  and  S1_4 
REMARK       I    between atoms: N2_8  and  C6_9 
REMARK       I    between atoms: C6_9  and  N3_11 
REMARK    4  A    between atoms: N3_11  and  C7_12 
ROOT
HETATM    1  C7  UNL     1      28.533   7.256  47.853  1.00  0.00     0.064 C 
HETATM    2  C8  UNL     1      28.080   7.823  46.698  1.00  0.00     0.031 C 
HETATM    3  C9  UNL     1      28.658   8.451  45.515  1.00  0.00     0.026 C 
HETATM    4  C10 UNL     1      29.765   8.783  44.949  1.00  0.00     0.135 C 
HETATM    5  O2  UNL     1      31.140   8.890  44.843  1.00  0.00    -0.361 OA
HETATM    6  C11 UNL     1      31.973   8.270  43.953  1.00  0.00     0.200 C 
HETATM    7  C12 UNL     1      33.429   8.216  44.097  1.00  0.00     0.194 C 
HETATM    8  O3  UNL     1      34.165   7.694  45.041  1.00  0.00    -0.389 OA
HETATM    9  C13 UNL     1      34.300   7.889  46.342  1.00  0.00     0.173 C 
HETATM   10  C14 UNL     1      33.169   7.449  47.234  1.00  0.00     0.024 C 
HETATM   11  C15 UNL     1      33.123   5.958  47.355  1.00  0.00     0.038 A 
HETATM   12  C16 UNL     1      32.371   4.808  47.235  1.00  0.00    -0.022 A 
HETATM   13  C17 UNL     1      31.510   5.937  46.895  1.00  0.00     0.177 A 
HETATM   14  O4  UNL     1      30.492   6.042  47.801  1.00  0.00    -0.357 OA
HETATM   15  C18 UNL     1      29.975   7.286  47.952  1.00  0.00     0.294 C 
HETATM   16  N4  UNL     1      30.551   7.629  49.282  1.00  0.00    -0.268 NA
HETATM   17  C19 UNL     1      31.845   7.895  49.250  1.00  0.00     0.087 C 
HETATM   18  C20 UNL     1      33.219   8.081  48.627  1.00  0.00     0.054 C 
ENDROOT
BRANCH   1  19
HETATM   19  N3  UNL     1      27.872   6.674  48.936  1.00  0.00    -0.308 N 
HETATM   20  C6  UNL     1      26.476   6.409  48.948  1.00  0.00     0.321 C 
HETATM   21  N2  UNL     1      25.990   5.812  50.144  1.00  0.00    -0.328 N 
HETATM   22  O1  UNL     1      25.567   6.590  48.122  1.00  0.00    -0.247 OA
HETATM   23  H9  UNL     1      26.634   5.588  50.957  1.00  0.00     0.165 HD
HETATM   24  H10 UNL     1      28.483   6.451  49.729  1.00  0.00     0.170 HD
BRANCH  21  25
HETATM   25  C2  UNL     1      24.584   5.452  50.380  1.00  0.00     0.160 C 
HETATM   26  C1  UNL     1      24.006   6.453  51.382  1.00  0.00     0.046 C 
BRANCH  25  27
HETATM   27  C3  UNL     1      24.531   4.133  50.905  1.00  0.00    -0.079 C 
BRANCH  27  28
HETATM   28  S1  UNL     1      24.502   2.968  51.354  1.00  0.00     0.012 SA
HETATM   29  C4  UNL     1      24.466   1.571  51.864  1.00  0.00     0.128 A 
HETATM   30  C5  UNL     1      24.524   2.180  53.060  1.00  0.00     0.292 A 
HETATM   31  N1  UNL     1      24.583   3.609  53.271  1.00  0.00    -0.016 N 
HETATM   32  H7  UNL     1      24.137   4.568  53.281  1.00  0.00     0.292 HD
HETATM   33  H8  UNL     1      24.137   4.565  53.280  1.00  0.00     0.292 HD
ENDBRANCH  27  28
ENDBRANCH  25  27
ENDBRANCH  21  25
ENDBRANCH   1  19
TORSDOF 4
ENDMDL
MODEL 8
REMARK VINA RESULT:      -7.2      6.510      8.925
REMARK  4 active torsions:
REMARK  status: ('A' for Active; 'I' for Inactive)
REMARK    1  A    between atoms: C2_2  and  C3_3 
REMARK    2  A    between atoms: C2_2  and  N2_8 
REMARK    3  A    between atoms: C3_3  and  S1_4 
REMARK       I    between atoms: N2_8  and  C6_9 
REMARK       I    between atoms: C6_9  and  N3_11 
REMARK    4  A    between atoms: N3_11  and  C7_12 
ROOT
HETATM    1  C7  UNL     1      19.708   0.240  52.252  1.00  0.00     0.064 C 
HETATM    2  C8  UNL     1      20.358  -0.521  53.178  1.00  0.00     0.031 C 
HETATM    3  C9  UNL     1      21.736  -0.746  53.602  1.00  0.00     0.026 C 
HETATM    4  C10 UNL     1      22.959  -0.406  53.390  1.00  0.00     0.135 C 
HETATM    5  O2  UNL     1      23.981   0.286  52.766  1.00  0.00    -0.361 OA
HETATM    6  C11 UNL     1      24.806   1.241  53.294  1.00  0.00     0.200 C 
HETATM    7  C12 UNL     1      25.659   2.120  52.492  1.00  0.00     0.194 C 
HETATM    8  O3  UNL     1      25.343   2.999  51.580  1.00  0.00    -0.389 OA
HETATM    9  C13 UNL     1      24.725   2.958  50.411  1.00  0.00     0.173 C 
HETATM   10  C14 UNL     1      23.240   2.704  50.417  1.00  0.00     0.024 C 
HETATM   11  C15 UNL     1      22.486   3.906  50.895  1.00  0.00     0.038 A 
HETATM   12  C16 UNL     1      21.560   4.417  51.780  1.00  0.00    -0.022 A 
HETATM   13  C17 UNL     1      21.689   2.989  52.051  1.00  0.00     0.177 A 
HETATM   14  O4  UNL     1      20.508   2.351  51.790  1.00  0.00    -0.357 OA
HETATM   15  C18 UNL     1      20.615   1.040  51.462  1.00  0.00     0.294 C 
HETATM   16  N4  UNL     1      20.335   1.131  50.002  1.00  0.00    -0.268 NA
HETATM   17  C19 UNL     1      21.328   1.649  49.300  1.00  0.00     0.087 C 
HETATM   18  C20 UNL     1      22.699   2.259  49.057  1.00  0.00     0.054 C 
ENDROOT
BRANCH   1  19
HETATM   19  N3  UNL     1      18.356   0.377  51.931  1.00  0.00    -0.308 N 
HETATM   20  C6  UNL     1      17.316  -0.293  52.629  1.00  0.00     0.321 C 
HETATM   21  N2  UNL     1      16.004  -0.025  52.151  1.00  0.00    -0.328 N 
HETATM   22  O1  UNL     1      17.303  -1.081  53.589  1.00  0.00    -0.247 OA
HETATM   23  H9  UNL     1      15.831   0.629  51.333  1.00  0.00     0.165 HD
HETATM   24  H10 UNL     1      18.175   1.007  51.142  1.00  0.00     0.170 HD
BRANCH  21  25
HETATM   25  C2  UNL     1      14.778  -0.607  52.718  1.00  0.00     0.160 C 
HETATM   26  C1  UNL     1      14.270  -1.670  51.743  1.00  0.00     0.046 C 
BRANCH  25  27
HETATM   27  C3  UNL     1      13.814   0.424  52.878  1.00  0.00    -0.079 C 
BRANCH  27  28
HETATM   28  S1  UNL     1      12.956   1.323  53.001  1.00  0.00     0.012 SA
HETATM   29  C4  UNL     1      11.916   2.378  53.143  1.00  0.00     0.128 A 
HETATM   30  C5  UNL     1      12.980   3.167  53.364  1.00  0.00     0.292 A 
HETATM   31  N1  UNL     1      14.359   2.734  53.366  1.00  0.00    -0.016 N 
HETATM   32  H7  UNL     1      15.235   2.415  52.866  1.00  0.00     0.292 HD
HETATM   33  H8  UNL     1      15.232   2.416  52.867  1.00  0.00     0.292 HD
ENDBRANCH  27  28
ENDBRANCH  25  27
ENDBRANCH  21  25
ENDBRANCH   1  19
TORSDOF 4
ENDMDL
MODEL 9
REMARK VINA RESULT:      -7.1      4.038      8.947
REMARK  4 active torsions:
REMARK  status: ('A' for Active; 'I' for Inactive)
REMARK    1  A    between atoms: C2_2  and  C3_3 
REMARK    2  A    between atoms: C2_2  and  N2_8 
REMARK    3  A    between atoms: C3_3  and  S1_4 
REMARK       I    between atoms: N2_8  and  C6_9 
REMARK       I    between atoms: C6_9  and  N3_11 
REMARK    4  A    between atoms: N3_11  and  C7_12 
ROOT
HETATM    1  C7  UNL     1      24.877   3.788  50.111  1.00  0.00     0.064 C 
HETATM    2  C8  UNL     1      25.936   3.175  50.716  1.00  0.00     0.031 C 
HETATM    3  C9  UNL     1      26.142   2.198  51.779  1.00  0.00     0.026 C 
HETATM    4  C10 UNL     1      25.540   1.449  52.635  1.00  0.00     0.135 C 
HETATM    5  O2  UNL     1      24.444   0.913  53.285  1.00  0.00    -0.361 OA
HETATM    6  C11 UNL     1      23.991  -0.377  53.264  1.00  0.00     0.200 C 
HETATM    7  C12 UNL     1      22.670  -0.789  53.742  1.00  0.00     0.194 C 
HETATM    8  O3  UNL     1      21.479  -0.440  53.336  1.00  0.00    -0.389 OA
HETATM    9  C13 UNL     1      20.812   0.699  53.254  1.00  0.00     0.173 C 
HETATM   10  C14 UNL     1      21.257   1.694  52.214  1.00  0.00     0.024 C 
HETATM   11  C15 UNL     1      20.875   1.247  50.837  1.00  0.00     0.038 A 
HETATM   12  C16 UNL     1      21.289   0.974  49.551  1.00  0.00    -0.022 A 
HETATM   13  C17 UNL     1      22.457   1.416  50.307  1.00  0.00     0.177 A 
HETATM   14  O4  UNL     1      22.934   2.590  49.794  1.00  0.00    -0.357 OA
HETATM   15  C18 UNL     1      23.610   3.375  50.669  1.00  0.00     0.294 C 
HETATM   16  N4  UNL     1      22.590   4.438  50.881  1.00  0.00    -0.268 NA
HETATM   17  C19 UNL     1      21.566   4.055  51.624  1.00  0.00     0.087 C 
HETATM   18  C20 UNL     1      20.727   3.108  52.467  1.00  0.00     0.054 C 
ENDROOT
BRANCH   1  19
HETATM   19  N3  UNL     1      24.799   4.726  49.080  1.00  0.00    -0.308 N 
HETATM   20  C6  UNL     1      25.247   6.068  49.210  1.00  0.00     0.321 C 
HETATM   21  N2  UNL     1      25.081   6.870  48.048  1.00  0.00    -0.328 N 
HETATM   22  O1  UNL     1      25.765   6.708  50.140  1.00  0.00    -0.247 OA
HETATM   23  H9  UNL     1      24.652   6.481  47.159  1.00  0.00     0.165 HD
HETATM   24  H10 UNL     1      24.387   4.363  48.214  1.00  0.00     0.170 HD
BRANCH  21  25
HETATM   25  C2  UNL     1      25.471   8.285  47.953  1.00  0.00     0.160 C 
HETATM   26  C1  UNL     1      24.208   9.131  48.120  1.00  0.00     0.046 C 
BRANCH  25  27
HETATM   27  C3  UNL     1      26.059   8.513  46.680  1.00  0.00    -0.079 C 
BRANCH  27  28
HETATM   28  S1  UNL     1      26.571   8.693  45.555  1.00  0.00     0.012 SA
HETATM   29  C4  UNL     1      27.203   8.914  44.226  1.00  0.00     0.128 A 
HETATM   30  C5  UNL     1      26.006   8.509  43.772  1.00  0.00     0.292 A 
HETATM   31  N1  UNL     1      24.883   8.123  44.597  1.00  0.00    -0.016 N 
HETATM   32  H7  UNL     1      24.082   8.356  45.247  1.00  0.00     0.292 HD
HETATM   33  H8  UNL     1      24.084   8.356  45.245  1.00  0.00     0.292 HD
ENDBRANCH  27  28
ENDBRANCH  25  27
ENDBRANCH  21  25
ENDBRANCH   1  19
TORSDOF 4
ENDMDL
