MODEL 1
REMARK VINA RESULT:      -8.2      0.000      0.000
REMARK  5 active torsions:
REMARK  status: ('A' for Active; 'I' for Inactive)
REMARK    1  A    between atoms: C2_2  and  C3_3 
REMARK    2  A    between atoms: C8_9  and  N1_10 
REMARK    3  A    between atoms: N1_10  and  C9_11 
REMARK    4  A    between atoms: C14_18  and  N4_19 
REMARK    5  A    between atoms: N4_19  and  C15_20 
ROOT
HETATM    1  C9  UNL     1      27.031   1.902  52.213  1.00  0.00     0.142 A 
HETATM    2  N2  UNL     1      28.227   2.283  52.671  1.00  0.00    -0.224 NA
HETATM    3  C10 UNL     1      28.787   1.924  53.820  1.00  0.00     0.236 A 
HETATM    4  N3  UNL     1      28.125   1.102  54.633  1.00  0.00    -0.241 NA
HETATM    5  C11 UNL     1      26.905   0.640  54.295  1.00  0.00     0.072 A 
HETATM    6  C12 UNL     1      26.319  -0.194  55.222  1.00  0.00     0.035 A 
HETATM    7  C13 UNL     1      25.069  -0.681  54.926  1.00  0.00     0.032 A 
HETATM    8  C14 UNL     1      24.463  -0.325  53.742  1.00  0.00     0.035 A 
HETATM    9  C16 UNL     1      25.125   0.514  52.874  1.00  0.00     0.047 A 
HETATM   10  C17 UNL     1      26.371   1.039  53.098  1.00  0.00     0.041 A 
ENDROOT
BRANCH   1  11
HETATM   11  N1  UNL     1      26.298   2.177  51.056  1.00  0.00    -0.339 N 
HETATM   12  H7  UNL     1      25.997   1.287  50.571  1.00  0.00     0.167 HD
BRANCH  11  13
HETATM   13  C8  UNL     1      25.820   3.253  50.318  1.00  0.00     0.045 A 
HETATM   14  C3  UNL     1      24.513   3.546  50.073  1.00  0.00    -0.010 A 
HETATM   15  C4  UNL     1      24.076   4.638  49.326  1.00  0.00     0.015 A 
HETATM   16  C5  UNL     1      25.022   5.484  48.792  1.00  0.00     0.020 A 
HETATM   17  C6  UNL     1      26.357   5.235  49.005  1.00  0.00     0.013 A 
HETATM   18 BR1  UNL     1      27.629   6.436  48.244  1.00  0.00    -0.051 Br
HETATM   19  C7  UNL     1      26.716   4.135  49.756  1.00  0.00     0.049 A 
BRANCH  14  20
HETATM   20  C2  UNL     1      23.406   2.766  50.522  1.00  0.00     0.003 C 
HETATM   21  C1  UNL     1      22.683   1.695  50.309  1.00  0.00     0.012 C 
ENDBRANCH  14  20
ENDBRANCH  11  13
ENDBRANCH   1  11
BRANCH   8  22
HETATM   22  N4  UNL     1      23.167  -0.839  53.461  1.00  0.00    -0.334 N 
HETATM   23  H11 UNL     1      23.382  -1.232  52.497  1.00  0.00     0.168 HD
BRANCH  22  24
HETATM   24  C15 UNL     1      21.973  -0.828  54.227  1.00  0.00     0.353 C 
HETATM   25  O1  UNL     1      21.811  -1.890  54.871  1.00  0.00    -0.283 OA
ENDBRANCH  22  24
ENDBRANCH   8  22
TORSDOF 5
ENDMDL
MODEL 2
REMARK VINA RESULT:      -8.1      1.639      2.451
REMARK  5 active torsions:
REMARK  status: ('A' for Active; 'I' for Inactive)
REMARK    1  A    between atoms: C2_2  and  C3_3 
REMARK    2  A    between atoms: C8_9  and  N1_10 
REMARK    3  A    between atoms: N1_10  and  C9_11 
REMARK    4  A    between atoms: C14_18  and  N4_19 
REMARK    5  A    between atoms: N4_19  and  C15_20 
ROOT
HETATM    1  C9  UNL     1      27.006   2.099  52.230  1.00  0.00     0.142 A 
HETATM    2  N2  UNL     1      28.212   2.475  52.668  1.00  0.00    -0.224 NA
HETATM    3  C10 UNL     1      28.815   2.065  53.777  1.00  0.00     0.236 A 
HETATM    4  N3  UNL     1      28.193   1.189  54.565  1.00  0.00    -0.241 NA
HETATM    5  C11 UNL     1      26.970   0.725  54.243  1.00  0.00     0.072 A 
HETATM    6  C12 UNL     1      26.428  -0.167  55.142  1.00  0.00     0.035 A 
HETATM    7  C13 UNL     1      25.176  -0.658  54.862  1.00  0.00     0.032 A 
HETATM    8  C14 UNL     1      24.525  -0.249  53.719  1.00  0.00     0.035 A 
HETATM    9  C16 UNL     1      25.144   0.647  52.877  1.00  0.00     0.047 A 
HETATM   10  C17 UNL     1      26.389   1.179  53.088  1.00  0.00     0.041 A 
ENDROOT
BRANCH   1  11
HETATM   11  N1  UNL     1      26.231   2.424  51.114  1.00  0.00    -0.339 N 
HETATM   12  H7  UNL     1      26.192   1.622  50.426  1.00  0.00     0.167 HD
BRANCH  11  13
HETATM   13  C8  UNL     1      25.475   3.471  50.600  1.00  0.00     0.045 A 
HETATM   14  C3  UNL     1      25.864   4.345  49.630  1.00  0.00    -0.010 A 
HETATM   15  C4  UNL     1      25.074   5.383  49.141  1.00  0.00     0.015 A 
HETATM   16  C5  UNL     1      23.813   5.547  49.669  1.00  0.00     0.020 A 
HETATM   17  C6  UNL     1      23.369   4.696  50.653  1.00  0.00     0.013 A 
HETATM   18 BR1  UNL     1      21.614   4.965  51.352  1.00  0.00    -0.051 Br
HETATM   19  C7  UNL     1      24.207   3.689  51.087  1.00  0.00     0.049 A 
BRANCH  14  20
HETATM   20  C2  UNL     1      27.141   4.341  48.995  1.00  0.00     0.003 C 
HETATM   21  C1  UNL     1      28.108   5.080  48.510  1.00  0.00     0.012 C 
ENDBRANCH  14  20
ENDBRANCH  11  13
ENDBRANCH   1  11
BRANCH   8  22
HETATM   22  N4  UNL     1      23.228  -0.768  53.454  1.00  0.00    -0.334 N 
HETATM   23  H11 UNL     1      23.443  -1.192  52.503  1.00  0.00     0.168 HD
BRANCH  22  24
HETATM   24  C15 UNL     1      22.033  -0.730  54.218  1.00  0.00     0.353 C 
HETATM   25  O1  UNL     1      21.900  -1.742  54.944  1.00  0.00    -0.283 OA
ENDBRANCH  22  24
ENDBRANCH   8  22
TORSDOF 5
ENDMDL
MODEL 3
REMARK VINA RESULT:      -7.6      3.483      6.467
REMARK  5 active torsions:
REMARK  status: ('A' for Active; 'I' for Inactive)
REMARK    1  A    between atoms: C2_2  and  C3_3 
REMARK    2  A    between atoms: C8_9  and  N1_10 
REMARK    3  A    between atoms: N1_10  and  C9_11 
REMARK    4  A    between atoms: C14_18  and  N4_19 
REMARK    5  A    between atoms: N4_19  and  C15_20 
ROOT
HETATM    1  C9  UNL     1      23.045   2.094  51.794  1.00  0.00     0.142 A 
HETATM    2  N2  UNL     1      22.723   2.648  50.621  1.00  0.00    -0.224 NA
HETATM    3  C10 UNL     1      23.564   3.146  49.722  1.00  0.00     0.236 A 
HETATM    4  N3  UNL     1      24.872   3.112  49.971  1.00  0.00    -0.241 NA
HETATM    5  C11 UNL     1      25.337   2.580  51.119  1.00  0.00     0.072 A 
HETATM    6  C12 UNL     1      26.706   2.613  51.265  1.00  0.00     0.035 A 
HETATM    7  C13 UNL     1      27.226   2.092  52.425  1.00  0.00     0.032 A 
HETATM    8  C14 UNL     1      26.378   1.571  53.377  1.00  0.00     0.035 A 
HETATM    9  C16 UNL     1      25.021   1.580  53.145  1.00  0.00     0.047 A 
HETATM   10  C17 UNL     1      24.429   2.079  52.015  1.00  0.00     0.041 A 
ENDROOT
BRANCH   1  11
HETATM   11  N1  UNL     1      22.310   1.535  52.842  1.00  0.00    -0.339 N 
HETATM   12  H7  UNL     1      22.538   2.002  53.763  1.00  0.00     0.167 HD
BRANCH  11  13
HETATM   13  C8  UNL     1      21.357   0.552  53.081  1.00  0.00     0.045 A 
HETATM   14  C3  UNL     1      21.526  -0.565  53.841  1.00  0.00    -0.010 A 
HETATM   15  C4  UNL     1      20.542  -1.528  54.056  1.00  0.00     0.015 A 
HETATM   16  C5  UNL     1      19.312  -1.349  53.462  1.00  0.00     0.020 A 
HETATM   17  C6  UNL     1      19.087  -0.240  52.682  1.00  0.00     0.013 A 
HETATM   18 BR1  UNL     1      17.367  -0.037  51.881  1.00  0.00    -0.051 Br
HETATM   19  C7  UNL     1      20.109   0.672  52.514  1.00  0.00     0.049 A 
BRANCH  14  20
HETATM   20  C2  UNL     1      22.737  -0.925  54.503  1.00  0.00     0.003 C 
HETATM   21  C1  UNL     1      23.268  -1.383  55.609  1.00  0.00     0.012 C 
ENDBRANCH  14  20
ENDBRANCH  11  13
ENDBRANCH   1  11
BRANCH   8  22
HETATM   22  N4  UNL     1      26.941   1.042  54.571  1.00  0.00    -0.334 N 
HETATM   23  H11 UNL     1      26.174   1.360  55.235  1.00  0.00     0.168 HD
BRANCH  22  24
HETATM   24  C15 UNL     1      28.142   0.322  54.798  1.00  0.00     0.353 C 
HETATM   25  O1  UNL     1      28.112  -0.824  54.294  1.00  0.00    -0.283 OA
ENDBRANCH  22  24
ENDBRANCH   8  22
TORSDOF 5
ENDMDL
MODEL 4
REMARK VINA RESULT:      -7.6      2.511      4.560
REMARK  5 active torsions:
REMARK  status: ('A' for Active; 'I' for Inactive)
REMARK    1  A    between atoms: C2_2  and  C3_3 
REMARK    2  A    between atoms: C8_9  and  N1_10 
REMARK    3  A    between atoms: N1_10  and  C9_11 
REMARK    4  A    between atoms: C14_18  and  N4_19 
REMARK    5  A    between atoms: N4_19  and  C15_20 
ROOT
HETATM    1  C9  UNL     1      22.150   0.866  51.604  1.00  0.00     0.142 A 
HETATM    2  N2  UNL     1      20.842   0.903  51.331  1.00  0.00    -0.224 NA
HETATM    3  C10 UNL     1      19.867   0.360  52.049  1.00  0.00     0.236 A 
HETATM    4  N3  UNL     1      20.175  -0.299  53.165  1.00  0.00    -0.241 NA
HETATM    5  C11 UNL     1      21.458  -0.414  53.560  1.00  0.00     0.072 A 
HETATM    6  C12 UNL     1      21.650  -1.127  54.723  1.00  0.00     0.035 A 
HETATM    7  C13 UNL     1      22.943  -1.281  55.159  1.00  0.00     0.032 A 
HETATM    8  C14 UNL     1      23.976  -0.731  54.433  1.00  0.00     0.035 A 
HETATM    9  C16 UNL     1      23.690  -0.033  53.281  1.00  0.00     0.047 A 
HETATM   10  C17 UNL     1      22.429   0.164  52.784  1.00  0.00     0.041 A 
ENDROOT
BRANCH   1  11
HETATM   11  N1  UNL     1      23.292   1.366  50.973  1.00  0.00    -0.339 N 
HETATM   12  H7  UNL     1      24.063   0.643  50.946  1.00  0.00     0.167 HD
BRANCH  11  13
HETATM   13  C8  UNL     1      23.759   2.518  50.353  1.00  0.00     0.045 A 
HETATM   14  C3  UNL     1      24.980   3.093  50.535  1.00  0.00    -0.010 A 
HETATM   15  C4  UNL     1      25.410   4.252  49.892  1.00  0.00     0.015 A 
HETATM   16  C5  UNL     1      24.548   4.868  49.012  1.00  0.00     0.020 A 
HETATM   17  C6  UNL     1      23.301   4.334  48.792  1.00  0.00     0.013 A 
HETATM   18 BR1  UNL     1      22.144   5.225  47.564  1.00  0.00    -0.051 Br
HETATM   19  C7  UNL     1      22.944   3.183  49.464  1.00  0.00     0.049 A 
BRANCH  14  20
HETATM   20  C2  UNL     1      25.983   2.609  51.426  1.00  0.00     0.003 C 
HETATM   21  C1  UNL     1      26.781   1.611  51.715  1.00  0.00     0.012 C 
ENDBRANCH  14  20
ENDBRANCH  11  13
ENDBRANCH   1  11
BRANCH   8  22
HETATM   22  N4  UNL     1      25.306  -0.909  54.903  1.00  0.00    -0.334 N 
HETATM   23  H11 UNL     1      25.235  -1.947  55.123  1.00  0.00     0.168 HD
BRANCH  22  24
HETATM   24  C15 UNL     1      26.381   0.009  55.034  1.00  0.00     0.353 C 
HETATM   25  O1  UNL     1      27.472  -0.480  54.659  1.00  0.00    -0.283 OA
ENDBRANCH  22  24
ENDBRANCH   8  22
TORSDOF 5
ENDMDL
MODEL 5
REMARK VINA RESULT:      -7.4      1.437      1.775
REMARK  5 active torsions:
REMARK  status: ('A' for Active; 'I' for Inactive)
REMARK    1  A    between atoms: C2_2  and  C3_3 
REMARK    2  A    between atoms: C8_9  and  N1_10 
REMARK    3  A    between atoms: N1_10  and  C9_11 
REMARK    4  A    between atoms: C14_18  and  N4_19 
REMARK    5  A    between atoms: N4_19  and  C15_20 
ROOT
HETATM    1  C9  UNL     1      25.934   0.790  52.734  1.00  0.00     0.142 A 
HETATM    2  N2  UNL     1      27.153   0.808  53.284  1.00  0.00    -0.224 NA
HETATM    3  C10 UNL     1      27.512   0.247  54.433  1.00  0.00     0.236 A 
HETATM    4  N3  UNL     1      26.598  -0.411  55.145  1.00  0.00    -0.241 NA
HETATM    5  C11 UNL     1      25.327  -0.507  54.707  1.00  0.00     0.072 A 
HETATM    6  C12 UNL     1      24.475  -1.203  55.536  1.00  0.00     0.035 A 
HETATM    7  C13 UNL     1      23.166  -1.317  55.137  1.00  0.00     0.032 A 
HETATM    8  C14 UNL     1      22.763  -0.744  53.952  1.00  0.00     0.035 A 
HETATM    9  C16 UNL     1      23.685  -0.067  53.186  1.00  0.00     0.047 A 
HETATM   10  C17 UNL     1      25.006   0.089  53.515  1.00  0.00     0.041 A 
ENDROOT
BRANCH   1  11
HETATM   11  N1  UNL     1      25.387   1.318  51.563  1.00  0.00    -0.339 N 
HETATM   12  H7  UNL     1      24.931   0.564  50.978  1.00  0.00     0.167 HD
BRANCH  11  13
HETATM   13  C8  UNL     1      25.236   2.529  50.899  1.00  0.00     0.045 A 
HETATM   14  C3  UNL     1      24.098   3.273  50.827  1.00  0.00    -0.010 A 
HETATM   15  C4  UNL     1      23.990   4.485  50.148  1.00  0.00     0.015 A 
HETATM   16  C5  UNL     1      25.103   4.972  49.500  1.00  0.00     0.020 A 
HETATM   17  C6  UNL     1      26.279   4.261  49.537  1.00  0.00     0.013 A 
HETATM   18 BR1  UNL     1      27.793   4.978  48.624  1.00  0.00    -0.051 Br
HETATM   19  C7  UNL     1      26.312   3.068  50.229  1.00  0.00     0.049 A 
BRANCH  14  20
HETATM   20  C2  UNL     1      22.849   2.909  51.411  1.00  0.00     0.003 C 
HETATM   21  C1  UNL     1      21.549   2.883  51.252  1.00  0.00     0.012 C 
ENDBRANCH  14  20
ENDBRANCH  11  13
ENDBRANCH   1  11
BRANCH   8  22
HETATM   22  N4  UNL     1      21.401  -0.872  53.563  1.00  0.00    -0.334 N 
HETATM   23  H11 UNL     1      21.452  -1.876  53.217  1.00  0.00     0.168 HD
BRANCH  22  24
HETATM   24  C15 UNL     1      20.323   0.048  53.622  1.00  0.00     0.353 C 
HETATM   25  O1  UNL     1      19.482  -0.146  52.715  1.00  0.00    -0.283 OA
ENDBRANCH  22  24
ENDBRANCH   8  22
TORSDOF 5
ENDMDL
MODEL 6
REMARK VINA RESULT:      -7.3      4.070      7.508
REMARK  5 active torsions:
REMARK  status: ('A' for Active; 'I' for Inactive)
REMARK    1  A    between atoms: C2_2  and  C3_3 
REMARK    2  A    between atoms: C8_9  and  N1_10 
REMARK    3  A    between atoms: N1_10  and  C9_11 
REMARK    4  A    between atoms: C14_18  and  N4_19 
REMARK    5  A    between atoms: N4_19  and  C15_20 
ROOT
HETATM    1  C9  UNL     1      23.343   3.132  50.744  1.00  0.00     0.142 A 
HETATM    2  N2  UNL     1      22.070   3.511  50.895  1.00  0.00    -0.224 NA
HETATM    3  C10 UNL     1      21.532   4.657  50.493  1.00  0.00     0.236 A 
HETATM    4  N3  UNL     1      22.300   5.549  49.871  1.00  0.00    -0.241 NA
HETATM    5  C11 UNL     1      23.605   5.296  49.652  1.00  0.00     0.072 A 
HETATM    6  C12 UNL     1      24.296   6.300  49.009  1.00  0.00     0.035 A 
HETATM    7  C13 UNL     1      25.633   6.091  48.775  1.00  0.00     0.032 A 
HETATM    8  C14 UNL     1      26.220   4.913  49.182  1.00  0.00     0.035 A 
HETATM    9  C16 UNL     1      25.451   3.965  49.818  1.00  0.00     0.047 A 
HETATM   10  C17 UNL     1      24.114   4.099  50.086  1.00  0.00     0.041 A 
ENDROOT
BRANCH   1  11
HETATM   11  N1  UNL     1      24.068   1.992  51.100  1.00  0.00    -0.339 N 
HETATM   12  H7  UNL     1      24.756   1.723  50.344  1.00  0.00     0.167 HD
BRANCH  11  13
HETATM   13  C8  UNL     1      24.191   1.079  52.140  1.00  0.00     0.045 A 
HETATM   14  C3  UNL     1      25.348   0.702  52.750  1.00  0.00    -0.010 A 
HETATM   15  C4  UNL     1      25.427  -0.220  53.791  1.00  0.00     0.015 A 
HETATM   16  C5  UNL     1      24.261  -0.798  54.241  1.00  0.00     0.020 A 
HETATM   17  C6  UNL     1      23.063  -0.457  53.660  1.00  0.00     0.013 A 
HETATM   18 BR1  UNL     1      21.475  -1.285  54.319  1.00  0.00    -0.051 Br
HETATM   19  C7  UNL     1      23.062   0.464  52.633  1.00  0.00     0.049 A 
BRANCH  14  20
HETATM   20  C2  UNL     1      26.647   1.174  52.395  1.00  0.00     0.003 C 
HETATM   21  C1  UNL     1      27.487   2.177  52.462  1.00  0.00     0.012 C 
ENDBRANCH  14  20
ENDBRANCH  11  13
ENDBRANCH   1  11
BRANCH   8  22
HETATM   22  N4  UNL     1      27.606   4.724  48.932  1.00  0.00    -0.334 N 
HETATM   23  H11 UNL     1      27.689   3.751  49.353  1.00  0.00     0.168 HD
BRANCH  22  24
HETATM   24  C15 UNL     1      28.568   5.566  48.316  1.00  0.00     0.353 C 
HETATM   25  O1  UNL     1      29.713   5.059  48.314  1.00  0.00    -0.283 OA
ENDBRANCH  22  24
ENDBRANCH   8  22
TORSDOF 5
ENDMDL
MODEL 7
REMARK VINA RESULT:      -7.3      2.416      4.358
REMARK  5 active torsions:
REMARK  status: ('A' for Active; 'I' for Inactive)
REMARK    1  A    between atoms: C2_2  and  C3_3 
REMARK    2  A    between atoms: C8_9  and  N1_10 
REMARK    3  A    between atoms: N1_10  and  C9_11 
REMARK    4  A    between atoms: C14_18  and  N4_19 
REMARK    5  A    between atoms: N4_19  and  C15_20 
ROOT
HETATM    1  C9  UNL     1      22.036   0.363  52.570  1.00  0.00     0.142 A 
HETATM    2  N2  UNL     1      20.757   0.074  52.833  1.00  0.00    -0.224 NA
HETATM    3  C10 UNL     1      20.299  -0.630  53.861  1.00  0.00     0.236 A 
HETATM    4  N3  UNL     1      21.166  -1.119  54.747  1.00  0.00    -0.241 NA
HETATM    5  C11 UNL     1      22.488  -0.903  54.604  1.00  0.00     0.072 A 
HETATM    6  C12 UNL     1      23.281  -1.468  55.578  1.00  0.00     0.035 A 
HETATM    7  C13 UNL     1      24.638  -1.284  55.467  1.00  0.00     0.032 A 
HETATM    8  C14 UNL     1      25.142  -0.560  54.409  1.00  0.00     0.035 A 
HETATM    9  C16 UNL     1      24.273  -0.031  53.482  1.00  0.00     0.047 A 
HETATM   10  C17 UNL     1      22.911  -0.170  53.525  1.00  0.00     0.041 A 
ENDROOT
BRANCH   1  11
HETATM   11  N1  UNL     1      22.685   1.070  51.555  1.00  0.00    -0.339 N 
HETATM   12  H7  UNL     1      22.898   0.446  50.728  1.00  0.00     0.167 HD
BRANCH  11  13
HETATM   13  C8  UNL     1      23.152   2.346  51.264  1.00  0.00     0.045 A 
HETATM   14  C3  UNL     1      22.500   3.517  51.505  1.00  0.00    -0.010 A 
HETATM   15  C4  UNL     1      23.005   4.778  51.197  1.00  0.00     0.015 A 
HETATM   16  C5  UNL     1      24.246   4.858  50.607  1.00  0.00     0.020 A 
HETATM   17  C6  UNL     1      24.949   3.707  50.338  1.00  0.00     0.013 A 
HETATM   18 BR1  UNL     1      26.665   3.871  49.520  1.00  0.00    -0.051 Br
HETATM   19  C7  UNL     1      24.386   2.493  50.672  1.00  0.00     0.049 A 
BRANCH  14  20
HETATM   20  C2  UNL     1      21.199   3.621  52.080  1.00  0.00     0.003 C 
HETATM   21  C1  UNL     1      19.915   3.450  51.885  1.00  0.00     0.012 C 
ENDBRANCH  14  20
ENDBRANCH  11  13
ENDBRANCH   1  11
BRANCH   8  22
HETATM   22  N4  UNL     1      26.551  -0.389  54.314  1.00  0.00    -0.334 N 
HETATM   23  H11 UNL     1      26.705   0.017  55.285  1.00  0.00     0.168 HD
BRANCH  22  24
HETATM   24  C15 UNL     1      27.457  -0.671  53.259  1.00  0.00     0.353 C 
HETATM   25  O1  UNL     1      27.913  -1.836  53.323  1.00  0.00    -0.283 OA
ENDBRANCH  22  24
ENDBRANCH   8  22
TORSDOF 5
ENDMDL
MODEL 8
REMARK VINA RESULT:      -7.2      2.335      3.971
REMARK  5 active torsions:
REMARK  status: ('A' for Active; 'I' for Inactive)
REMARK    1  A    between atoms: C2_2  and  C3_3 
REMARK    2  A    between atoms: C8_9  and  N1_10 
REMARK    3  A    between atoms: N1_10  and  C9_11 
REMARK    4  A    between atoms: C14_18  and  N4_19 
REMARK    5  A    between atoms: N4_19  and  C15_20 
ROOT
HETATM    1  C9  UNL     1      23.499   1.210  51.717  1.00  0.00     0.142 A 
HETATM    2  N2  UNL     1      22.261   0.706  51.672  1.00  0.00    -0.224 NA
HETATM    3  C10 UNL     1      21.735  -0.179  52.511  1.00  0.00     0.236 A 
HETATM    4  N3  UNL     1      22.479  -0.641  53.514  1.00  0.00    -0.241 NA
HETATM    5  C11 UNL     1      23.748  -0.217  53.678  1.00  0.00     0.072 A 
HETATM    6  C12 UNL     1      24.417  -0.775  54.745  1.00  0.00     0.035 A 
HETATM    7  C13 UNL     1      25.718  -0.381  54.945  1.00  0.00     0.032 A 
HETATM    8  C14 UNL     1      26.291   0.534  54.091  1.00  0.00     0.035 A 
HETATM    9  C16 UNL     1      25.546   1.039  53.050  1.00  0.00     0.047 A 
HETATM   10  C17 UNL     1      24.245   0.698  52.787  1.00  0.00     0.041 A 
ENDROOT
BRANCH   1  11
HETATM   11  N1  UNL     1      24.207   2.124  50.934  1.00  0.00    -0.339 N 
HETATM   12  H7  UNL     1      25.235   1.883  50.896  1.00  0.00     0.167 HD
BRANCH  11  13
HETATM   13  C8  UNL     1      24.004   3.267  50.170  1.00  0.00     0.045 A 
HETATM   14  C3  UNL     1      23.273   3.352  49.025  1.00  0.00    -0.010 A 
HETATM   15  C4  UNL     1      23.095   4.521  48.288  1.00  0.00     0.015 A 
HETATM   16  C5  UNL     1      23.698   5.675  48.737  1.00  0.00     0.020 A 
HETATM   17  C6  UNL     1      24.450   5.647  49.887  1.00  0.00     0.013 A 
HETATM   18 BR1  UNL     1      25.265   7.271  50.470  1.00  0.00    -0.051 Br
HETATM   19  C7  UNL     1      24.582   4.453  50.566  1.00  0.00     0.049 A 
BRANCH  14  20
HETATM   20  C2  UNL     1      22.607   2.256  48.400  1.00  0.00     0.003 C 
HETATM   21  C1  UNL     1      21.534   1.505  48.396  1.00  0.00     0.012 C 
ENDBRANCH  14  20
ENDBRANCH  11  13
ENDBRANCH   1  11
BRANCH   8  22
HETATM   22  N4  UNL     1      27.641   0.921  54.316  1.00  0.00    -0.334 N 
HETATM   23  H11 UNL     1      27.818   0.308  55.167  1.00  0.00     0.168 HD
BRANCH  22  24
HETATM   24  C15 UNL     1      28.479   1.832  53.623  1.00  0.00     0.353 C 
HETATM   25  O1  UNL     1      29.151   2.547  54.402  1.00  0.00    -0.283 OA
ENDBRANCH  22  24
ENDBRANCH   8  22
TORSDOF 5
ENDMDL
MODEL 9
REMARK VINA RESULT:      -7.1      2.340      3.460
REMARK  5 active torsions:
REMARK  status: ('A' for Active; 'I' for Inactive)
REMARK    1  A    between atoms: C2_2  and  C3_3 
REMARK    2  A    between atoms: C8_9  and  N1_10 
REMARK    3  A    between atoms: N1_10  and  C9_11 
REMARK    4  A    between atoms: C14_18  and  N4_19 
REMARK    5  A    between atoms: N4_19  and  C15_20 
ROOT
HETATM    1  C9  UNL     1      26.384   2.600  51.285  1.00  0.00     0.142 A 
HETATM    2  N2  UNL     1      27.519   2.484  51.981  1.00  0.00    -0.224 NA
HETATM    3  C10 UNL     1      27.717   1.727  53.053  1.00  0.00     0.236 A 
HETATM    4  N3  UNL     1      26.710   0.990  53.520  1.00  0.00    -0.241 NA
HETATM    5  C11 UNL     1      25.507   1.012  52.914  1.00  0.00     0.072 A 
HETATM    6  C12 UNL     1      24.544   0.217  53.496  1.00  0.00     0.035 A 
HETATM    7  C13 UNL     1      23.298   0.216  52.919  1.00  0.00     0.032 A 
HETATM    8  C14 UNL     1      23.062   0.993  51.807  1.00  0.00     0.035 A 
HETATM    9  C16 UNL     1      24.085   1.757  51.292  1.00  0.00     0.047 A 
HETATM   10  C17 UNL     1      25.353   1.810  51.810  1.00  0.00     0.041 A 
ENDROOT
BRANCH   1  11
HETATM   11  N1  UNL     1      26.002   3.335  50.160  1.00  0.00    -0.339 N 
HETATM   12  H7  UNL     1      25.820   2.704  49.332  1.00  0.00     0.167 HD
BRANCH  11  13
HETATM   13  C8  UNL     1      25.774   4.647  49.761  1.00  0.00     0.045 A 
HETATM   14  C3  UNL     1      26.610   5.419  49.014  1.00  0.00    -0.010 A 
HETATM   15  C4  UNL     1      26.343   6.733  48.635  1.00  0.00     0.015 A 
HETATM   16  C5  UNL     1      25.155   7.300  49.040  1.00  0.00     0.020 A 
HETATM   17  C6  UNL     1      24.273   6.567  49.798  1.00  0.00     0.013 A 
HETATM   18 BR1  UNL     1      22.641   7.398  50.334  1.00  0.00    -0.051 Br
HETATM   19  C7  UNL     1      24.605   5.271  50.135  1.00  0.00     0.049 A 
BRANCH  14  20
HETATM   20  C2  UNL     1      27.890   5.006  48.536  1.00  0.00     0.003 C 
HETATM   21  C1  UNL     1      29.085   5.400  48.172  1.00  0.00     0.012 C 
ENDBRANCH  14  20
ENDBRANCH  11  13
ENDBRANCH   1  11
BRANCH   8  22
HETATM   22  N4  UNL     1      21.762   0.978  51.232  1.00  0.00    -0.334 N 
HETATM   23  H11 UNL     1      21.283   0.409  51.992  1.00  0.00     0.168 HD
BRANCH  22  24
HETATM   24  C15 UNL     1      21.266   1.545  50.029  1.00  0.00     0.353 C 
HETATM   25  O1  UNL     1      21.431   0.789  49.044  1.00  0.00    -0.283 OA
ENDBRANCH  22  24
ENDBRANCH   8  22
TORSDOF 5
ENDMDL
