MODEL 1
REMARK VINA RESULT:      -9.3      0.000      0.000
REMARK  7 active torsions:
REMARK  status: ('A' for Active; 'I' for Inactive)
REMARK    1  A    between atoms: O1_2  and  C2_3 
REMARK    2  A    between atoms: C2_3  and  C3_4 
REMARK    3  A    between atoms: C2_3  and  C16_22 
REMARK    4  A    between atoms: C4_5  and  C5_6 
REMARK    5  A    between atoms: C16_22  and  C17_23 
REMARK    6  A    between atoms: C17_23  and  C18_24 
REMARK    7  A    between atoms: C22_29  and  O2_30 
ROOT
HETATM    1  C5  UNL     1      23.013  -0.321  53.242  1.00  0.00     0.068 A 
HETATM    2  N1  UNL     1      23.793  -0.759  54.283  1.00  0.00    -0.241 NA
HETATM    3  C6  UNL     1      23.072  -1.408  55.281  1.00  0.00     0.235 A 
HETATM    4  N2  UNL     1      21.754  -1.563  55.181  1.00  0.00    -0.224 NA
HETATM    5  C7  UNL     1      20.977  -1.141  54.168  1.00  0.00     0.138 A 
HETATM    6  C8  UNL     1      21.664  -0.475  53.131  1.00  0.00     0.021 A 
HETATM    7  C9  UNL     1      20.982   0.044  51.927  1.00  0.00     0.086 A 
HETATM    8  C10 UNL     1      19.528  -0.198  52.036  1.00  0.00    -0.024 A 
HETATM    9  C11 UNL     1      18.744   0.249  51.009  1.00  0.00     0.053 A 
HETATM   10  C12 UNL     1      17.389   0.139  50.848  1.00  0.00     0.138 A 
HETATM   11  F1  UNL     1      16.675   0.601  49.809  1.00  0.00    -0.204 F 
HETATM   12  C13 UNL     1      16.782  -0.539  51.929  1.00  0.00     0.074 A 
HETATM   13 CL1  UNL     1      15.028  -0.788  51.920  1.00  0.00    -0.081 Cl
HETATM   14  C14 UNL     1      17.439  -1.056  53.055  1.00  0.00     0.057 A 
HETATM   15  C15 UNL     1      18.835  -0.844  53.034  1.00  0.00     0.042 A 
HETATM   16  N3  UNL     1      19.578  -1.331  54.137  1.00  0.00    -0.340 N 
HETATM   17  H12 UNL     1      19.114  -1.822  54.927  1.00  0.00     0.167 HD
ENDROOT
BRANCH   1  18
HETATM   18  C4  UNL     1      23.754   0.383  52.211  1.00  0.00     0.031 C 
HETATM   19  C3  UNL     1      24.302   1.611  52.217  1.00  0.00     0.007 C 
BRANCH  19  20
HETATM   20  C2  UNL     1      24.380   2.704  53.236  1.00  0.00     0.143 C 
BRANCH  20  21
HETATM   21  O1  UNL     1      23.983   3.886  52.891  1.00  0.00    -0.387 OA
HETATM   22  C1  UNL     1      23.323   4.386  51.856  1.00  0.00     0.202 C 
ENDBRANCH  20  21
BRANCH  20  23
HETATM   23  C16 UNL     1      25.774   2.721  53.882  1.00  0.00     0.038 C 
BRANCH  23  24
HETATM   24  C17 UNL     1      26.549   1.584  53.270  1.00  0.00     0.041 C 
BRANCH  24  25
HETATM   25  C18 UNL     1      27.244   0.733  54.309  1.00  0.00     0.249 C 
HETATM   26  N4  UNL     1      26.768  -0.636  54.186  1.00  0.00     0.090 N 
HETATM   27  C19 UNL     1      27.335  -1.237  52.956  1.00  0.00     0.270 C 
HETATM   28  H18 UNL     1      27.077  -1.217  55.013  1.00  0.00     0.316 HD
HETATM   29  C20 UNL     1      28.807  -1.366  53.067  1.00  0.00     0.033 C 
HETATM   30  C21 UNL     1      29.367  -0.489  54.182  1.00  0.00     0.035 C 
HETATM   31  C22 UNL     1      28.730   0.881  54.092  1.00  0.00     0.151 C 
BRANCH  31  32
HETATM   32  O2  UNL     1      29.292   1.766  55.036  1.00  0.00    -0.393 OA
HETATM   33  H26 UNL     1      28.614   2.408  55.354  1.00  0.00     0.210 HD
ENDBRANCH  31  32
ENDBRANCH  24  25
ENDBRANCH  23  24
ENDBRANCH  20  23
ENDBRANCH  19  20
ENDBRANCH   1  18
TORSDOF 7
ENDMDL
MODEL 2
REMARK VINA RESULT:      -9.1      5.494      7.906
REMARK  7 active torsions:
REMARK  status: ('A' for Active; 'I' for Inactive)
REMARK    1  A    between atoms: O1_2  and  C2_3 
REMARK    2  A    between atoms: C2_3  and  C3_4 
REMARK    3  A    between atoms: C2_3  and  C16_22 
REMARK    4  A    between atoms: C4_5  and  C5_6 
REMARK    5  A    between atoms: C16_22  and  C17_23 
REMARK    6  A    between atoms: C17_23  and  C18_24 
REMARK    7  A    between atoms: C22_29  and  O2_30 
ROOT
HETATM    1  C5  UNL     1      23.004   3.754  50.460  1.00  0.00     0.068 A 
HETATM    2  N1  UNL     1      21.800   4.111  51.015  1.00  0.00    -0.241 NA
HETATM    3  C6  UNL     1      21.658   5.483  51.196  1.00  0.00     0.235 A 
HETATM    4  N2  UNL     1      22.628   6.323  50.843  1.00  0.00    -0.224 NA
HETATM    5  C7  UNL     1      23.811   5.990  50.299  1.00  0.00     0.138 A 
HETATM    6  C8  UNL     1      24.003   4.607  50.096  1.00  0.00     0.021 A 
HETATM    7  C9  UNL     1      25.232   4.052  49.492  1.00  0.00     0.086 A 
HETATM    8  C10 UNL     1      26.186   5.146  49.212  1.00  0.00    -0.024 A 
HETATM    9  C11 UNL     1      27.393   4.796  48.674  1.00  0.00     0.053 A 
HETATM   10  C12 UNL     1      28.437   5.600  48.303  1.00  0.00     0.138 A 
HETATM   11  F1  UNL     1      29.602   5.192  47.774  1.00  0.00    -0.204 F 
HETATM   12  C13 UNL     1      28.161   6.966  48.540  1.00  0.00     0.074 A 
HETATM   13 CL1  UNL     1      29.386   8.180  48.131  1.00  0.00    -0.081 Cl
HETATM   14  C14 UNL     1      26.981   7.489  49.085  1.00  0.00     0.057 A 
HETATM   15  C15 UNL     1      26.024   6.499  49.400  1.00  0.00     0.042 A 
HETATM   16  N3  UNL     1      24.801   6.940  49.961  1.00  0.00    -0.340 N 
HETATM   17  H12 UNL     1      24.617   7.948  50.134  1.00  0.00     0.167 HD
ENDROOT
BRANCH   1  18
HETATM   18  C4  UNL     1      23.172   2.321  50.295  1.00  0.00     0.031 C 
HETATM   19  C3  UNL     1      23.400   1.361  51.206  1.00  0.00     0.007 C 
BRANCH  19  20
HETATM   20  C2  UNL     1      23.560   1.364  52.695  1.00  0.00     0.143 C 
BRANCH  20  21
HETATM   21  O1  UNL     1      22.489   1.346  53.421  1.00  0.00    -0.387 OA
HETATM   22  C1  UNL     1      21.633   0.410  53.803  1.00  0.00     0.202 C 
ENDBRANCH  20  21
BRANCH  20  23
HETATM   23  C16 UNL     1      24.535   2.474  53.116  1.00  0.00     0.038 C 
BRANCH  23  24
HETATM   24  C17 UNL     1      25.899   2.061  52.632  1.00  0.00     0.041 C 
BRANCH  24  25
HETATM   25  C18 UNL     1      26.937   2.093  53.731  1.00  0.00     0.249 C 
HETATM   26  N4  UNL     1      26.595   1.087  54.725  1.00  0.00     0.090 N 
HETATM   27  C19 UNL     1      26.868  -0.258  54.168  1.00  0.00     0.270 C 
HETATM   28  H18 UNL     1      27.177   1.210  55.598  1.00  0.00     0.316 HD
HETATM   29  C20 UNL     1      28.319  -0.444  53.938  1.00  0.00     0.033 C 
HETATM   30  C21 UNL     1      29.064   0.886  53.926  1.00  0.00     0.035 C 
HETATM   31  C22 UNL     1      28.283   1.874  53.085  1.00  0.00     0.151 C 
BRANCH  31  32
HETATM   32  O2  UNL     1      28.983   3.092  52.953  1.00  0.00    -0.393 OA
HETATM   33  H26 UNL     1      29.956   2.933  52.946  1.00  0.00     0.210 HD
ENDBRANCH  31  32
ENDBRANCH  24  25
ENDBRANCH  23  24
ENDBRANCH  20  23
ENDBRANCH  19  20
ENDBRANCH   1  18
TORSDOF 7
ENDMDL
MODEL 3
REMARK VINA RESULT:      -8.9      4.090      6.798
REMARK  7 active torsions:
REMARK  status: ('A' for Active; 'I' for Inactive)
REMARK    1  A    between atoms: O1_2  and  C2_3 
REMARK    2  A    between atoms: C2_3  and  C3_4 
REMARK    3  A    between atoms: C2_3  and  C16_22 
REMARK    4  A    between atoms: C4_5  and  C5_6 
REMARK    5  A    between atoms: C16_22  and  C17_23 
REMARK    6  A    between atoms: C17_23  and  C18_24 
REMARK    7  A    between atoms: C22_29  and  O2_30 
ROOT
HETATM    1  C5  UNL     1      21.185  -0.140  52.629  1.00  0.00     0.068 A 
HETATM    2  N1  UNL     1      20.136  -0.842  53.171  1.00  0.00    -0.241 NA
HETATM    3  C6  UNL     1      20.482  -1.565  54.308  1.00  0.00     0.235 A 
HETATM    4  N2  UNL     1      21.725  -1.540  54.783  1.00  0.00    -0.224 NA
HETATM    5  C7  UNL     1      22.761  -0.858  54.265  1.00  0.00     0.138 A 
HETATM    6  C8  UNL     1      22.460  -0.109  53.109  1.00  0.00     0.021 A 
HETATM    7  C9  UNL     1      23.465   0.719  52.410  1.00  0.00     0.086 A 
HETATM    8  C10 UNL     1      24.777   0.576  53.075  1.00  0.00    -0.024 A 
HETATM    9  C11 UNL     1      25.829   1.259  52.532  1.00  0.00     0.053 A 
HETATM   10  C12 UNL     1      27.129   1.319  52.955  1.00  0.00     0.138 A 
HETATM   11  F1  UNL     1      28.119   2.016  52.375  1.00  0.00    -0.204 F 
HETATM   12  C13 UNL     1      27.343   0.542  54.116  1.00  0.00     0.074 A 
HETATM   13 CL1  UNL     1      28.963   0.480  54.830  1.00  0.00    -0.081 Cl
HETATM   14  C14 UNL     1      26.378  -0.217  54.793  1.00  0.00     0.057 A 
HETATM   15  C15 UNL     1      25.096  -0.147  54.202  1.00  0.00     0.042 A 
HETATM   16  N3  UNL     1      24.060  -0.890  54.819  1.00  0.00    -0.340 N 
HETATM   17  H12 UNL     1      24.236  -1.461  55.669  1.00  0.00     0.167 HD
ENDROOT
BRANCH   1  18
HETATM   18  C4  UNL     1      20.839   0.593  51.425  1.00  0.00     0.031 C 
HETATM   19  C3  UNL     1      20.414   1.859  51.269  1.00  0.00     0.007 C 
BRANCH  19  20
HETATM   20  C2  UNL     1      20.141   2.984  52.218  1.00  0.00     0.143 C 
BRANCH  20  21
HETATM   21  O1  UNL     1      19.223   3.837  51.899  1.00  0.00    -0.387 OA
HETATM   22  C1  UNL     1      18.018   3.757  51.352  1.00  0.00     0.202 C 
ENDBRANCH  20  21
BRANCH  20  23
HETATM   23  C16 UNL     1      21.458   3.663  52.620  1.00  0.00     0.038 C 
BRANCH  23  24
HETATM   24  C17 UNL     1      21.976   4.366  51.392  1.00  0.00     0.041 C 
BRANCH  24  25
HETATM   25  C18 UNL     1      23.486   4.447  51.366  1.00  0.00     0.249 C 
HETATM   26  N4  UNL     1      23.982   3.587  50.302  1.00  0.00     0.090 N 
HETATM   27  C19 UNL     1      23.679   4.212  48.994  1.00  0.00     0.270 C 
HETATM   28  H18 UNL     1      25.028   3.463  50.378  1.00  0.00     0.316 HD
HETATM   29  C20 UNL     1      24.434   5.475  48.830  1.00  0.00     0.033 C 
HETATM   30  C21 UNL     1      24.960   5.995  50.163  1.00  0.00     0.035 C 
HETATM   31  C22 UNL     1      23.855   5.900  51.193  1.00  0.00     0.151 C 
BRANCH  31  32
HETATM   32  O2  UNL     1      24.256   6.467  52.422  1.00  0.00    -0.393 OA
HETATM   33  H26 UNL     1      23.623   7.172  52.699  1.00  0.00     0.210 HD
ENDBRANCH  31  32
ENDBRANCH  24  25
ENDBRANCH  23  24
ENDBRANCH  20  23
ENDBRANCH  19  20
ENDBRANCH   1  18
TORSDOF 7
ENDMDL
MODEL 4
REMARK VINA RESULT:      -8.7      4.492      7.234
REMARK  7 active torsions:
REMARK  status: ('A' for Active; 'I' for Inactive)
REMARK    1  A    between atoms: O1_2  and  C2_3 
REMARK    2  A    between atoms: C2_3  and  C3_4 
REMARK    3  A    between atoms: C2_3  and  C16_22 
REMARK    4  A    between atoms: C4_5  and  C5_6 
REMARK    5  A    between atoms: C16_22  and  C17_23 
REMARK    6  A    between atoms: C17_23  and  C18_24 
REMARK    7  A    between atoms: C22_29  and  O2_30 
ROOT
HETATM    1  C5  UNL     1      21.866   1.771  52.621  1.00  0.00     0.068 A 
HETATM    2  N1  UNL     1      20.745   0.982  52.550  1.00  0.00    -0.241 NA
HETATM    3  C6  UNL     1      21.006  -0.370  52.747  1.00  0.00     0.235 A 
HETATM    4  N2  UNL     1      22.244  -0.800  52.982  1.00  0.00    -0.224 NA
HETATM    5  C7  UNL     1      23.350  -0.041  53.055  1.00  0.00     0.138 A 
HETATM    6  C8  UNL     1      23.136   1.340  52.860  1.00  0.00     0.021 A 
HETATM    7  C9  UNL     1      24.228   2.334  52.923  1.00  0.00     0.086 A 
HETATM    8  C10 UNL     1      25.515   1.645  53.154  1.00  0.00    -0.024 A 
HETATM    9  C11 UNL     1      26.637   2.423  53.210  1.00  0.00     0.053 A 
HETATM   10  C12 UNL     1      27.935   2.050  53.431  1.00  0.00     0.138 A 
HETATM   11  F1  UNL     1      28.997   2.870  53.477  1.00  0.00    -0.204 F 
HETATM   12  C13 UNL     1      28.059   0.655  53.615  1.00  0.00     0.074 A 
HETATM   13 CL1  UNL     1      29.662  -0.040  53.914  1.00  0.00    -0.081 Cl
HETATM   14  C14 UNL     1      27.015  -0.280  53.585  1.00  0.00     0.057 A 
HETATM   15  C15 UNL     1      25.750   0.303  53.347  1.00  0.00     0.042 A 
HETATM   16  N3  UNL     1      24.637  -0.571  53.295  1.00  0.00    -0.340 N 
HETATM   17  H12 UNL     1      24.747  -1.597  53.427  1.00  0.00     0.167 HD
ENDROOT
BRANCH   1  18
HETATM   18  C4  UNL     1      21.605   3.181  52.387  1.00  0.00     0.031 C 
HETATM   19  C3  UNL     1      21.634   3.893  51.248  1.00  0.00     0.007 C 
BRANCH  19  20
HETATM   20  C2  UNL     1      21.922   3.551  49.819  1.00  0.00     0.143 C 
BRANCH  20  21
HETATM   21  O1  UNL     1      22.115   2.307  49.520  1.00  0.00    -0.387 OA
HETATM   22  C1  UNL     1      21.623   1.475  48.613  1.00  0.00     0.202 C 
ENDBRANCH  20  21
BRANCH  20  23
HETATM   23  C16 UNL     1      23.031   4.464  49.274  1.00  0.00     0.038 C 
BRANCH  23  24
HETATM   24  C17 UNL     1      24.342   3.833  49.664  1.00  0.00     0.041 C 
BRANCH  24  25
HETATM   25  C18 UNL     1      25.188   4.743  50.524  1.00  0.00     0.249 C 
HETATM   26  N4  UNL     1      26.566   4.675  50.062  1.00  0.00     0.090 N 
HETATM   27  C19 UNL     1      26.678   5.386  48.767  1.00  0.00     0.270 C 
HETATM   28  H18 UNL     1      27.217   5.138  50.753  1.00  0.00     0.316 HD
HETATM   29  C20 UNL     1      26.418   6.834  48.941  1.00  0.00     0.033 C 
HETATM   30  C21 UNL     1      25.711   7.125  50.260  1.00  0.00     0.035 C 
HETATM   31  C22 UNL     1      24.589   6.126  50.443  1.00  0.00     0.151 C 
BRANCH  31  32
HETATM   32  O2  UNL     1      23.833   6.416  51.599  1.00  0.00    -0.393 OA
HETATM   33  H26 UNL     1      24.424   6.517  52.382  1.00  0.00     0.210 HD
ENDBRANCH  31  32
ENDBRANCH  24  25
ENDBRANCH  23  24
ENDBRANCH  20  23
ENDBRANCH  19  20
ENDBRANCH   1  18
TORSDOF 7
ENDMDL
MODEL 5
REMARK VINA RESULT:      -8.6      6.036      8.527
REMARK  7 active torsions:
REMARK  status: ('A' for Active; 'I' for Inactive)
REMARK    1  A    between atoms: O1_2  and  C2_3 
REMARK    2  A    between atoms: C2_3  and  C3_4 
REMARK    3  A    between atoms: C2_3  and  C16_22 
REMARK    4  A    between atoms: C4_5  and  C5_6 
REMARK    5  A    between atoms: C16_22  and  C17_23 
REMARK    6  A    between atoms: C17_23  and  C18_24 
REMARK    7  A    between atoms: C22_29  and  O2_30 
ROOT
HETATM    1  C5  UNL     1      23.480   4.323  49.517  1.00  0.00     0.068 A 
HETATM    2  N1  UNL     1      22.200   4.777  49.723  1.00  0.00    -0.241 NA
HETATM    3  C6  UNL     1      22.075   6.157  49.598  1.00  0.00     0.235 A 
HETATM    4  N2  UNL     1      23.128   6.914  49.301  1.00  0.00    -0.224 NA
HETATM    5  C7  UNL     1      24.385   6.485  49.096  1.00  0.00     0.138 A 
HETATM    6  C8  UNL     1      24.563   5.091  49.213  1.00  0.00     0.021 A 
HETATM    7  C9  UNL     1      25.869   4.432  49.004  1.00  0.00     0.086 A 
HETATM    8  C10 UNL     1      26.902   5.452  48.725  1.00  0.00    -0.024 A 
HETATM    9  C11 UNL     1      28.181   5.009  48.534  1.00  0.00     0.053 A 
HETATM   10  C12 UNL     1      29.308   5.727  48.242  1.00  0.00     0.138 A 
HETATM   11  F1  UNL     1      30.541   5.228  48.063  1.00  0.00    -0.204 F 
HETATM   12  C13 UNL     1      29.041   7.111  48.143  1.00  0.00     0.074 A 
HETATM   13 CL1  UNL     1      30.369   8.225  47.773  1.00  0.00    -0.081 Cl
HETATM   14  C14 UNL     1      27.793   7.727  48.312  1.00  0.00     0.057 A 
HETATM   15  C15 UNL     1      26.755   6.815  48.604  1.00  0.00     0.042 A 
HETATM   16  N3  UNL     1      25.459   7.353  48.796  1.00  0.00    -0.340 N 
HETATM   17  H12 UNL     1      25.281   8.375  48.725  1.00  0.00     0.167 HD
ENDROOT
BRANCH   1  18
HETATM   18  C4  UNL     1      23.624   2.887  49.676  1.00  0.00     0.031 C 
HETATM   19  C3  UNL     1      23.662   2.133  50.788  1.00  0.00     0.007 C 
BRANCH  19  20
HETATM   20  C2  UNL     1      23.568   2.440  52.250  1.00  0.00     0.143 C 
BRANCH  20  21
HETATM   21  O1  UNL     1      24.066   3.558  52.669  1.00  0.00    -0.387 OA
HETATM   22  C1  UNL     1      23.561   4.711  53.085  1.00  0.00     0.202 C 
ENDBRANCH  20  21
BRANCH  20  23
HETATM   23  C16 UNL     1      24.057   1.238  53.072  1.00  0.00     0.038 C 
BRANCH  23  24
HETATM   24  C17 UNL     1      25.491   0.998  52.679  1.00  0.00     0.041 C 
BRANCH  24  25
HETATM   25  C18 UNL     1      26.407   0.888  53.877  1.00  0.00     0.249 C 
HETATM   26  N4  UNL     1      26.539  -0.516  54.236  1.00  0.00     0.090 N 
HETATM   27  C19 UNL     1      27.375  -1.199  53.223  1.00  0.00     0.270 C 
HETATM   28  H18 UNL     1      27.006  -0.619  55.178  1.00  0.00     0.316 HD
HETATM   29  C20 UNL     1      28.762  -0.679  53.251  1.00  0.00     0.033 C 
HETATM   30  C21 UNL     1      28.847   0.658  53.978  1.00  0.00     0.035 C 
HETATM   31  C22 UNL     1      27.714   1.544  53.506  1.00  0.00     0.151 C 
BRANCH  31  32
HETATM   32  O2  UNL     1      27.809   2.834  54.069  1.00  0.00    -0.393 OA
HETATM   33  H26 UNL     1      27.040   3.009  54.662  1.00  0.00     0.210 HD
ENDBRANCH  31  32
ENDBRANCH  24  25
ENDBRANCH  23  24
ENDBRANCH  20  23
ENDBRANCH  19  20
ENDBRANCH   1  18
TORSDOF 7
ENDMDL
MODEL 6
REMARK VINA RESULT:      -8.3      4.543      7.759
REMARK  7 active torsions:
REMARK  status: ('A' for Active; 'I' for Inactive)
REMARK    1  A    between atoms: O1_2  and  C2_3 
REMARK    2  A    between atoms: C2_3  and  C3_4 
REMARK    3  A    between atoms: C2_3  and  C16_22 
REMARK    4  A    between atoms: C4_5  and  C5_6 
REMARK    5  A    between atoms: C16_22  and  C17_23 
REMARK    6  A    between atoms: C17_23  and  C18_24 
REMARK    7  A    between atoms: C22_29  and  O2_30 
ROOT
HETATM    1  C5  UNL     1      23.072   4.251  49.912  1.00  0.00     0.068 A 
HETATM    2  N1  UNL     1      22.218   5.310  50.089  1.00  0.00    -0.241 NA
HETATM    3  C6  UNL     1      22.146   5.751  51.407  1.00  0.00     0.235 A 
HETATM    4  N2  UNL     1      22.863   5.165  52.364  1.00  0.00    -0.224 NA
HETATM    5  C7  UNL     1      23.704   4.128  52.206  1.00  0.00     0.138 A 
HETATM    6  C8  UNL     1      23.810   3.645  50.885  1.00  0.00     0.021 A 
HETATM    7  C9  UNL     1      24.698   2.524  50.513  1.00  0.00     0.086 A 
HETATM    8  C10 UNL     1      25.367   1.998  51.722  1.00  0.00    -0.024 A 
HETATM    9  C11 UNL     1      26.208   0.933  51.555  1.00  0.00     0.053 A 
HETATM   10  C12 UNL     1      26.961   0.274  52.489  1.00  0.00     0.138 A 
HETATM   11  F1  UNL     1      27.773  -0.769  52.258  1.00  0.00    -0.204 F 
HETATM   12  C13 UNL     1      26.796   0.821  53.782  1.00  0.00     0.074 A 
HETATM   13 CL1  UNL     1      27.682   0.112  55.142  1.00  0.00    -0.081 Cl
HETATM   14  C14 UNL     1      25.974   1.905  54.123  1.00  0.00     0.057 A 
HETATM   15  C15 UNL     1      25.282   2.450  53.018  1.00  0.00     0.042 A 
HETATM   16  N3  UNL     1      24.424   3.548  53.274  1.00  0.00    -0.340 N 
HETATM   17  H12 UNL     1      24.310   3.934  54.232  1.00  0.00     0.167 HD
ENDROOT
BRANCH   1  18
HETATM   18  C4  UNL     1      23.130   3.767  48.545  1.00  0.00     0.031 C 
HETATM   19  C3  UNL     1      22.344   2.888  47.898  1.00  0.00     0.007 C 
BRANCH  19  20
HETATM   20  C2  UNL     1      21.142   2.089  48.293  1.00  0.00     0.143 C 
BRANCH  20  21
HETATM   21  O1  UNL     1      20.113   2.726  48.751  1.00  0.00    -0.387 OA
HETATM   22  C1  UNL     1      19.232   3.573  48.239  1.00  0.00     0.202 C 
ENDBRANCH  20  21
BRANCH  20  23
HETATM   23  C16 UNL     1      21.561   0.924  49.202  1.00  0.00     0.038 C 
BRANCH  23  24
HETATM   24  C17 UNL     1      21.003   1.218  50.570  1.00  0.00     0.041 C 
BRANCH  24  25
HETATM   25  C18 UNL     1      20.777  -0.036  51.384  1.00  0.00     0.249 C 
HETATM   26  N4  UNL     1      21.948  -0.270  52.215  1.00  0.00     0.090 N 
HETATM   27  C19 UNL     1      21.976   0.730  53.307  1.00  0.00     0.270 C 
HETATM   28  H18 UNL     1      21.914  -1.234  52.647  1.00  0.00     0.316 HD
HETATM   29  C20 UNL     1      20.828   0.537  54.223  1.00  0.00     0.033 C 
HETATM   30  C21 UNL     1      19.737  -0.318  53.588  1.00  0.00     0.035 C 
HETATM   31  C22 UNL     1      19.505   0.161  52.171  1.00  0.00     0.151 C 
BRANCH  31  32
HETATM   32  O2  UNL     1      18.430  -0.528  51.571  1.00  0.00    -0.393 OA
HETATM   33  H26 UNL     1      18.647  -1.484  51.466  1.00  0.00     0.210 HD
ENDBRANCH  31  32
ENDBRANCH  24  25
ENDBRANCH  23  24
ENDBRANCH  20  23
ENDBRANCH  19  20
ENDBRANCH   1  18
TORSDOF 7
ENDMDL
MODEL 7
REMARK VINA RESULT:      -8.3      5.628      9.160
REMARK  7 active torsions:
REMARK  status: ('A' for Active; 'I' for Inactive)
REMARK    1  A    between atoms: O1_2  and  C2_3 
REMARK    2  A    between atoms: C2_3  and  C3_4 
REMARK    3  A    between atoms: C2_3  and  C16_22 
REMARK    4  A    between atoms: C4_5  and  C5_6 
REMARK    5  A    between atoms: C16_22  and  C17_23 
REMARK    6  A    between atoms: C17_23  and  C18_24 
REMARK    7  A    between atoms: C22_29  and  O2_30 
ROOT
HETATM    1  C5  UNL     1      23.083   3.674  50.609  1.00  0.00     0.068 A 
HETATM    2  N1  UNL     1      21.886   4.035  51.176  1.00  0.00    -0.241 NA
HETATM    3  C6  UNL     1      21.734   5.410  51.320  1.00  0.00     0.235 A 
HETATM    4  N2  UNL     1      22.689   6.249  50.925  1.00  0.00    -0.224 NA
HETATM    5  C7  UNL     1      23.864   5.911  50.368  1.00  0.00     0.138 A 
HETATM    6  C8  UNL     1      24.066   4.525  50.202  1.00  0.00     0.021 A 
HETATM    7  C9  UNL     1      25.289   3.964  49.591  1.00  0.00     0.086 A 
HETATM    8  C10 UNL     1      26.227   5.057  49.262  1.00  0.00    -0.024 A 
HETATM    9  C11 UNL     1      27.427   4.703  48.711  1.00  0.00     0.053 A 
HETATM   10  C12 UNL     1      28.456   5.506  48.297  1.00  0.00     0.138 A 
HETATM   11  F1  UNL     1      29.614   5.093  47.758  1.00  0.00    -0.204 F 
HETATM   12  C13 UNL     1      28.172   6.875  48.499  1.00  0.00     0.074 A 
HETATM   13 CL1  UNL     1      29.376   8.088  48.032  1.00  0.00    -0.081 Cl
HETATM   14  C14 UNL     1      26.996   7.403  49.052  1.00  0.00     0.057 A 
HETATM   15  C15 UNL     1      26.055   6.414  49.413  1.00  0.00     0.042 A 
HETATM   16  N3  UNL     1      24.839   6.860  49.985  1.00  0.00    -0.340 N 
HETATM   17  H12 UNL     1      24.648   7.871  50.132  1.00  0.00     0.167 HD
ENDROOT
BRANCH   1  18
HETATM   18  C4  UNL     1      23.262   2.238  50.482  1.00  0.00     0.031 C 
HETATM   19  C3  UNL     1      23.432   1.296  51.425  1.00  0.00     0.007 C 
BRANCH  19  20
HETATM   20  C2  UNL     1      23.498   1.327  52.920  1.00  0.00     0.143 C 
BRANCH  20  21
HETATM   21  O1  UNL     1      24.665   1.320  53.478  1.00  0.00    -0.387 OA
HETATM   22  C1  UNL     1      25.747   2.080  53.392  1.00  0.00     0.202 C 
ENDBRANCH  20  21
BRANCH  20  23
HETATM   23  C16 UNL     1      22.562   0.260  53.509  1.00  0.00     0.038 C 
BRANCH  23  24
HETATM   24  C17 UNL     1      21.515  -0.024  52.463  1.00  0.00     0.041 C 
BRANCH  24  25
HETATM   25  C18 UNL     1      20.166   0.556  52.823  1.00  0.00     0.249 C 
HETATM   26  N4  UNL     1      19.893   1.684  51.945  1.00  0.00     0.090 N 
HETATM   27  C19 UNL     1      19.589   1.177  50.587  1.00  0.00     0.270 C 
HETATM   28  H18 UNL     1      19.059   2.234  52.289  1.00  0.00     0.316 HD
HETATM   29  C20 UNL     1      18.329   0.396  50.589  1.00  0.00     0.033 C 
HETATM   30  C21 UNL     1      17.930  -0.025  51.999  1.00  0.00     0.035 C 
HETATM   31  C22 UNL     1      19.154  -0.557  52.714  1.00  0.00     0.151 C 
BRANCH  31  32
HETATM   32  O2  UNL     1      18.819  -1.061  53.988  1.00  0.00    -0.393 OA
HETATM   33  H26 UNL     1      19.144  -0.455  54.696  1.00  0.00     0.210 HD
ENDBRANCH  31  32
ENDBRANCH  24  25
ENDBRANCH  23  24
ENDBRANCH  20  23
ENDBRANCH  19  20
ENDBRANCH   1  18
TORSDOF 7
ENDMDL
MODEL 8
REMARK VINA RESULT:      -8.2      4.613      9.186
REMARK  7 active torsions:
REMARK  status: ('A' for Active; 'I' for Inactive)
REMARK    1  A    between atoms: O1_2  and  C2_3 
REMARK    2  A    between atoms: C2_3  and  C3_4 
REMARK    3  A    between atoms: C2_3  and  C16_22 
REMARK    4  A    between atoms: C4_5  and  C5_6 
REMARK    5  A    between atoms: C16_22  and  C17_23 
REMARK    6  A    between atoms: C17_23  and  C18_24 
REMARK    7  A    between atoms: C22_29  and  O2_30 
ROOT
HETATM    1  C5  UNL     1      22.255   2.154  51.838  1.00  0.00     0.068 A 
HETATM    2  N1  UNL     1      21.562   3.338  51.887  1.00  0.00    -0.241 NA
HETATM    3  C6  UNL     1      22.310   4.398  52.389  1.00  0.00     0.235 A 
HETATM    4  N2  UNL     1      23.575   4.224  52.766  1.00  0.00    -0.224 NA
HETATM    5  C7  UNL     1      24.267   3.073  52.723  1.00  0.00     0.138 A 
HETATM    6  C8  UNL     1      23.549   1.966  52.222  1.00  0.00     0.021 A 
HETATM    7  C9  UNL     1      24.148   0.623  52.082  1.00  0.00     0.086 A 
HETATM    8  C10 UNL     1      25.536   0.642  52.590  1.00  0.00    -0.024 A 
HETATM    9  C11 UNL     1      26.227  -0.537  52.558  1.00  0.00     0.053 A 
HETATM   10  C12 UNL     1      27.516  -0.792  52.942  1.00  0.00     0.138 A 
HETATM   11  F1  UNL     1      28.140  -1.979  52.881  1.00  0.00    -0.204 F 
HETATM   12  C13 UNL     1      28.160   0.367  53.430  1.00  0.00     0.074 A 
HETATM   13 CL1  UNL     1      29.840   0.256  53.983  1.00  0.00    -0.081 Cl
HETATM   14  C14 UNL     1      27.596   1.647  53.532  1.00  0.00     0.057 A 
HETATM   15  C15 UNL     1      26.258   1.704  53.083  1.00  0.00     0.042 A 
HETATM   16  N3  UNL     1      25.607   2.961  53.155  1.00  0.00    -0.340 N 
HETATM   17  H12 UNL     1      26.095   3.802  53.523  1.00  0.00     0.167 HD
ENDROOT
BRANCH   1  18
HETATM   18  C4  UNL     1      21.471   1.036  51.343  1.00  0.00     0.031 C 
HETATM   19  C3  UNL     1      20.609   0.228  51.982  1.00  0.00     0.007 C 
BRANCH  19  20
HETATM   20  C2  UNL     1      20.115   0.148  53.393  1.00  0.00     0.143 C 
BRANCH  20  21
HETATM   21  O1  UNL     1      20.993   0.098  54.342  1.00  0.00    -0.387 OA
HETATM   22  C1  UNL     1      21.856  -0.811  54.772  1.00  0.00     0.202 C 
ENDBRANCH  20  21
BRANCH  20  23
HETATM   23  C16 UNL     1      19.056  -0.957  53.517  1.00  0.00     0.038 C 
BRANCH  23  24
HETATM   24  C17 UNL     1      18.074  -0.744  52.395  1.00  0.00     0.041 C 
BRANCH  24  25
HETATM   25  C18 UNL     1      16.638  -0.865  52.853  1.00  0.00     0.249 C 
HETATM   26  N4  UNL     1      15.878   0.250  52.306  1.00  0.00     0.090 N 
HETATM   27  C19 UNL     1      15.691   0.041  50.852  1.00  0.00     0.270 C 
HETATM   28  H18 UNL     1      14.926   0.312  52.759  1.00  0.00     0.316 HD
HETATM   29  C20 UNL     1      14.840  -1.145  50.599  1.00  0.00     0.033 C 
HETATM   30  C21 UNL     1      14.749  -2.045  51.826  1.00  0.00     0.035 C 
HETATM   31  C22 UNL     1      16.135  -2.216  52.410  1.00  0.00     0.151 C 
BRANCH  31  32
HETATM   32  O2  UNL     1      16.124  -3.128  53.487  1.00  0.00    -0.393 OA
HETATM   33  H26 UNL     1      16.739  -2.830  54.198  1.00  0.00     0.210 HD
ENDBRANCH  31  32
ENDBRANCH  24  25
ENDBRANCH  23  24
ENDBRANCH  20  23
ENDBRANCH  19  20
ENDBRANCH   1  18
TORSDOF 7
ENDMDL
MODEL 9
REMARK VINA RESULT:      -7.9      7.591      9.377
REMARK  7 active torsions:
REMARK  status: ('A' for Active; 'I' for Inactive)
REMARK    1  A    between atoms: O1_2  and  C2_3 
REMARK    2  A    between atoms: C2_3  and  C3_4 
REMARK    3  A    between atoms: C2_3  and  C16_22 
REMARK    4  A    between atoms: C4_5  and  C5_6 
REMARK    5  A    between atoms: C16_22  and  C17_23 
REMARK    6  A    between atoms: C17_23  and  C18_24 
REMARK    7  A    between atoms: C22_29  and  O2_30 
ROOT
HETATM    1  C5  UNL     1      27.185   6.622  48.181  1.00  0.00     0.068 A 
HETATM    2  N1  UNL     1      26.746   7.833  47.707  1.00  0.00    -0.241 NA
HETATM    3  C6  UNL     1      25.447   8.143  48.096  1.00  0.00     0.235 A 
HETATM    4  N2  UNL     1      24.744   7.308  48.858  1.00  0.00    -0.224 NA
HETATM    5  C7  UNL     1      25.160   6.120  49.330  1.00  0.00     0.138 A 
HETATM    6  C8  UNL     1      26.473   5.761  48.962  1.00  0.00     0.021 A 
HETATM    7  C9  UNL     1      27.110   4.502  49.401  1.00  0.00     0.086 A 
HETATM    8  C10 UNL     1      26.150   3.712  50.200  1.00  0.00    -0.024 A 
HETATM    9  C11 UNL     1      26.576   2.498  50.662  1.00  0.00     0.053 A 
HETATM   10  C12 UNL     1      25.907   1.586  51.433  1.00  0.00     0.138 A 
HETATM   11  F1  UNL     1      26.385   0.406  51.858  1.00  0.00    -0.204 F 
HETATM   12  C13 UNL     1      24.602   2.024  51.756  1.00  0.00     0.074 A 
HETATM   13 CL1  UNL     1      23.562   0.988  52.748  1.00  0.00    -0.081 Cl
HETATM   14  C14 UNL     1      24.014   3.234  51.361  1.00  0.00     0.057 A 
HETATM   15  C15 UNL     1      24.867   4.038  50.573  1.00  0.00     0.042 A 
HETATM   16  N3  UNL     1      24.350   5.279  50.126  1.00  0.00    -0.340 N 
HETATM   17  H12 UNL     1      23.386   5.583  50.368  1.00  0.00     0.167 HD
ENDROOT
BRANCH   1  18
HETATM   18  C4  UNL     1      28.530   6.279  47.755  1.00  0.00     0.031 C 
HETATM   19  C3  UNL     1      29.711   6.842  48.063  1.00  0.00     0.007 C 
BRANCH  19  20
HETATM   20  C2  UNL     1      30.114   7.991  48.934  1.00  0.00     0.143 C 
BRANCH  20  21
HETATM   21  O1  UNL     1      29.804   9.185  48.545  1.00  0.00    -0.387 OA
HETATM   22  C1  UNL     1      30.422  10.357  48.535  1.00  0.00     0.202 C 
ENDBRANCH  20  21
BRANCH  20  23
HETATM   23  C16 UNL     1      31.597   7.866  49.314  1.00  0.00     0.038 C 
BRANCH  23  24
HETATM   24  C17 UNL     1      32.269   7.109  48.198  1.00  0.00     0.041 C 
BRANCH  24  25
HETATM   25  C18 UNL     1      33.303   6.129  48.705  1.00  0.00     0.249 C 
HETATM   26  N4  UNL     1      32.645   4.865  48.997  1.00  0.00     0.090 N 
HETATM   27  C19 UNL     1      32.282   4.202  47.723  1.00  0.00     0.270 C 
HETATM   28  H18 UNL     1      33.289   4.223  49.535  1.00  0.00     0.316 HD
HETATM   29  C20 UNL     1      33.498   3.821  46.967  1.00  0.00     0.033 C 
HETATM   30  C21 UNL     1      34.731   4.564  47.469  1.00  0.00     0.035 C 
HETATM   31  C22 UNL     1      34.379   6.025  47.652  1.00  0.00     0.151 C 
BRANCH  31  32
HETATM   32  O2  UNL     1      35.514   6.780  48.014  1.00  0.00    -0.393 OA
HETATM   33  H26 UNL     1      35.421   7.713  47.708  1.00  0.00     0.210 HD
ENDBRANCH  31  32
ENDBRANCH  24  25
ENDBRANCH  23  24
ENDBRANCH  20  23
ENDBRANCH  19  20
ENDBRANCH   1  18
TORSDOF 7
ENDMDL
