MODEL 1
REMARK VINA RESULT:     -10.1      0.000      0.000
REMARK  3 active torsions:
REMARK  status: ('A' for Active; 'I' for Inactive)
REMARK    1  A    between atoms: C3_4  and  C4_5 
REMARK    2  A    between atoms: C13_16  and  C14_17 
REMARK    3  A    between atoms: N3_20  and  C17_21 
ROOT
HETATM    1  C1  UNL     1      29.927  -1.829  53.456  1.00  0.00     0.039 C 
HETATM    2  C2  UNL     1      29.352  -0.893  53.939  1.00  0.00     0.023 C 
HETATM    3  N1  UNL     1      28.706   0.198  54.506  1.00  0.00    -0.211 NA
HETATM    4  C3  UNL     1      27.444   0.361  54.580  1.00  0.00     0.128 C 
ENDROOT
BRANCH   4   5
HETATM    5  C4  UNL     1      26.040   0.076  54.418  1.00  0.00     0.030 C 
HETATM    6  C5  UNL     1      25.309   0.735  53.541  1.00  0.00    -0.023 A 
HETATM    7  C6  UNL     1      25.732   1.810  52.616  1.00  0.00     0.159 A 
HETATM    8  C8  UNL     1      23.892   0.494  53.332  1.00  0.00     0.046 A 
HETATM    9  N2  UNL     1      24.482   2.092  51.906  1.00  0.00    -0.387 N 
HETATM   10  C7  UNL     1      23.435   1.289  52.384  1.00  0.00     0.033 A 
HETATM   11  H6  UNL     1      24.560   2.836  51.167  1.00  0.00     0.159 HD
HETATM   12  C24 UNL     1      22.043   1.344  51.887  1.00  0.00     0.024 A 
HETATM   13  C23 UNL     1      21.227   0.362  52.618  1.00  0.00    -0.029 A 
HETATM   14  C25 UNL     1      22.019   1.110  50.395  1.00  0.00     0.027 C 
HETATM   15  C26 UNL     1      21.457   2.730  52.139  1.00  0.00     0.027 C 
HETATM   16  C10 UNL     1      21.602  -0.508  53.616  1.00  0.00     0.022 A 
HETATM   17  C22 UNL     1      19.908   0.354  52.206  1.00  0.00     0.016 A 
HETATM   18  C9  UNL     1      23.002  -0.443  53.995  1.00  0.00     0.195 A 
HETATM   19  C11 UNL     1      20.711  -1.376  54.207  1.00  0.00     0.016 A 
HETATM   20  O1  UNL     1      23.417  -1.210  54.901  1.00  0.00    -0.287 OA
HETATM   21  C12 UNL     1      19.399  -1.366  53.781  1.00  0.00     0.008 A 
HETATM   22  C13 UNL     1      18.984  -0.519  52.794  1.00  0.00    -0.053 A 
BRANCH  22  23
HETATM   23  C14 UNL     1      17.568  -0.594  52.417  1.00  0.00     0.021 C 
HETATM   24  C15 UNL     1      17.319  -0.286  50.962  1.00  0.00     0.029 C 
HETATM   25  C16 UNL     1      15.853   0.122  50.838  1.00  0.00     0.118 C 
HETATM   26  N3  UNL     1      15.109  -0.568  51.835  1.00  0.00    -0.404 N 
HETATM   27  C20 UNL     1      15.558  -1.898  51.983  1.00  0.00     0.118 C 
HETATM   28  C21 UNL     1      16.898  -1.908  52.728  1.00  0.00     0.029 C 
BRANCH  26  29
HETATM   29  C17 UNL     1      13.743  -0.273  51.936  1.00  0.00     0.126 C 
HETATM   30  C18 UNL     1      12.971  -0.834  53.102  1.00  0.00     0.194 C 
HETATM   31  O2  UNL     1      13.248   0.357  53.810  1.00  0.00    -0.387 OA
HETATM   32  C19 UNL     1      13.318   0.993  52.574  1.00  0.00     0.194 C 
ENDBRANCH  26  29
ENDBRANCH  22  23
ENDBRANCH   4   5
TORSDOF 3
ENDMDL
MODEL 2
REMARK VINA RESULT:      -9.7      1.521      2.471
REMARK  3 active torsions:
REMARK  status: ('A' for Active; 'I' for Inactive)
REMARK    1  A    between atoms: C3_4  and  C4_5 
REMARK    2  A    between atoms: C13_16  and  C14_17 
REMARK    3  A    between atoms: N3_20  and  C17_21 
ROOT
HETATM    1  C1  UNL     1      29.757  -0.990  53.746  1.00  0.00     0.039 C 
HETATM    2  C2  UNL     1      29.412   0.130  53.491  1.00  0.00     0.023 C 
HETATM    3  N1  UNL     1      29.033   1.434  53.202  1.00  0.00    -0.211 NA
HETATM    4  C3  UNL     1      27.863   1.813  52.864  1.00  0.00     0.128 C 
ENDROOT
BRANCH   4   5
HETATM    5  C4  UNL     1      26.460   1.720  52.542  1.00  0.00     0.030 C 
HETATM    6  C5  UNL     1      25.668   0.889  53.189  1.00  0.00    -0.023 A 
HETATM    7  C6  UNL     1      26.012  -0.043  54.286  1.00  0.00     0.159 A 
HETATM    8  C8  UNL     1      24.249   0.750  52.909  1.00  0.00     0.046 A 
HETATM    9  N2  UNL     1      24.710  -0.646  54.576  1.00  0.00    -0.387 N 
HETATM   10  C7  UNL     1      23.715  -0.142  53.722  1.00  0.00     0.033 A 
HETATM   11  H6  UNL     1      24.719  -1.347  55.360  1.00  0.00     0.159 HD
HETATM   12  C24 UNL     1      22.297  -0.561  53.748  1.00  0.00     0.024 A 
HETATM   13  C23 UNL     1      21.554   0.177  52.715  1.00  0.00    -0.029 A 
HETATM   14  C25 UNL     1      21.722  -0.349  55.129  1.00  0.00     0.027 C 
HETATM   15  C26 UNL     1      22.191  -2.050  53.436  1.00  0.00     0.027 C 
HETATM   16  C10 UNL     1      22.010   1.120  51.823  1.00  0.00     0.022 A 
HETATM   17  C22 UNL     1      20.215  -0.161  52.678  1.00  0.00     0.016 A 
HETATM   18  C9  UNL     1      23.426   1.424  51.921  1.00  0.00     0.195 A 
HETATM   19  C11 UNL     1      21.181   1.728  50.907  1.00  0.00     0.016 A 
HETATM   20  O1  UNL     1      23.914   2.278  51.136  1.00  0.00    -0.287 OA
HETATM   21  C12 UNL     1      19.847   1.373  50.888  1.00  0.00     0.008 A 
HETATM   22  C13 UNL     1      19.353   0.442  51.756  1.00  0.00    -0.053 A 
BRANCH  22  23
HETATM   23  C14 UNL     1      17.920   0.142  51.649  1.00  0.00     0.021 C 
HETATM   24  C15 UNL     1      17.453  -0.040  50.227  1.00  0.00     0.029 C 
HETATM   25  C16 UNL     1      15.944   0.193  50.221  1.00  0.00     0.118 C 
HETATM   26  N3  UNL     1      15.423  -0.208  51.483  1.00  0.00    -0.404 N 
HETATM   27  C20 UNL     1      16.047  -1.386  51.946  1.00  0.00     0.118 C 
HETATM   28  C21 UNL     1      17.462  -1.058  52.438  1.00  0.00     0.029 C 
BRANCH  26  29
HETATM   29  C17 UNL     1      14.055  -0.004  51.707  1.00  0.00     0.126 C 
HETATM   30  C18 UNL     1      13.581   0.197  53.124  1.00  0.00     0.194 C 
HETATM   31  O2  UNL     1      13.725   1.590  52.934  1.00  0.00    -0.387 OA
HETATM   32  C19 UNL     1      13.493   1.359  51.581  1.00  0.00     0.194 C 
ENDBRANCH  26  29
ENDBRANCH  22  23
ENDBRANCH   4   5
TORSDOF 3
ENDMDL
MODEL 3
REMARK VINA RESULT:      -9.6      2.291     10.101
REMARK  3 active torsions:
REMARK  status: ('A' for Active; 'I' for Inactive)
REMARK    1  A    between atoms: C3_4  and  C4_5 
REMARK    2  A    between atoms: C13_16  and  C14_17 
REMARK    3  A    between atoms: N3_20  and  C17_21 
ROOT
HETATM    1  C1  UNL     1      14.122  -2.709  48.104  1.00  0.00     0.039 C 
HETATM    2  C2  UNL     1      14.198  -1.939  49.021  1.00  0.00     0.023 C 
HETATM    3  N1  UNL     1      14.263  -1.048  50.083  1.00  0.00    -0.211 NA
HETATM    4  C3  UNL     1      15.322  -0.497  50.530  1.00  0.00     0.128 C 
ENDROOT
BRANCH   4   5
HETATM    5  C4  UNL     1      16.722  -0.166  50.640  1.00  0.00     0.030 C 
HETATM    6  C5  UNL     1      17.413  -0.485  51.715  1.00  0.00    -0.023 A 
HETATM    7  C6  UNL     1      16.948  -1.189  52.932  1.00  0.00     0.159 A 
HETATM    8  C8  UNL     1      18.823  -0.178  51.885  1.00  0.00     0.046 A 
HETATM    9  N2  UNL     1      18.181  -1.254  53.719  1.00  0.00    -0.387 N 
HETATM   10  C7  UNL     1      19.246  -0.631  53.050  1.00  0.00     0.033 A 
HETATM   11  H6  UNL     1      18.080  -1.746  54.644  1.00  0.00     0.159 HD
HETATM   12  C24 UNL     1      20.619  -0.513  53.586  1.00  0.00     0.024 A 
HETATM   13  C23 UNL     1      21.461   0.198  52.612  1.00  0.00    -0.029 A 
HETATM   14  C25 UNL     1      21.162  -1.882  53.921  1.00  0.00     0.027 C 
HETATM   15  C26 UNL     1      20.602   0.298  54.879  1.00  0.00     0.027 C 
HETATM   16  C10 UNL     1      21.123   0.707  51.380  1.00  0.00     0.022 A 
HETATM   17  C22 UNL     1      22.765   0.347  53.044  1.00  0.00     0.016 A 
HETATM   18  C9  UNL     1      19.737   0.513  50.993  1.00  0.00     0.195 A 
HETATM   19  C11 UNL     1      22.036   1.353  50.575  1.00  0.00     0.016 A 
HETATM   20  O1  UNL     1      19.356   0.953  49.878  1.00  0.00    -0.287 OA
HETATM   21  C12 UNL     1      23.332   1.491  51.028  1.00  0.00     0.008 A 
HETATM   22  C13 UNL     1      23.710   1.000  52.245  1.00  0.00    -0.053 A 
BRANCH  22  23
HETATM   23  C14 UNL     1      25.113   1.202  52.625  1.00  0.00     0.021 C 
HETATM   24  C15 UNL     1      26.006   1.537  51.458  1.00  0.00     0.029 C 
HETATM   25  C16 UNL     1      27.433   1.194  51.876  1.00  0.00     0.118 C 
HETATM   26  N3  UNL     1      27.546   1.380  53.281  1.00  0.00    -0.404 N 
HETATM   27  C20 UNL     1      26.845   2.530  53.705  1.00  0.00     0.118 C 
HETATM   28  C21 UNL     1      25.338   2.247  53.688  1.00  0.00     0.029 C 
BRANCH  26  29
HETATM   29  C17 UNL     1      28.770   1.045  53.878  1.00  0.00     0.126 C 
HETATM   30  C18 UNL     1      28.751   0.243  55.154  1.00  0.00     0.194 C 
HETATM   31  O2  UNL     1      28.846  -0.930  54.373  1.00  0.00    -0.387 OA
HETATM   32  C19 UNL     1      29.497  -0.158  53.416  1.00  0.00     0.194 C 
ENDBRANCH  26  29
ENDBRANCH  22  23
ENDBRANCH   4   5
TORSDOF 3
ENDMDL
MODEL 4
REMARK VINA RESULT:      -9.6      2.133      9.950
REMARK  3 active torsions:
REMARK  status: ('A' for Active; 'I' for Inactive)
REMARK    1  A    between atoms: C3_4  and  C4_5 
REMARK    2  A    between atoms: C13_16  and  C14_17 
REMARK    3  A    between atoms: N3_20  and  C17_21 
ROOT
HETATM    1  C1  UNL     1      13.610  -1.661  48.696  1.00  0.00     0.039 C 
HETATM    2  C2  UNL     1      13.619  -1.340  49.852  1.00  0.00     0.023 C 
HETATM    3  N1  UNL     1      13.609  -0.965  51.189  1.00  0.00    -0.211 NA
HETATM    4  C3  UNL     1      14.634  -0.840  51.936  1.00  0.00     0.128 C 
ENDROOT
BRANCH   4   5
HETATM    5  C4  UNL     1      16.023  -0.845  52.325  1.00  0.00     0.030 C 
HETATM    6  C5  UNL     1      16.909  -0.102  51.693  1.00  0.00    -0.023 A 
HETATM    7  C6  UNL     1      16.693   0.815  50.552  1.00  0.00     0.159 A 
HETATM    8  C8  UNL     1      18.319  -0.066  52.038  1.00  0.00     0.046 A 
HETATM    9  N2  UNL     1      18.042   1.344  50.343  1.00  0.00    -0.387 N 
HETATM   10  C7  UNL     1      18.955   0.776  51.245  1.00  0.00     0.033 A 
HETATM   11  H6  UNL     1      18.117   2.049  49.566  1.00  0.00     0.159 HD
HETATM   12  C24 UNL     1      20.401   1.088  51.282  1.00  0.00     0.024 A 
HETATM   13  C23 UNL     1      21.038   0.308  52.354  1.00  0.00    -0.029 A 
HETATM   14  C25 UNL     1      20.603   2.574  51.458  1.00  0.00     0.027 C 
HETATM   15  C26 UNL     1      21.050   0.694  49.959  1.00  0.00     0.027 C 
HETATM   16  C10 UNL     1      20.472  -0.589  53.230  1.00  0.00     0.022 A 
HETATM   17  C22 UNL     1      22.396   0.547  52.452  1.00  0.00     0.016 A 
HETATM   18  C9  UNL     1      19.043  -0.789  53.068  1.00  0.00     0.195 A 
HETATM   19  C11 UNL     1      21.211  -1.247  54.189  1.00  0.00     0.016 A 
HETATM   20  O1  UNL     1      18.457  -1.596  53.835  1.00  0.00    -0.287 OA
HETATM   21  C12 UNL     1      22.565  -0.993  54.267  1.00  0.00     0.008 A 
HETATM   22  C13 UNL     1      23.167  -0.110  53.417  1.00  0.00    -0.053 A 
BRANCH  22  23
HETATM   23  C14 UNL     1      24.611   0.085  53.590  1.00  0.00     0.021 C 
HETATM   24  C15 UNL     1      25.443  -0.730  52.632  1.00  0.00     0.029 C 
HETATM   25  C16 UNL     1      26.835  -0.854  53.247  1.00  0.00     0.118 C 
HETATM   26  N3  UNL     1      27.091   0.313  54.018  1.00  0.00    -0.404 N 
HETATM   27  C20 UNL     1      26.602   1.471  53.376  1.00  0.00     0.118 C 
HETATM   28  C21 UNL     1      25.074   1.517  53.494  1.00  0.00     0.029 C 
BRANCH  26  29
HETATM   29  C17 UNL     1      28.298   0.361  54.729  1.00  0.00     0.126 C 
HETATM   30  C18 UNL     1      29.418  -0.554  54.306  1.00  0.00     0.194 C 
HETATM   31  O2  UNL     1      29.901   0.483  53.476  1.00  0.00    -0.387 OA
HETATM   32  C19 UNL     1      29.314   1.375  54.367  1.00  0.00     0.194 C 
ENDBRANCH  26  29
ENDBRANCH  22  23
ENDBRANCH   4   5
TORSDOF 3
ENDMDL
MODEL 5
REMARK VINA RESULT:      -9.4      6.177      8.593
REMARK  3 active torsions:
REMARK  status: ('A' for Active; 'I' for Inactive)
REMARK    1  A    between atoms: C3_4  and  C4_5 
REMARK    2  A    between atoms: C13_16  and  C14_17 
REMARK    3  A    between atoms: N3_20  and  C17_21 
ROOT
HETATM    1  C1  UNL     1      31.193  11.183  47.944  1.00  0.00     0.039 C 
HETATM    2  C2  UNL     1      30.866  10.374  47.121  1.00  0.00     0.023 C 
HETATM    3  N1  UNL     1      30.495   9.450  46.153  1.00  0.00    -0.211 NA
HETATM    4  C3  UNL     1      29.833   8.381  46.358  1.00  0.00     0.128 C 
ENDROOT
BRANCH   4   5
HETATM    5  C4  UNL     1      29.110   7.365  47.083  1.00  0.00     0.030 C 
HETATM    6  C5  UNL     1      27.874   7.569  47.490  1.00  0.00    -0.023 A 
HETATM    7  C6  UNL     1      27.034   8.774  47.308  1.00  0.00     0.159 A 
HETATM    8  C8  UNL     1      27.096   6.586  48.224  1.00  0.00     0.046 A 
HETATM    9  N2  UNL     1      25.786   8.361  47.953  1.00  0.00    -0.387 N 
HETATM   10  C7  UNL     1      25.893   7.064  48.481  1.00  0.00     0.033 A 
HETATM   11  H6  UNL     1      25.021   9.081  47.923  1.00  0.00     0.159 HD
HETATM   12  C24 UNL     1      24.813   6.364  49.209  1.00  0.00     0.024 A 
HETATM   13  C23 UNL     1      25.284   5.030  49.612  1.00  0.00    -0.029 A 
HETATM   14  C25 UNL     1      23.572   6.298  48.351  1.00  0.00     0.027 C 
HETATM   15  C26 UNL     1      24.452   7.140  50.472  1.00  0.00     0.027 C 
HETATM   16  C10 UNL     1      26.508   4.439  49.396  1.00  0.00     0.022 A 
HETATM   17  C22 UNL     1      24.325   4.311  50.300  1.00  0.00     0.016 A 
HETATM   18  C9  UNL     1      27.464   5.253  48.667  1.00  0.00     0.195 A 
HETATM   19  C11 UNL     1      26.799   3.168  49.840  1.00  0.00     0.016 A 
HETATM   20  O1  UNL     1      28.604   4.777  48.432  1.00  0.00    -0.287 OA
HETATM   21  C12 UNL     1      25.827   2.470  50.526  1.00  0.00     0.008 A 
HETATM   22  C13 UNL     1      24.599   3.019  50.762  1.00  0.00    -0.053 A 
BRANCH  22  23
HETATM   23  C14 UNL     1      23.640   2.187  51.499  1.00  0.00     0.021 C 
HETATM   24  C15 UNL     1      22.623   1.518  50.610  1.00  0.00     0.029 C 
HETATM   25  C16 UNL     1      21.430   1.159  51.491  1.00  0.00     0.118 C 
HETATM   26  N3  UNL     1      21.905   0.897  52.806  1.00  0.00    -0.404 N 
HETATM   27  C20 UNL     1      23.122   0.182  52.779  1.00  0.00     0.118 C 
HETATM   28  C21 UNL     1      24.261   1.122  52.367  1.00  0.00     0.029 C 
BRANCH  26  29
HETATM   29  C17 UNL     1      20.948   0.618  53.791  1.00  0.00     0.126 C 
HETATM   30  C18 UNL     1      19.778  -0.260  53.429  1.00  0.00     0.194 C 
HETATM   31  O2  UNL     1      20.523  -1.374  53.879  1.00  0.00    -0.387 OA
HETATM   32  C19 UNL     1      21.183  -0.498  54.735  1.00  0.00     0.194 C 
ENDBRANCH  26  29
ENDBRANCH  22  23
ENDBRANCH   4   5
TORSDOF 3
ENDMDL
MODEL 6
REMARK VINA RESULT:      -9.3      5.723     10.619
REMARK  3 active torsions:
REMARK  status: ('A' for Active; 'I' for Inactive)
REMARK    1  A    between atoms: C3_4  and  C4_5 
REMARK    2  A    between atoms: C13_16  and  C14_17 
REMARK    3  A    between atoms: N3_20  and  C17_21 
ROOT
HETATM    1  C1  UNL     1      18.419  -1.412  53.386  1.00  0.00     0.039 C 
HETATM    2  C2  UNL     1      19.507  -1.534  53.877  1.00  0.00     0.023 C 
HETATM    3  N1  UNL     1      20.756  -1.689  54.461  1.00  0.00    -0.211 NA
HETATM    4  C3  UNL     1      21.828  -1.103  54.095  1.00  0.00     0.128 C 
ENDROOT
BRANCH   4   5
HETATM    5  C4  UNL     1      22.695  -0.241  53.331  1.00  0.00     0.030 C 
HETATM    6  C5  UNL     1      22.259   0.902  52.842  1.00  0.00    -0.023 A 
HETATM    7  C6  UNL     1      20.908   1.496  52.961  1.00  0.00     0.159 A 
HETATM    8  C8  UNL     1      23.083   1.811  52.065  1.00  0.00     0.046 A 
HETATM    9  N2  UNL     1      21.080   2.758  52.237  1.00  0.00    -0.387 N 
HETATM   10  C7  UNL     1      22.383   2.877  51.726  1.00  0.00     0.033 A 
HETATM   11  H6  UNL     1      20.222   3.365  52.212  1.00  0.00     0.159 HD
HETATM   12  C24 UNL     1      22.870   4.026  50.933  1.00  0.00     0.024 A 
HETATM   13  C23 UNL     1      24.278   3.804  50.571  1.00  0.00    -0.029 A 
HETATM   14  C25 UNL     1      22.673   5.308  51.707  1.00  0.00     0.027 C 
HETATM   15  C26 UNL     1      22.062   4.145  49.644  1.00  0.00     0.027 C 
HETATM   16  C10 UNL     1      25.094   2.738  50.871  1.00  0.00     0.022 A 
HETATM   17  C22 UNL     1      24.807   4.841  49.826  1.00  0.00     0.016 A 
HETATM   18  C9  UNL     1      24.471   1.688  51.656  1.00  0.00     0.195 A 
HETATM   19  C11 UNL     1      26.406   2.676  50.456  1.00  0.00     0.016 A 
HETATM   20  O1  UNL     1      25.158   0.681  51.969  1.00  0.00    -0.287 OA
HETATM   21  C12 UNL     1      26.912   3.723  49.712  1.00  0.00     0.008 A 
HETATM   22  C13 UNL     1      26.136   4.800  49.392  1.00  0.00    -0.053 A 
BRANCH  22  23
HETATM   23  C14 UNL     1      26.777   5.856  48.599  1.00  0.00     0.021 C 
HETATM   24  C15 UNL     1      26.593   7.234  49.180  1.00  0.00     0.029 C 
HETATM   25  C16 UNL     1      26.812   8.230  48.044  1.00  0.00     0.118 C 
HETATM   26  N3  UNL     1      27.745   7.669  47.130  1.00  0.00    -0.404 N 
HETATM   27  C20 UNL     1      28.781   6.989  47.805  1.00  0.00     0.118 C 
HETATM   28  C21 UNL     1      28.251   5.657  48.350  1.00  0.00     0.029 C 
BRANCH  26  29
HETATM   29  C17 UNL     1      28.029   8.402  45.969  1.00  0.00     0.126 C 
HETATM   30  C18 UNL     1      27.781   9.889  45.980  1.00  0.00     0.194 C 
HETATM   31  O2  UNL     1      29.122  10.071  46.385  1.00  0.00    -0.387 OA
HETATM   32  C19 UNL     1      29.409   8.878  45.730  1.00  0.00     0.194 C 
ENDBRANCH  26  29
ENDBRANCH  22  23
ENDBRANCH   4   5
TORSDOF 3
ENDMDL
MODEL 7
REMARK VINA RESULT:      -9.1      2.643      9.926
REMARK  3 active torsions:
REMARK  status: ('A' for Active; 'I' for Inactive)
REMARK    1  A    between atoms: C3_4  and  C4_5 
REMARK    2  A    between atoms: C13_16  and  C14_17 
REMARK    3  A    between atoms: N3_20  and  C17_21 
ROOT
HETATM    1  C1  UNL     1      14.156   4.548  49.843  1.00  0.00     0.039 C 
HETATM    2  C2  UNL     1      14.318   3.375  49.653  1.00  0.00     0.023 C 
HETATM    3  N1  UNL     1      14.487   2.016  49.424  1.00  0.00    -0.211 NA
HETATM    4  C3  UNL     1      15.475   1.311  49.814  1.00  0.00     0.128 C 
ENDROOT
BRANCH   4   5
HETATM    5  C4  UNL     1      16.730   0.989  50.447  1.00  0.00     0.030 C 
HETATM    6  C5  UNL     1      17.841   1.612  50.109  1.00  0.00    -0.023 A 
HETATM    7  C6  UNL     1      18.026   2.680  49.101  1.00  0.00     0.159 A 
HETATM    8  C8  UNL     1      19.134   1.332  50.709  1.00  0.00     0.046 A 
HETATM    9  N2  UNL     1      19.458   2.955  49.227  1.00  0.00    -0.387 N 
HETATM   10  C7  UNL     1      20.054   2.119  50.185  1.00  0.00     0.033 A 
HETATM   11  H6  UNL     1      19.812   3.718  48.595  1.00  0.00     0.159 HD
HETATM   12  C24 UNL     1      21.491   2.135  50.534  1.00  0.00     0.024 A 
HETATM   13  C23 UNL     1      21.750   1.126  51.572  1.00  0.00    -0.029 A 
HETATM   14  C25 UNL     1      21.901   3.522  50.969  1.00  0.00     0.027 C 
HETATM   15  C26 UNL     1      22.326   1.779  49.307  1.00  0.00     0.027 C 
HETATM   16  C10 UNL     1      20.870   0.261  52.181  1.00  0.00     0.022 A 
HETATM   17  C22 UNL     1      23.078   1.082  51.953  1.00  0.00     0.016 A 
HETATM   18  C9  UNL     1      19.494   0.365  51.731  1.00  0.00     0.195 A 
HETATM   19  C11 UNL     1      21.271  -0.635  53.148  1.00  0.00     0.016 A 
HETATM   20  O1  UNL     1      18.633  -0.394  52.245  1.00  0.00    -0.287 OA
HETATM   21  C12 UNL     1      22.601  -0.662  53.511  1.00  0.00     0.008 A 
HETATM   22  C13 UNL     1      23.508   0.179  52.932  1.00  0.00    -0.053 A 
BRANCH  22  23
HETATM   23  C14 UNL     1      24.896   0.066  53.395  1.00  0.00     0.021 C 
HETATM   24  C15 UNL     1      25.028  -0.650  54.715  1.00  0.00     0.029 C 
HETATM   25  C16 UNL     1      26.370  -0.235  55.313  1.00  0.00     0.118 C 
HETATM   26  N3  UNL     1      27.274   0.031  54.248  1.00  0.00    -0.404 N 
HETATM   27  C20 UNL     1      27.122  -0.902  53.200  1.00  0.00     0.118 C 
HETATM   28  C21 UNL     1      25.839  -0.594  52.420  1.00  0.00     0.029 C 
BRANCH  26  29
HETATM   29  C17 UNL     1      28.550   0.500  54.590  1.00  0.00     0.126 C 
HETATM   30  C18 UNL     1      29.688   0.248  53.634  1.00  0.00     0.194 C 
HETATM   31  O2  UNL     1      29.419   1.502  53.042  1.00  0.00    -0.387 OA
HETATM   32  C19 UNL     1      28.916   1.900  54.277  1.00  0.00     0.194 C 
ENDBRANCH  26  29
ENDBRANCH  22  23
ENDBRANCH   4   5
TORSDOF 3
ENDMDL
MODEL 8
REMARK VINA RESULT:      -8.7      6.777     11.306
REMARK  3 active torsions:
REMARK  status: ('A' for Active; 'I' for Inactive)
REMARK    1  A    between atoms: C3_4  and  C4_5 
REMARK    2  A    between atoms: C13_16  and  C14_17 
REMARK    3  A    between atoms: N3_20  and  C17_21 
ROOT
HETATM    1  C1  UNL     1      20.146  -0.441  53.415  1.00  0.00     0.039 C 
HETATM    2  C2  UNL     1      21.318  -0.648  53.565  1.00  0.00     0.023 C 
HETATM    3  N1  UNL     1      22.670  -0.904  53.755  1.00  0.00    -0.211 NA
HETATM    4  C3  UNL     1      23.632  -0.259  53.222  1.00  0.00     0.128 C 
ENDROOT
BRANCH   4   5
HETATM    5  C4  UNL     1      24.304   0.730  52.416  1.00  0.00     0.030 C 
HETATM    6  C5  UNL     1      23.743   1.894  52.158  1.00  0.00    -0.023 A 
HETATM    7  C6  UNL     1      22.422   2.395  52.600  1.00  0.00     0.159 A 
HETATM    8  C8  UNL     1      24.369   2.928  51.353  1.00  0.00     0.046 A 
HETATM    9  N2  UNL     1      22.407   3.736  52.012  1.00  0.00    -0.387 N 
HETATM   10  C7  UNL     1      23.581   3.983  51.282  1.00  0.00     0.033 A 
HETATM   11  H6  UNL     1      21.541   4.293  52.223  1.00  0.00     0.159 HD
HETATM   12  C24 UNL     1      23.865   5.239  50.553  1.00  0.00     0.024 A 
HETATM   13  C23 UNL     1      25.183   5.137  49.907  1.00  0.00    -0.029 A 
HETATM   14  C25 UNL     1      23.780   6.414  51.498  1.00  0.00     0.027 C 
HETATM   15  C26 UNL     1      22.819   5.454  49.464  1.00  0.00     0.027 C 
HETATM   16  C10 UNL     1      26.077   4.092  49.918  1.00  0.00     0.022 A 
HETATM   17  C22 UNL     1      25.521   6.277  49.205  1.00  0.00     0.016 A 
HETATM   18  C9  UNL     1      25.655   2.928  50.677  1.00  0.00     0.195 A 
HETATM   19  C11 UNL     1      27.285   4.150  49.258  1.00  0.00     0.016 A 
HETATM   20  O1  UNL     1      26.423   1.933  50.732  1.00  0.00    -0.287 OA
HETATM   21  C12 UNL     1      27.601   5.299  48.562  1.00  0.00     0.008 A 
HETATM   22  C13 UNL     1      26.742   6.359  48.525  1.00  0.00    -0.053 A 
BRANCH  22  23
HETATM   23  C14 UNL     1      27.180   7.531  47.756  1.00  0.00     0.021 C 
HETATM   24  C15 UNL     1      28.485   7.316  47.034  1.00  0.00     0.029 C 
HETATM   25  C16 UNL     1      29.068   8.698  46.749  1.00  0.00     0.118 C 
HETATM   26  N3  UNL     1      27.992   9.612  46.578  1.00  0.00    -0.404 N 
HETATM   27  C20 UNL     1      26.932   9.028  45.852  1.00  0.00     0.118 C 
HETATM   28  C21 UNL     1      26.178   8.040  46.750  1.00  0.00     0.029 C 
BRANCH  26  29
HETATM   29  C17 UNL     1      28.320  10.961  46.378  1.00  0.00     0.126 C 
HETATM   30  C18 UNL     1      27.455  12.014  47.021  1.00  0.00     0.194 C 
HETATM   31  O2  UNL     1      28.328  11.998  48.132  1.00  0.00    -0.387 OA
HETATM   32  C19 UNL     1      29.329  11.600  47.252  1.00  0.00     0.194 C 
ENDBRANCH  26  29
ENDBRANCH  22  23
ENDBRANCH   4   5
TORSDOF 3
ENDMDL
MODEL 9
REMARK VINA RESULT:      -8.6      7.285      9.479
REMARK  3 active torsions:
REMARK  status: ('A' for Active; 'I' for Inactive)
REMARK    1  A    between atoms: C3_4  and  C4_5 
REMARK    2  A    between atoms: C13_16  and  C14_17 
REMARK    3  A    between atoms: N3_20  and  C17_21 
ROOT
HETATM    1  C1  UNL     1      32.570  11.513  47.293  1.00  0.00     0.039 C 
HETATM    2  C2  UNL     1      32.702  10.409  46.841  1.00  0.00     0.023 C 
HETATM    3  N1  UNL     1      32.871   9.140  46.305  1.00  0.00    -0.211 NA
HETATM    4  C3  UNL     1      32.115   8.135  46.517  1.00  0.00     0.128 C 
ENDROOT
BRANCH   4   5
HETATM    5  C4  UNL     1      31.018   7.366  47.051  1.00  0.00     0.030 C 
HETATM    6  C5  UNL     1      29.811   7.885  47.152  1.00  0.00    -0.023 A 
HETATM    7  C6  UNL     1      29.359   9.243  46.774  1.00  0.00     0.159 A 
HETATM    8  C8  UNL     1      28.667   7.162  47.681  1.00  0.00     0.046 A 
HETATM    9  N2  UNL     1      27.934   9.179  47.104  1.00  0.00    -0.387 N 
HETATM   10  C7  UNL     1      27.594   7.928  47.644  1.00  0.00     0.033 A 
HETATM   11  H6  UNL     1      27.399  10.059  46.892  1.00  0.00     0.159 HD
HETATM   12  C24 UNL     1      26.236   7.552  48.095  1.00  0.00     0.024 A 
HETATM   13  C23 UNL     1      26.258   6.171  48.600  1.00  0.00    -0.029 A 
HETATM   14  C25 UNL     1      25.249   7.734  46.967  1.00  0.00     0.027 C 
HETATM   15  C26 UNL     1      25.797   8.467  49.235  1.00  0.00     0.027 C 
HETATM   16  C10 UNL     1      27.314   5.292  48.682  1.00  0.00     0.022 A 
HETATM   17  C22 UNL     1      25.020   5.745  49.042  1.00  0.00     0.016 A 
HETATM   18  C9  UNL     1      28.583   5.809  48.200  1.00  0.00     0.195 A 
HETATM   19  C11 UNL     1      27.173   4.018  49.184  1.00  0.00     0.016 A 
HETATM   20  O1  UNL     1      29.593   5.061  48.244  1.00  0.00    -0.287 OA
HETATM   21  C12 UNL     1      25.927   3.615  49.620  1.00  0.00     0.008 A 
HETATM   22  C13 UNL     1      24.852   4.455  49.557  1.00  0.00    -0.053 A 
BRANCH  22  23
HETATM   23  C14 UNL     1      23.575   3.922  50.046  1.00  0.00     0.021 C 
HETATM   24  C15 UNL     1      23.634   2.457  50.396  1.00  0.00     0.029 C 
HETATM   25  C16 UNL     1      22.200   1.934  50.360  1.00  0.00     0.118 C 
HETATM   26  N3  UNL     1      21.326   2.994  50.727  1.00  0.00    -0.404 N 
HETATM   27  C20 UNL     1      21.868   3.768  51.776  1.00  0.00     0.118 C 
HETATM   28  C21 UNL     1      22.995   4.653  51.231  1.00  0.00     0.029 C 
BRANCH  26  29
HETATM   29  C17 UNL     1      19.949   2.735  50.685  1.00  0.00     0.126 C 
HETATM   30  C18 UNL     1      19.487   1.301  50.692  1.00  0.00     0.194 C 
HETATM   31  O2  UNL     1      19.399   1.376  52.100  1.00  0.00    -0.387 OA
HETATM   32  C19 UNL     1      19.171   2.740  51.944  1.00  0.00     0.194 C 
ENDBRANCH  26  29
ENDBRANCH  22  23
ENDBRANCH   4   5
TORSDOF 3
ENDMDL
