MODEL 1
REMARK VINA RESULT:      -8.0      0.000      0.000
REMARK  5 active torsions:
REMARK  status: ('A' for Active; 'I' for Inactive)
REMARK    1  A    between atoms: O1_2  and  C2_3 
REMARK    2  A    between atoms: C2_3  and  C3_4 
REMARK    3  A    between atoms: C3_4  and  O2_5 
REMARK    4  A    between atoms: O2_5  and  C4_6 
REMARK    5  A    between atoms: C11_15  and  N1_16 
ROOT
HETATM    1  C4  UNL     1      25.639   0.186  54.124  1.00  0.00     0.097 C 
HETATM    2  C5  UNL     1      25.258  -0.398  55.288  1.00  0.00     0.169 C 
HETATM    3  O3  UNL     1      24.175  -1.124  55.214  1.00  0.00    -0.358 OA
HETATM    4  C6  UNL     1      23.090  -1.852  55.140  1.00  0.00     0.200 C 
HETATM    5  C7  UNL     1      21.732  -1.243  54.862  1.00  0.00     0.194 C 
HETATM    6  O4  UNL     1      21.597  -0.556  53.623  1.00  0.00    -0.385 OA
HETATM    7  C8  UNL     1      22.589   0.336  53.714  1.00  0.00     0.196 C 
HETATM    8  C9  UNL     1      23.035   1.378  52.849  1.00  0.00     0.012 C 
HETATM    9  C10 UNL     1      24.310   1.400  52.352  1.00  0.00     0.017 A 
HETATM   10  C11 UNL     1      24.621   2.546  51.465  1.00  0.00     0.136 A 
HETATM   11  N2  UNL     1      25.788   2.694  50.933  1.00  0.00    -0.224 NA
HETATM   12  C20 UNL     1      26.731   1.674  51.278  1.00  0.00     0.230 A 
HETATM   13  N3  UNL     1      26.531   0.680  52.027  1.00  0.00    -0.266 NA
HETATM   14  C21 UNL     1      25.299   0.336  52.723  1.00  0.00     0.204 A 
ENDROOT
BRANCH  10  15
HETATM   15  N1  UNL     1      23.652   3.537  51.153  1.00  0.00    -0.354 N 
HETATM   16  C12 UNL     1      23.687   4.871  51.681  1.00  0.00     0.152 C 
HETATM   17  C13 UNL     1      23.921   5.849  50.584  1.00  0.00    -0.007 C 
HETATM   18  C14 UNL     1      23.802   5.831  49.247  1.00  0.00    -0.002 C 
HETATM   19  C15 UNL     1      23.354   4.680  48.468  1.00  0.00     0.004 C 
HETATM   20  C16 UNL     1      22.858   3.513  48.838  1.00  0.00    -0.061 C 
HETATM   21  C17 UNL     1      22.500   2.551  47.738  1.00  0.00     0.045 C 
HETATM   22  C18 UNL     1      22.629   3.078  50.255  1.00  0.00     0.111 C 
HETATM   23  C19 UNL     1      21.254   3.603  50.646  1.00  0.00     0.037 C 
ENDBRANCH  10  15
BRANCH   1  24
HETATM   24  O2  UNL     1      26.783   0.843  54.611  1.00  0.00    -0.349 OA
BRANCH  24  25
HETATM   25  C3  UNL     1      27.973   0.163  54.921  1.00  0.00     0.201 C 
BRANCH  25  26
HETATM   26  C2  UNL     1      29.131   1.034  54.478  1.00  0.00     0.193 C 
BRANCH  26  27
HETATM   27  O1  UNL     1      29.730   0.394  53.403  1.00  0.00    -0.394 OA
HETATM   28  C1  UNL     1      29.686  -0.977  53.708  1.00  0.00     0.201 C 
ENDBRANCH  26  27
ENDBRANCH  25  26
ENDBRANCH  24  25
ENDBRANCH   1  24
TORSDOF 5
ENDMDL
MODEL 2
REMARK VINA RESULT:      -7.4      8.402     11.217
REMARK  5 active torsions:
REMARK  status: ('A' for Active; 'I' for Inactive)
REMARK    1  A    between atoms: O1_2  and  C2_3 
REMARK    2  A    between atoms: C2_3  and  C3_4 
REMARK    3  A    between atoms: C3_4  and  O2_5 
REMARK    4  A    between atoms: O2_5  and  C4_6 
REMARK    5  A    between atoms: C11_15  and  N1_16 
ROOT
HETATM    1  C4  UNL     1      30.225   8.857  48.533  1.00  0.00     0.097 C 
HETATM    2  C5  UNL     1      28.960   9.337  48.428  1.00  0.00     0.169 C 
HETATM    3  O3  UNL     1      28.026   8.536  48.866  1.00  0.00    -0.358 OA
HETATM    4  C6  UNL     1      27.090   7.733  49.304  1.00  0.00     0.200 C 
HETATM    5  C7  UNL     1      26.775   6.419  48.624  1.00  0.00     0.194 C 
HETATM    6  O4  UNL     1      27.838   5.474  48.566  1.00  0.00    -0.385 OA
HETATM    7  C8  UNL     1      28.788   6.192  47.959  1.00  0.00     0.196 C 
HETATM    8  C9  UNL     1      30.117   5.885  47.544  1.00  0.00     0.012 C 
HETATM    9  C10 UNL     1      31.195   6.583  48.016  1.00  0.00     0.017 A 
HETATM   10  C11 UNL     1      32.510   6.141  47.494  1.00  0.00     0.136 A 
HETATM   11  N2  UNL     1      33.609   6.718  47.851  1.00  0.00    -0.224 NA
HETATM   12  C20 UNL     1      33.439   7.800  48.772  1.00  0.00     0.230 A 
HETATM   13  N3  UNL     1      32.353   8.226  49.248  1.00  0.00    -0.266 NA
HETATM   14  C21 UNL     1      31.014   7.723  48.973  1.00  0.00     0.204 A 
ENDROOT
BRANCH  10  15
HETATM   15  N1  UNL     1      32.629   5.062  46.578  1.00  0.00    -0.354 N 
HETATM   16  C12 UNL     1      32.755   5.240  45.159  1.00  0.00     0.152 C 
HETATM   17  C13 UNL     1      34.090   4.770  44.701  1.00  0.00    -0.007 C 
HETATM   18  C14 UNL     1      35.046   3.973  45.203  1.00  0.00    -0.002 C 
HETATM   19  C15 UNL     1      34.970   3.297  46.496  1.00  0.00     0.004 C 
HETATM   20  C16 UNL     1      33.984   3.183  47.366  1.00  0.00    -0.061 C 
HETATM   21  C17 UNL     1      34.272   2.397  48.616  1.00  0.00     0.045 C 
HETATM   22  C18 UNL     1      32.613   3.771  47.206  1.00  0.00     0.111 C 
HETATM   23  C19 UNL     1      31.806   2.759  46.403  1.00  0.00     0.037 C 
ENDBRANCH  10  15
BRANCH   1  24
HETATM   24  O2  UNL     1      30.892   9.965  47.980  1.00  0.00    -0.349 OA
BRANCH  24  25
HETATM   25  C3  UNL     1      30.774  10.320  46.626  1.00  0.00     0.201 C 
BRANCH  25  26
HETATM   26  C2  UNL     1      32.134  10.142  45.983  1.00  0.00     0.193 C 
BRANCH  26  27
HETATM   27  O1  UNL     1      32.179   8.849  45.484  1.00  0.00    -0.394 OA
HETATM   28  C1  UNL     1      30.955   8.658  44.821  1.00  0.00     0.201 C 
ENDBRANCH  26  27
ENDBRANCH  25  26
ENDBRANCH  24  25
ENDBRANCH   1  24
TORSDOF 5
ENDMDL
MODEL 3
REMARK VINA RESULT:      -7.4      2.061      2.882
REMARK  5 active torsions:
REMARK  status: ('A' for Active; 'I' for Inactive)
REMARK    1  A    between atoms: O1_2  and  C2_3 
REMARK    2  A    between atoms: C2_3  and  C3_4 
REMARK    3  A    between atoms: C3_4  and  O2_5 
REMARK    4  A    between atoms: O2_5  and  C4_6 
REMARK    5  A    between atoms: C11_15  and  N1_16 
ROOT
HETATM    1  C4  UNL     1      25.740   2.046  52.050  1.00  0.00     0.097 C 
HETATM    2  C5  UNL     1      25.422   1.293  53.133  1.00  0.00     0.169 C 
HETATM    3  O3  UNL     1      24.236   0.747  53.098  1.00  0.00    -0.358 OA
HETATM    4  C6  UNL     1      23.048   0.200  53.063  1.00  0.00     0.200 C 
HETATM    5  C7  UNL     1      21.781   1.026  53.116  1.00  0.00     0.194 C 
HETATM    6  O4  UNL     1      21.601   1.964  52.061  1.00  0.00    -0.385 OA
HETATM    7  C8  UNL     1      22.727   2.678  52.156  1.00  0.00     0.196 C 
HETATM    8  C9  UNL     1      23.220   3.807  51.438  1.00  0.00     0.012 C 
HETATM    9  C10 UNL     1      24.408   3.761  50.760  1.00  0.00     0.017 A 
HETATM   10  C11 UNL     1      24.783   5.012  50.059  1.00  0.00     0.136 A 
HETATM   11  N2  UNL     1      25.882   5.109  49.387  1.00  0.00    -0.224 NA
HETATM   12  C20 UNL     1      26.684   3.924  49.388  1.00  0.00     0.230 A 
HETATM   13  N3  UNL     1      26.425   2.834  49.965  1.00  0.00    -0.266 NA
HETATM   14  C21 UNL     1      25.252   2.522  50.770  1.00  0.00     0.204 A 
ENDROOT
BRANCH  10  15
HETATM   15  N1  UNL     1      23.954   6.165  50.089  1.00  0.00    -0.354 N 
HETATM   16  C12 UNL     1      24.161   7.264  50.988  1.00  0.00     0.152 C 
HETATM   17  C13 UNL     1      24.527   8.488  50.226  1.00  0.00    -0.007 C 
HETATM   18  C14 UNL     1      24.415   8.886  48.949  1.00  0.00    -0.002 C 
HETATM   19  C15 UNL     1      23.825   8.088  47.877  1.00  0.00     0.004 C 
HETATM   20  C16 UNL     1      23.178   6.936  47.900  1.00  0.00    -0.061 C 
HETATM   21  C17 UNL     1      22.704   6.401  46.576  1.00  0.00     0.045 C 
HETATM   22  C18 UNL     1      22.885   6.129  49.130  1.00  0.00     0.111 C 
HETATM   23  C19 UNL     1      21.589   6.683  49.705  1.00  0.00     0.037 C 
ENDBRANCH  10  15
BRANCH   1  24
HETATM   24  O2  UNL     1      27.028   2.432  52.463  1.00  0.00    -0.349 OA
BRANCH  24  25
HETATM   25  C3  UNL     1      27.924   1.543  53.080  1.00  0.00     0.201 C 
BRANCH  25  26
HETATM   26  C2  UNL     1      28.945   2.368  53.836  1.00  0.00     0.193 C 
BRANCH  26  27
HETATM   27  O1  UNL     1      29.227   1.686  55.010  1.00  0.00    -0.394 OA
HETATM   28  C1  UNL     1      28.706   0.394  54.831  1.00  0.00     0.201 C 
ENDBRANCH  26  27
ENDBRANCH  25  26
ENDBRANCH  24  25
ENDBRANCH   1  24
TORSDOF 5
ENDMDL
MODEL 4
REMARK VINA RESULT:      -7.1      2.940      6.401
REMARK  5 active torsions:
REMARK  status: ('A' for Active; 'I' for Inactive)
REMARK    1  A    between atoms: O1_2  and  C2_3 
REMARK    2  A    between atoms: C2_3  and  C3_4 
REMARK    3  A    between atoms: C3_4  and  O2_5 
REMARK    4  A    between atoms: O2_5  and  C4_6 
REMARK    5  A    between atoms: C11_15  and  N1_16 
ROOT
HETATM    1  C4  UNL     1      19.899   0.559  52.933  1.00  0.00     0.097 C 
HETATM    2  C5  UNL     1      20.060  -0.646  53.534  1.00  0.00     0.169 C 
HETATM    3  O3  UNL     1      21.157  -0.774  54.232  1.00  0.00    -0.358 OA
HETATM    4  C6  UNL     1      22.255  -0.902  54.931  1.00  0.00     0.200 C 
HETATM    5  C7  UNL     1      23.624  -0.907  54.285  1.00  0.00     0.194 C 
HETATM    6  O4  UNL     1      23.980   0.268  53.566  1.00  0.00    -0.385 OA
HETATM    7  C8  UNL     1      22.965   0.359  52.701  1.00  0.00     0.196 C 
HETATM    8  C9  UNL     1      22.667   1.276  51.650  1.00  0.00     0.012 C 
HETATM    9  C10 UNL     1      21.515   2.014  51.647  1.00  0.00     0.017 A 
HETATM   10  C11 UNL     1      21.352   2.925  50.490  1.00  0.00     0.136 A 
HETATM   11  N2  UNL     1      20.308   3.673  50.358  1.00  0.00    -0.224 NA
HETATM   12  C20 UNL     1      19.345   3.538  51.408  1.00  0.00     0.230 A 
HETATM   13  N3  UNL     1      19.422   2.782  52.414  1.00  0.00    -0.266 NA
HETATM   14  C21 UNL     1      20.503   1.864  52.743  1.00  0.00     0.204 A 
ENDROOT
BRANCH  10  15
HETATM   15  N1  UNL     1      22.335   3.023  49.469  1.00  0.00    -0.354 N 
HETATM   16  C12 UNL     1      22.338   2.200  48.293  1.00  0.00     0.152 C 
HETATM   17  C13 UNL     1      22.103   3.034  47.084  1.00  0.00    -0.007 C 
HETATM   18  C14 UNL     1      22.195   4.342  46.794  1.00  0.00    -0.002 C 
HETATM   19  C15 UNL     1      22.603   5.377  47.740  1.00  0.00     0.004 C 
HETATM   20  C16 UNL     1      23.082   5.299  48.969  1.00  0.00    -0.061 C 
HETATM   21  C17 UNL     1      23.398   6.600  49.655  1.00  0.00     0.045 C 
HETATM   22  C18 UNL     1      23.330   4.027  49.724  1.00  0.00     0.111 C 
HETATM   23  C19 UNL     1      24.723   3.559  49.325  1.00  0.00     0.037 C 
ENDBRANCH  10  15
BRANCH   1  24
HETATM   24  O2  UNL     1      18.663   0.296  52.315  1.00  0.00    -0.349 OA
BRANCH  24  25
HETATM   25  C3  UNL     1      17.902  -0.849  52.603  1.00  0.00     0.201 C 
BRANCH  25  26
HETATM   26  C2  UNL     1      16.486  -0.593  52.126  1.00  0.00     0.193 C 
BRANCH  26  27
HETATM   27  O1  UNL     1      15.770  -0.128  53.218  1.00  0.00    -0.394 OA
HETATM   28  C1  UNL     1      14.860   0.809  52.702  1.00  0.00     0.201 C 
ENDBRANCH  26  27
ENDBRANCH  25  26
ENDBRANCH  24  25
ENDBRANCH   1  24
TORSDOF 5
ENDMDL
MODEL 5
REMARK VINA RESULT:      -7.1      2.232      5.634
REMARK  5 active torsions:
REMARK  status: ('A' for Active; 'I' for Inactive)
REMARK    1  A    between atoms: O1_2  and  C2_3 
REMARK    2  A    between atoms: C2_3  and  C3_4 
REMARK    3  A    between atoms: C3_4  and  O2_5 
REMARK    4  A    between atoms: O2_5  and  C4_6 
REMARK    5  A    between atoms: C11_15  and  N1_16 
ROOT
HETATM    1  C4  UNL     1      21.442   0.288  53.016  1.00  0.00     0.097 C 
HETATM    2  C5  UNL     1      21.926  -0.911  53.424  1.00  0.00     0.169 C 
HETATM    3  O3  UNL     1      23.104  -0.870  53.987  1.00  0.00    -0.358 OA
HETATM    4  C6  UNL     1      24.284  -0.829  54.551  1.00  0.00     0.200 C 
HETATM    5  C7  UNL     1      25.530  -0.453  53.779  1.00  0.00     0.194 C 
HETATM    6  O4  UNL     1      25.540   0.846  53.199  1.00  0.00    -0.385 OA
HETATM    7  C8  UNL     1      24.427   0.806  52.459  1.00  0.00     0.196 C 
HETATM    8  C9  UNL     1      23.815   1.747  51.580  1.00  0.00     0.012 C 
HETATM    9  C10 UNL     1      22.543   2.204  51.792  1.00  0.00     0.017 A 
HETATM   10  C11 UNL     1      22.049   3.182  50.794  1.00  0.00     0.136 A 
HETATM   11  N2  UNL     1      20.864   3.688  50.871  1.00  0.00    -0.224 NA
HETATM   12  C20 UNL     1      20.090   3.222  51.981  1.00  0.00     0.230 A 
HETATM   13  N3  UNL     1      20.449   2.392  52.859  1.00  0.00    -0.266 NA
HETATM   14  C21 UNL     1      21.731   1.708  52.951  1.00  0.00     0.204 A 
ENDROOT
BRANCH  10  15
HETATM   15  N1  UNL     1      22.853   3.613  49.705  1.00  0.00    -0.354 N 
HETATM   16  C12 UNL     1      22.767   3.052  48.387  1.00  0.00     0.152 C 
HETATM   17  C13 UNL     1      22.269   4.073  47.428  1.00  0.00    -0.007 C 
HETATM   18  C14 UNL     1      22.180   5.413  47.420  1.00  0.00    -0.002 C 
HETATM   19  C15 UNL     1      22.615   6.282  48.511  1.00  0.00     0.004 C 
HETATM   20  C16 UNL     1      23.276   6.022  49.624  1.00  0.00    -0.061 C 
HETATM   21  C17 UNL     1      23.554   7.189  50.533  1.00  0.00     0.045 C 
HETATM   22  C18 UNL     1      23.766   4.669  50.048  1.00  0.00     0.111 C 
HETATM   23  C19 UNL     1      25.124   4.481  49.387  1.00  0.00     0.037 C 
ENDBRANCH  10  15
BRANCH   1  24
HETATM   24  O2  UNL     1      20.221  -0.172  52.491  1.00  0.00    -0.349 OA
BRANCH  24  25
HETATM   25  C3  UNL     1      19.218  -0.741  53.294  1.00  0.00     0.201 C 
BRANCH  25  26
HETATM   26  C2  UNL     1      17.916  -0.672  52.523  1.00  0.00     0.193 C 
BRANCH  26  27
HETATM   27  O1  UNL     1      17.061  -1.608  53.087  1.00  0.00    -0.394 OA
HETATM   28  C1  UNL     1      17.894  -2.579  53.666  1.00  0.00     0.201 C 
ENDBRANCH  26  27
ENDBRANCH  25  26
ENDBRANCH  24  25
ENDBRANCH   1  24
TORSDOF 5
ENDMDL
MODEL 6
REMARK VINA RESULT:      -6.8      6.258      9.574
REMARK  5 active torsions:
REMARK  status: ('A' for Active; 'I' for Inactive)
REMARK    1  A    between atoms: O1_2  and  C2_3 
REMARK    2  A    between atoms: C2_3  and  C3_4 
REMARK    3  A    between atoms: C3_4  and  O2_5 
REMARK    4  A    between atoms: O2_5  and  C4_6 
REMARK    5  A    between atoms: C11_15  and  N1_16 
ROOT
HETATM    1  C4  UNL     1      29.443   8.744  46.837  1.00  0.00     0.097 C 
HETATM    2  C5  UNL     1      30.776   8.671  47.075  1.00  0.00     0.169 C 
HETATM    3  O3  UNL     1      31.291   7.474  46.977  1.00  0.00    -0.358 OA
HETATM    4  C6  UNL     1      31.807   6.275  46.879  1.00  0.00     0.200 C 
HETATM    5  C7  UNL     1      31.451   5.167  47.846  1.00  0.00     0.194 C 
HETATM    6  O4  UNL     1      30.080   4.792  47.891  1.00  0.00    -0.385 OA
HETATM    7  C8  UNL     1      29.501   5.965  48.166  1.00  0.00     0.196 C 
HETATM    8  C9  UNL     1      28.145   6.347  48.384  1.00  0.00     0.012 C 
HETATM    9  C10 UNL     1      27.528   7.283  47.599  1.00  0.00     0.017 A 
HETATM   10  C11 UNL     1      26.117   7.570  47.949  1.00  0.00     0.136 A 
HETATM   11  N2  UNL     1      25.419   8.437  47.294  1.00  0.00    -0.224 NA
HETATM   12  C20 UNL     1      26.123   9.082  46.228  1.00  0.00     0.230 A 
HETATM   13  N3  UNL     1      27.320   8.887  45.883  1.00  0.00    -0.266 NA
HETATM   14  C21 UNL     1      28.271   7.965  46.489  1.00  0.00     0.204 A 
ENDROOT
BRANCH  10  15
HETATM   15  N1  UNL     1      25.460   6.905  49.019  1.00  0.00    -0.354 N 
HETATM   16  C12 UNL     1      25.501   7.364  50.378  1.00  0.00     0.152 C 
HETATM   17  C13 UNL     1      24.143   7.781  50.818  1.00  0.00    -0.007 C 
HETATM   18  C14 UNL     1      22.890   7.558  50.391  1.00  0.00    -0.002 C 
HETATM   19  C15 UNL     1      22.540   6.738  49.234  1.00  0.00     0.004 C 
HETATM   20  C16 UNL     1      23.274   5.959  48.460  1.00  0.00    -0.061 C 
HETATM   21  C17 UNL     1      22.560   5.254  47.339  1.00  0.00     0.045 C 
HETATM   22  C18 UNL     1      24.748   5.726  48.612  1.00  0.00     0.111 C 
HETATM   23  C19 UNL     1      24.900   4.595  49.621  1.00  0.00     0.037 C 
ENDBRANCH  10  15
BRANCH   1  24
HETATM   24  O2  UNL     1      29.294  10.129  47.036  1.00  0.00    -0.349 OA
BRANCH  24  25
HETATM   25  C3  UNL     1      29.435  10.732  48.297  1.00  0.00     0.201 C 
BRANCH  25  26
HETATM   26  C2  UNL     1      28.067  10.768  48.946  1.00  0.00     0.193 C 
BRANCH  26  27
HETATM   27  O1  UNL     1      27.689  12.101  49.018  1.00  0.00    -0.394 OA
HETATM   28  C1  UNL     1      26.587  12.228  48.155  1.00  0.00     0.201 C 
ENDBRANCH  26  27
ENDBRANCH  25  26
ENDBRANCH  24  25
ENDBRANCH   1  24
TORSDOF 5
ENDMDL
MODEL 7
REMARK VINA RESULT:      -6.8      2.438      5.490
REMARK  5 active torsions:
REMARK  status: ('A' for Active; 'I' for Inactive)
REMARK    1  A    between atoms: O1_2  and  C2_3 
REMARK    2  A    between atoms: C2_3  and  C3_4 
REMARK    3  A    between atoms: C3_4  and  O2_5 
REMARK    4  A    between atoms: O2_5  and  C4_6 
REMARK    5  A    between atoms: C11_15  and  N1_16 
ROOT
HETATM    1  C4  UNL     1      21.386   1.045  52.482  1.00  0.00     0.097 C 
HETATM    2  C5  UNL     1      21.735  -0.242  52.737  1.00  0.00     0.169 C 
HETATM    3  O3  UNL     1      22.911  -0.398  53.282  1.00  0.00    -0.358 OA
HETATM    4  C6  UNL     1      24.090  -0.555  53.828  1.00  0.00     0.200 C 
HETATM    5  C7  UNL     1      25.369  -0.229  53.087  1.00  0.00     0.194 C 
HETATM    6  O4  UNL     1      25.521   1.122  52.667  1.00  0.00    -0.385 OA
HETATM    7  C8  UNL     1      24.409   1.294  51.945  1.00  0.00     0.196 C 
HETATM    8  C9  UNL     1      23.903   2.397  51.195  1.00  0.00     0.012 C 
HETATM    9  C10 UNL     1      22.690   2.962  51.481  1.00  0.00     0.017 A 
HETATM   10  C11 UNL     1      22.306   4.101  50.615  1.00  0.00     0.136 A 
HETATM   11  N2  UNL     1      21.184   4.722  50.770  1.00  0.00    -0.224 NA
HETATM   12  C20 UNL     1      20.366   4.213  51.829  1.00  0.00     0.230 A 
HETATM   13  N3  UNL     1      20.633   3.249  52.595  1.00  0.00    -0.266 NA
HETATM   14  C21 UNL     1      21.831   2.421  52.584  1.00  0.00     0.204 A 
ENDROOT
BRANCH  10  15
HETATM   15  N1  UNL     1      23.150   4.570  49.573  1.00  0.00    -0.354 N 
HETATM   16  C12 UNL     1      23.049   4.125  48.212  1.00  0.00     0.152 C 
HETATM   17  C13 UNL     1      22.628   5.250  47.336  1.00  0.00    -0.007 C 
HETATM   18  C14 UNL     1      22.620   6.589  47.438  1.00  0.00    -0.002 C 
HETATM   19  C15 UNL     1      23.091   7.337  48.601  1.00  0.00     0.004 C 
HETATM   20  C16 UNL     1      23.719   6.947  49.695  1.00  0.00    -0.061 C 
HETATM   21  C17 UNL     1      24.054   8.016  50.700  1.00  0.00     0.045 C 
HETATM   22  C18 UNL     1      24.120   5.536  50.010  1.00  0.00     0.111 C 
HETATM   23  C19 UNL     1      25.474   5.319  49.349  1.00  0.00     0.037 C 
ENDBRANCH  10  15
BRANCH   1  24
HETATM   24  O2  UNL     1      20.120   0.788  51.926  1.00  0.00    -0.349 OA
BRANCH  24  25
HETATM   25  C3  UNL     1      19.950   0.342  50.604  1.00  0.00     0.201 C 
BRANCH  25  26
HETATM   26  C2  UNL     1      19.176   1.407  49.855  1.00  0.00     0.193 C 
BRANCH  26  27
HETATM   27  O1  UNL     1      20.060   1.997  48.963  1.00  0.00    -0.394 OA
HETATM   28  C1  UNL     1      21.104   1.072  48.798  1.00  0.00     0.201 C 
ENDBRANCH  26  27
ENDBRANCH  25  26
ENDBRANCH  24  25
ENDBRANCH   1  24
TORSDOF 5
ENDMDL
MODEL 8
REMARK VINA RESULT:      -6.7      3.068      4.746
REMARK  5 active torsions:
REMARK  status: ('A' for Active; 'I' for Inactive)
REMARK    1  A    between atoms: O1_2  and  C2_3 
REMARK    2  A    between atoms: C2_3  and  C3_4 
REMARK    3  A    between atoms: C3_4  and  O2_5 
REMARK    4  A    between atoms: O2_5  and  C4_6 
REMARK    5  A    between atoms: C11_15  and  N1_16 
ROOT
HETATM    1  C4  UNL     1      24.444   2.979  51.471  1.00  0.00     0.097 C 
HETATM    2  C5  UNL     1      23.564   2.512  52.392  1.00  0.00     0.169 C 
HETATM    3  O3  UNL     1      22.306   2.621  52.060  1.00  0.00    -0.358 OA
HETATM    4  C6  UNL     1      21.045   2.731  51.727  1.00  0.00     0.200 C 
HETATM    5  C7  UNL     1      20.365   4.075  51.584  1.00  0.00     0.194 C 
HETATM    6  O4  UNL     1      20.908   4.949  50.602  1.00  0.00    -0.385 OA
HETATM    7  C8  UNL     1      22.184   5.019  50.995  1.00  0.00     0.196 C 
HETATM    8  C9  UNL     1      23.312   5.736  50.498  1.00  0.00     0.012 C 
HETATM    9  C10 UNL     1      24.446   5.091  50.085  1.00  0.00     0.017 A 
HETATM   10  C11 UNL     1      25.529   5.974  49.592  1.00  0.00     0.136 A 
HETATM   11  N2  UNL     1      26.656   5.498  49.178  1.00  0.00    -0.224 NA
HETATM   12  C20 UNL     1      26.758   4.072  49.244  1.00  0.00     0.230 A 
HETATM   13  N3  UNL     1      25.878   3.268  49.655  1.00  0.00    -0.266 NA
HETATM   14  C21 UNL     1      24.554   3.598  50.164  1.00  0.00     0.204 A 
ENDROOT
BRANCH  10  15
HETATM   15  N1  UNL     1      25.383   7.387  49.547  1.00  0.00    -0.354 N 
HETATM   16  C12 UNL     1      25.894   8.266  50.560  1.00  0.00     0.152 C 
HETATM   17  C13 UNL     1      26.968   9.128  49.995  1.00  0.00    -0.007 C 
HETATM   18  C14 UNL     1      27.349   9.492  48.760  1.00  0.00    -0.002 C 
HETATM   19  C15 UNL     1      26.698   9.058  47.527  1.00  0.00     0.004 C 
HETATM   20  C16 UNL     1      25.586   8.376  47.318  1.00  0.00    -0.061 C 
HETATM   21  C17 UNL     1      25.217   8.107  45.885  1.00  0.00     0.045 C 
HETATM   22  C18 UNL     1      24.674   7.854  48.389  1.00  0.00     0.111 C 
HETATM   23  C19 UNL     1      23.721   8.992  48.729  1.00  0.00     0.037 C 
ENDBRANCH  10  15
BRANCH   1  24
HETATM   24  O2  UNL     1      25.625   2.692  52.179  1.00  0.00    -0.349 OA
BRANCH  24  25
HETATM   25  C3  UNL     1      25.871   1.439  52.764  1.00  0.00     0.201 C 
BRANCH  25  26
HETATM   26  C2  UNL     1      27.333   1.106  52.542  1.00  0.00     0.193 C 
BRANCH  26  27
HETATM   27  O1  UNL     1      28.013   2.312  52.455  1.00  0.00    -0.394 OA
HETATM   28  C1  UNL     1      28.742   2.422  53.650  1.00  0.00     0.201 C 
ENDBRANCH  26  27
ENDBRANCH  25  26
ENDBRANCH  24  25
ENDBRANCH   1  24
TORSDOF 5
ENDMDL
MODEL 9
REMARK VINA RESULT:      -6.6      4.067      6.256
REMARK  5 active torsions:
REMARK  status: ('A' for Active; 'I' for Inactive)
REMARK    1  A    between atoms: O1_2  and  C2_3 
REMARK    2  A    between atoms: C2_3  and  C3_4 
REMARK    3  A    between atoms: C3_4  and  O2_5 
REMARK    4  A    between atoms: O2_5  and  C4_6 
REMARK    5  A    between atoms: C11_15  and  N1_16 
ROOT
HETATM    1  C4  UNL     1      22.765   1.354  51.668  1.00  0.00     0.097 C 
HETATM    2  C5  UNL     1      23.575   1.306  52.756  1.00  0.00     0.169 C 
HETATM    3  O3  UNL     1      23.478   0.217  53.471  1.00  0.00    -0.358 OA
HETATM    4  C6  UNL     1      23.382  -0.875  54.186  1.00  0.00     0.200 C 
HETATM    5  C7  UNL     1      22.126  -1.222  54.956  1.00  0.00     0.194 C 
HETATM    6  O4  UNL     1      20.943  -1.385  54.183  1.00  0.00    -0.385 OA
HETATM    7  C8  UNL     1      20.888  -0.210  53.546  1.00  0.00     0.196 C 
HETATM    8  C9  UNL     1      19.954   0.348  52.624  1.00  0.00     0.012 C 
HETATM    9  C10 UNL     1      20.333   0.740  51.369  1.00  0.00     0.017 A 
HETATM   10  C11 UNL     1      19.248   1.297  50.528  1.00  0.00     0.136 A 
HETATM   11  N2  UNL     1      19.468   1.713  49.325  1.00  0.00    -0.224 NA
HETATM   12  C20 UNL     1      20.827   1.591  48.894  1.00  0.00     0.230 A 
HETATM   13  N3  UNL     1      21.794   1.131  49.560  1.00  0.00    -0.266 NA
HETATM   14  C21 UNL     1      21.760   0.620  50.924  1.00  0.00     0.204 A 
ENDROOT
BRANCH  10  15
HETATM   15  N1  UNL     1      17.912   1.401  50.999  1.00  0.00    -0.354 N 
HETATM   16  C12 UNL     1      17.367   2.599  51.573  1.00  0.00     0.152 C 
HETATM   17  C13 UNL     1      16.289   3.139  50.701  1.00  0.00    -0.007 C 
HETATM   18  C14 UNL     1      15.518   2.646  49.719  1.00  0.00    -0.002 C 
HETATM   19  C15 UNL     1      15.583   1.274  49.221  1.00  0.00     0.004 C 
HETATM   20  C16 UNL     1      16.246   0.217  49.654  1.00  0.00    -0.061 C 
HETATM   21  C17 UNL     1      16.069  -1.058  48.875  1.00  0.00     0.045 C 
HETATM   22  C18 UNL     1      17.154   0.191  50.848  1.00  0.00     0.111 C 
HETATM   23  C19 UNL     1      16.263  -0.075  52.055  1.00  0.00     0.037 C 
ENDBRANCH  10  15
BRANCH   1  24
HETATM   24  O2  UNL     1      23.155   2.621  51.201  1.00  0.00    -0.349 OA
BRANCH  24  25
HETATM   25  C3  UNL     1      23.020   3.787  51.974  1.00  0.00     0.201 C 
BRANCH  25  26
HETATM   26  C2  UNL     1      21.556   4.177  51.967  1.00  0.00     0.193 C 
BRANCH  26  27
HETATM   27  O1  UNL     1      21.458   5.367  51.261  1.00  0.00    -0.394 OA
HETATM   28  C1  UNL     1      20.540   5.119  50.227  1.00  0.00     0.201 C 
ENDBRANCH  26  27
ENDBRANCH  25  26
ENDBRANCH  24  25
ENDBRANCH   1  24
TORSDOF 5
ENDMDL
