MODEL 1
REMARK VINA RESULT:      -6.9      0.000      0.000
REMARK  6 active torsions:
REMARK  status: ('A' for Active; 'I' for Inactive)
REMARK    1  A    between atoms: O1_1  and  C1_2 
REMARK    2  A    between atoms: C1_2  and  C14_19 
REMARK    3  A    between atoms: C2_3  and  C3_4 
REMARK    4  A    between atoms: C5_6  and  C6_7 
REMARK    5  A    between atoms: C6_7  and  O2_8 
REMARK    6  A    between atoms: O2_8  and  C7_9 
ROOT
HETATM    1  C3  UNL     1      22.243   0.386  52.533  1.00  0.00     0.062 A 
HETATM    2  C4  UNL     1      23.295   1.269  52.569  1.00  0.00     0.061 A 
HETATM    3  C5  UNL     1      23.607   2.044  51.470  1.00  0.00     0.062 A 
HETATM    4  N1  UNL     1      22.870   1.946  50.315  1.00  0.00    -0.244 NA
HETATM    5  C13 UNL     1      21.830   1.063  50.305  1.00  0.00     0.234 A 
HETATM    6  N2  UNL     1      21.519   0.301  51.380  1.00  0.00    -0.242 NA
ENDROOT
BRANCH   3   7
HETATM    7  C6  UNL     1      24.768   2.968  51.611  1.00  0.00     0.235 C 
BRANCH   7   8
HETATM    8  O2  UNL     1      25.905   2.229  51.155  1.00  0.00    -0.345 OA
BRANCH   8   9
HETATM    9  C7  UNL     1      26.696   1.470  51.972  1.00  0.00     0.070 A 
HETATM   10  C8  UNL     1      27.569   2.056  52.874  1.00  0.00     0.037 A 
HETATM   11  C9  UNL     1      28.355   1.251  53.681  1.00  0.00     0.004 A 
HETATM   12  C10 UNL     1      28.285  -0.127  53.606  1.00  0.00     0.024 A 
HETATM   13  C11 UNL     1      27.411  -0.749  52.704  1.00  0.00     0.036 A 
HETATM   14 CL1  UNL     1      27.342  -2.496  52.627  1.00  0.00    -0.084 Cl
HETATM   15  C12 UNL     1      26.657   0.095  51.929  1.00  0.00     0.060 A 
ENDBRANCH   8   9
ENDBRANCH   7   8
ENDBRANCH   3   7
BRANCH   1  16
HETATM   16  C2  UNL     1      21.723  -0.567  53.492  1.00  0.00     0.066 C 
HETATM   17  C1  UNL     1      22.286  -1.108  54.537  1.00  0.00     0.073 C 
BRANCH  17  18
HETATM   18  O1  UNL     1      21.310  -1.969  55.115  1.00  0.00    -0.362 OA
HETATM   19  H1  UNL     1      20.367  -1.564  55.056  1.00  0.00     0.217 HD
ENDBRANCH  17  18
BRANCH  17  20
HETATM   20  C14 UNL     1      23.372  -1.369  55.503  1.00  0.00     0.286 C 
HETATM   21  F1  UNL     1      24.612  -1.191  54.978  1.00  0.00    -0.248 F 
ENDBRANCH  17  20
ENDBRANCH   1  16
TORSDOF 6
ENDMDL
MODEL 2
REMARK VINA RESULT:      -6.9      4.162      5.733
REMARK  6 active torsions:
REMARK  status: ('A' for Active; 'I' for Inactive)
REMARK    1  A    between atoms: O1_1  and  C1_2 
REMARK    2  A    between atoms: C1_2  and  C14_19 
REMARK    3  A    between atoms: C2_3  and  C3_4 
REMARK    4  A    between atoms: C5_6  and  C6_7 
REMARK    5  A    between atoms: C6_7  and  O2_8 
REMARK    6  A    between atoms: O2_8  and  C7_9 
ROOT
HETATM    1  C3  UNL     1      26.394  -0.078  52.857  1.00  0.00     0.062 A 
HETATM    2  C4  UNL     1      25.447   0.586  52.115  1.00  0.00     0.061 A 
HETATM    3  C5  UNL     1      25.034   1.855  52.466  1.00  0.00     0.062 A 
HETATM    4  N1  UNL     1      25.561   2.481  53.570  1.00  0.00    -0.244 NA
HETATM    5  C13 UNL     1      26.500   1.801  54.290  1.00  0.00     0.234 A 
HETATM    6  N2  UNL     1      26.910   0.555  53.949  1.00  0.00    -0.242 NA
ENDROOT
BRANCH   3   7
HETATM    7  C6  UNL     1      24.000   2.486  51.597  1.00  0.00     0.235 C 
BRANCH   7   8
HETATM    8  O2  UNL     1      24.555   2.488  50.279  1.00  0.00    -0.345 OA
BRANCH   8   9
HETATM    9  C7  UNL     1      25.250   3.539  49.747  1.00  0.00     0.070 A 
HETATM   10  C8  UNL     1      26.608   3.444  49.489  1.00  0.00     0.037 A 
HETATM   11  C9  UNL     1      27.276   4.532  48.952  1.00  0.00     0.004 A 
HETATM   12  C10 UNL     1      26.613   5.711  48.668  1.00  0.00     0.024 A 
HETATM   13  C11 UNL     1      25.240   5.837  48.917  1.00  0.00     0.036 A 
HETATM   14 CL1  UNL     1      24.425   7.342  48.550  1.00  0.00    -0.084 Cl
HETATM   15  C12 UNL     1      24.629   4.731  49.449  1.00  0.00     0.060 A 
ENDBRANCH   8   9
ENDBRANCH   7   8
ENDBRANCH   3   7
BRANCH   1  16
HETATM   16  C2  UNL     1      26.973  -1.403  52.759  1.00  0.00     0.066 C 
HETATM   17  C1  UNL     1      28.177  -1.822  53.032  1.00  0.00     0.073 C 
BRANCH  17  18
HETATM   18  O1  UNL     1      28.188  -3.218  52.754  1.00  0.00    -0.362 OA
HETATM   19  H1  UNL     1      29.065  -3.658  53.062  1.00  0.00     0.217 HD
ENDBRANCH  17  18
BRANCH  17  20
HETATM   20  C14 UNL     1      29.583  -1.701  53.469  1.00  0.00     0.286 C 
HETATM   21  F1  UNL     1      30.179  -0.555  53.050  1.00  0.00    -0.248 F 
ENDBRANCH  17  20
ENDBRANCH   1  16
TORSDOF 6
ENDMDL
MODEL 3
REMARK VINA RESULT:      -6.9      3.722      6.382
REMARK  6 active torsions:
REMARK  status: ('A' for Active; 'I' for Inactive)
REMARK    1  A    between atoms: O1_1  and  C1_2 
REMARK    2  A    between atoms: C1_2  and  C14_19 
REMARK    3  A    between atoms: C2_3  and  C3_4 
REMARK    4  A    between atoms: C5_6  and  C6_7 
REMARK    5  A    between atoms: C6_7  and  O2_8 
REMARK    6  A    between atoms: O2_8  and  C7_9 
ROOT
HETATM    1  C3  UNL     1      26.273  -0.508  52.545  1.00  0.00     0.062 A 
HETATM    2  C4  UNL     1      24.990  -0.156  52.889  1.00  0.00     0.061 A 
HETATM    3  C5  UNL     1      24.492   1.094  52.582  1.00  0.00     0.062 A 
HETATM    4  N1  UNL     1      25.272   2.015  51.927  1.00  0.00    -0.244 NA
HETATM    5  C13 UNL     1      26.543   1.641  51.596  1.00  0.00     0.234 A 
HETATM    6  N2  UNL     1      27.036   0.415  51.894  1.00  0.00    -0.242 NA
ENDROOT
BRANCH   3   7
HETATM    7  C6  UNL     1      23.089   1.376  53.001  1.00  0.00     0.235 C 
BRANCH   7   8
HETATM    8  O2  UNL     1      22.264   0.865  51.952  1.00  0.00    -0.345 OA
BRANCH   8   9
HETATM    9  C7  UNL     1      21.006   0.365  52.148  1.00  0.00     0.070 A 
HETATM   10  C8  UNL     1      20.670  -0.294  53.319  1.00  0.00     0.037 A 
HETATM   11  C9  UNL     1      19.386  -0.788  53.478  1.00  0.00     0.004 A 
HETATM   12  C10 UNL     1      18.432  -0.635  52.489  1.00  0.00     0.024 A 
HETATM   13  C11 UNL     1      18.742   0.027  51.293  1.00  0.00     0.036 A 
HETATM   14 CL1  UNL     1      17.516   0.205  50.057  1.00  0.00    -0.084 Cl
HETATM   15  C12 UNL     1      20.027   0.495  51.190  1.00  0.00     0.060 A 
ENDBRANCH   8   9
ENDBRANCH   7   8
ENDBRANCH   3   7
BRANCH   1  16
HETATM   16  C2  UNL     1      27.063  -1.701  52.773  1.00  0.00     0.066 C 
HETATM   17  C1  UNL     1      28.311  -1.834  53.128  1.00  0.00     0.073 C 
BRANCH  17  18
HETATM   18  O1  UNL     1      28.556  -3.234  53.207  1.00  0.00    -0.362 OA
HETATM   19  H1  UNL     1      27.778  -3.729  53.662  1.00  0.00     0.217 HD
ENDBRANCH  17  18
BRANCH  17  20
HETATM   20  C14 UNL     1      29.665  -1.379  53.502  1.00  0.00     0.286 C 
HETATM   21  F1  UNL     1      29.766  -0.029  53.611  1.00  0.00    -0.248 F 
ENDBRANCH  17  20
ENDBRANCH   1  16
TORSDOF 6
ENDMDL
MODEL 4
REMARK VINA RESULT:      -6.8      3.678      5.388
REMARK  6 active torsions:
REMARK  status: ('A' for Active; 'I' for Inactive)
REMARK    1  A    between atoms: O1_1  and  C1_2 
REMARK    2  A    between atoms: C1_2  and  C14_19 
REMARK    3  A    between atoms: C2_3  and  C3_4 
REMARK    4  A    between atoms: C5_6  and  C6_7 
REMARK    5  A    between atoms: C6_7  and  O2_8 
REMARK    6  A    between atoms: O2_8  and  C7_9 
ROOT
HETATM    1  C3  UNL     1      25.716  -0.090  52.861  1.00  0.00     0.062 A 
HETATM    2  C4  UNL     1      25.520   1.117  52.235  1.00  0.00     0.061 A 
HETATM    3  C5  UNL     1      24.269   1.701  52.198  1.00  0.00     0.062 A 
HETATM    4  N1  UNL     1      23.192   1.083  52.785  1.00  0.00    -0.244 NA
HETATM    5  C13 UNL     1      23.413  -0.115  53.401  1.00  0.00     0.234 A 
HETATM    6  N2  UNL     1      24.639  -0.692  53.441  1.00  0.00    -0.242 NA
ENDROOT
BRANCH   3   7
HETATM    7  C6  UNL     1      24.162   3.010  51.492  1.00  0.00     0.235 C 
BRANCH   7   8
HETATM    8  O2  UNL     1      25.079   2.933  50.398  1.00  0.00    -0.345 OA
BRANCH   8   9
HETATM    9  C7  UNL     1      25.563   4.025  49.733  1.00  0.00     0.070 A 
HETATM   10  C8  UNL     1      24.746   5.103  49.432  1.00  0.00     0.037 A 
HETATM   11  C9  UNL     1      25.275   6.189  48.754  1.00  0.00     0.004 A 
HETATM   12  C10 UNL     1      26.603   6.219  48.373  1.00  0.00     0.024 A 
HETATM   13  C11 UNL     1      27.454   5.145  48.664  1.00  0.00     0.036 A 
HETATM   14 CL1  UNL     1      29.132   5.208  48.169  1.00  0.00    -0.084 Cl
HETATM   15  C12 UNL     1      26.879   4.096  49.335  1.00  0.00     0.060 A 
ENDBRANCH   8   9
ENDBRANCH   7   8
ENDBRANCH   3   7
BRANCH   1  16
HETATM   16  C2  UNL     1      26.876  -0.944  53.014  1.00  0.00     0.066 C 
HETATM   17  C1  UNL     1      28.086  -0.663  53.411  1.00  0.00     0.073 C 
BRANCH  17  18
HETATM   18  O1  UNL     1      28.814  -1.885  53.372  1.00  0.00    -0.362 OA
HETATM   19  H1  UNL     1      28.235  -2.679  53.678  1.00  0.00     0.217 HD
ENDBRANCH  17  18
BRANCH  17  20
HETATM   20  C14 UNL     1      29.185   0.202  53.888  1.00  0.00     0.286 C 
HETATM   21  F1  UNL     1      30.361  -0.022  53.247  1.00  0.00    -0.248 F 
ENDBRANCH  17  20
ENDBRANCH   1  16
TORSDOF 6
ENDMDL
MODEL 5
REMARK VINA RESULT:      -6.7      3.146      5.791
REMARK  6 active torsions:
REMARK  status: ('A' for Active; 'I' for Inactive)
REMARK    1  A    between atoms: O1_1  and  C1_2 
REMARK    2  A    between atoms: C1_2  and  C14_19 
REMARK    3  A    between atoms: C2_3  and  C3_4 
REMARK    4  A    between atoms: C5_6  and  C6_7 
REMARK    5  A    between atoms: C6_7  and  O2_8 
REMARK    6  A    between atoms: O2_8  and  C7_9 
ROOT
HETATM    1  C3  UNL     1      26.653   2.174  52.410  1.00  0.00     0.062 A 
HETATM    2  C4  UNL     1      25.332   1.802  52.339  1.00  0.00     0.061 A 
HETATM    3  C5  UNL     1      24.570   2.103  51.229  1.00  0.00     0.062 A 
HETATM    4  N1  UNL     1      25.118   2.785  50.169  1.00  0.00    -0.244 NA
HETATM    5  C13 UNL     1      26.432   3.142  50.264  1.00  0.00     0.234 A 
HETATM    6  N2  UNL     1      27.185   2.848  51.351  1.00  0.00    -0.242 NA
ENDROOT
BRANCH   3   7
HETATM    7  C6  UNL     1      23.148   1.657  51.252  1.00  0.00     0.235 C 
BRANCH   7   8
HETATM    8  O2  UNL     1      22.787   1.594  52.634  1.00  0.00    -0.345 OA
BRANCH   8   9
HETATM    9  C7  UNL     1      22.130   0.537  53.202  1.00  0.00     0.070 A 
HETATM   10  C8  UNL     1      22.787  -0.351  54.038  1.00  0.00     0.037 A 
HETATM   11  C9  UNL     1      22.086  -1.410  54.592  1.00  0.00     0.004 A 
HETATM   12  C10 UNL     1      20.742  -1.597  54.326  1.00  0.00     0.024 A 
HETATM   13  C11 UNL     1      20.051  -0.715  53.484  1.00  0.00     0.036 A 
HETATM   14 CL1  UNL     1      18.350  -0.975  53.162  1.00  0.00    -0.084 Cl
HETATM   15  C12 UNL     1      20.793   0.314  52.964  1.00  0.00     0.060 A 
ENDBRANCH   8   9
ENDBRANCH   7   8
ENDBRANCH   3   7
BRANCH   1  16
HETATM   16  C2  UNL     1      27.661   2.040  53.442  1.00  0.00     0.066 C 
HETATM   17  C1  UNL     1      28.338   0.995  53.833  1.00  0.00     0.073 C 
BRANCH  17  18
HETATM   18  O1  UNL     1      29.192   1.442  54.880  1.00  0.00    -0.362 OA
HETATM   19  H1  UNL     1      29.722   2.280  54.604  1.00  0.00     0.217 HD
ENDBRANCH  17  18
BRANCH  17  20
HETATM   20  C14 UNL     1      28.752  -0.422  53.836  1.00  0.00     0.286 C 
HETATM   21  F1  UNL     1      30.093  -0.590  53.704  1.00  0.00    -0.248 F 
ENDBRANCH  17  20
ENDBRANCH   1  16
TORSDOF 6
ENDMDL
MODEL 6
REMARK VINA RESULT:      -6.7      3.438      6.587
REMARK  6 active torsions:
REMARK  status: ('A' for Active; 'I' for Inactive)
REMARK    1  A    between atoms: O1_1  and  C1_2 
REMARK    2  A    between atoms: C1_2  and  C14_19 
REMARK    3  A    between atoms: C2_3  and  C3_4 
REMARK    4  A    between atoms: C5_6  and  C6_7 
REMARK    5  A    between atoms: C6_7  and  O2_8 
REMARK    6  A    between atoms: O2_8  and  C7_9 
ROOT
HETATM    1  C3  UNL     1      26.962   1.499  52.888  1.00  0.00     0.062 A 
HETATM    2  C4  UNL     1      25.861   0.764  53.257  1.00  0.00     0.061 A 
HETATM    3  C5  UNL     1      25.924  -0.126  54.310  1.00  0.00     0.062 A 
HETATM    4  N1  UNL     1      27.093  -0.298  55.010  1.00  0.00    -0.244 NA
HETATM    5  C13 UNL     1      28.172   0.444  54.625  1.00  0.00     0.234 A 
HETATM    6  N2  UNL     1      28.115   1.320  53.593  1.00  0.00    -0.242 NA
ENDROOT
BRANCH   3   7
HETATM    7  C6  UNL     1      24.675  -0.876  54.627  1.00  0.00     0.235 C 
BRANCH   7   8
HETATM    8  O2  UNL     1      23.915  -0.889  53.416  1.00  0.00    -0.345 OA
BRANCH   8   9
HETATM    9  C7  UNL     1      22.553  -0.782  53.371  1.00  0.00     0.070 A 
HETATM   10  C8  UNL     1      21.749  -1.456  54.276  1.00  0.00     0.037 A 
HETATM   11  C9  UNL     1      20.373  -1.322  54.195  1.00  0.00     0.004 A 
HETATM   12  C10 UNL     1      19.786  -0.527  53.228  1.00  0.00     0.024 A 
HETATM   13  C11 UNL     1      20.572   0.167  52.299  1.00  0.00     0.036 A 
HETATM   14 CL1  UNL     1      19.803   1.166  51.085  1.00  0.00    -0.084 Cl
HETATM   15  C12 UNL     1      21.927  -0.001  52.425  1.00  0.00     0.060 A 
ENDBRANCH   8   9
ENDBRANCH   7   8
ENDBRANCH   3   7
BRANCH   1  16
HETATM   16  C2  UNL     1      27.200   2.450  51.822  1.00  0.00     0.066 C 
HETATM   17  C1  UNL     1      26.373   2.994  50.973  1.00  0.00     0.073 C 
BRANCH  17  18
HETATM   18  O1  UNL     1      27.152   3.857  50.152  1.00  0.00    -0.362 OA
HETATM   19  H1  UNL     1      27.979   4.209  50.653  1.00  0.00     0.217 HD
ENDBRANCH  17  18
BRANCH  17  20
HETATM   20  C14 UNL     1      25.065   3.249  50.336  1.00  0.00     0.286 C 
HETATM   21  F1  UNL     1      24.186   2.225  50.486  1.00  0.00    -0.248 F 
ENDBRANCH  17  20
ENDBRANCH   1  16
TORSDOF 6
ENDMDL
MODEL 7
REMARK VINA RESULT:      -6.7      2.779      3.545
REMARK  6 active torsions:
REMARK  status: ('A' for Active; 'I' for Inactive)
REMARK    1  A    between atoms: O1_1  and  C1_2 
REMARK    2  A    between atoms: C1_2  and  C14_19 
REMARK    3  A    between atoms: C2_3  and  C3_4 
REMARK    4  A    between atoms: C5_6  and  C6_7 
REMARK    5  A    between atoms: C6_7  and  O2_8 
REMARK    6  A    between atoms: O2_8  and  C7_9 
ROOT
HETATM    1  C3  UNL     1      21.137  -0.768  53.689  1.00  0.00     0.062 A 
HETATM    2  C4  UNL     1      22.151  -0.188  52.965  1.00  0.00     0.061 A 
HETATM    3  C5  UNL     1      23.453  -0.218  53.420  1.00  0.00     0.062 A 
HETATM    4  N1  UNL     1      23.763  -0.828  54.611  1.00  0.00    -0.244 NA
HETATM    5  C13 UNL     1      22.738  -1.397  55.311  1.00  0.00     0.234 A 
HETATM    6  N2  UNL     1      21.459  -1.372  54.868  1.00  0.00    -0.242 NA
ENDROOT
BRANCH   3   7
HETATM    7  C6  UNL     1      24.478   0.443  52.562  1.00  0.00     0.235 C 
BRANCH   7   8
HETATM    8  O2  UNL     1      25.299   1.199  53.456  1.00  0.00    -0.345 OA
BRANCH   8   9
HETATM    9  C7  UNL     1      26.661   1.089  53.515  1.00  0.00     0.070 A 
HETATM   10  C8  UNL     1      27.466   2.208  53.656  1.00  0.00     0.037 A 
HETATM   11  C9  UNL     1      28.841   2.055  53.709  1.00  0.00     0.004 A 
HETATM   12  C10 UNL     1      29.427   0.805  53.625  1.00  0.00     0.024 A 
HETATM   13  C11 UNL     1      28.639  -0.345  53.483  1.00  0.00     0.036 A 
HETATM   14 CL1  UNL     1      29.405  -1.915  53.378  1.00  0.00    -0.084 Cl
HETATM   15  C12 UNL     1      27.285  -0.135  53.435  1.00  0.00     0.060 A 
ENDBRANCH   8   9
ENDBRANCH   7   8
ENDBRANCH   3   7
BRANCH   1  16
HETATM   16  C2  UNL     1      19.704  -0.849  53.488  1.00  0.00     0.066 C 
HETATM   17  C1  UNL     1      18.951  -0.340  52.554  1.00  0.00     0.073 C 
BRANCH  17  18
HETATM   18  O1  UNL     1      17.618  -0.743  52.851  1.00  0.00    -0.362 OA
HETATM   19  H1  UNL     1      17.019  -0.707  52.016  1.00  0.00     0.217 HD
ENDBRANCH  17  18
BRANCH  17  20
HETATM   20  C14 UNL     1      18.651   0.437  51.334  1.00  0.00     0.286 C 
HETATM   21  F1  UNL     1      19.682   0.468  50.450  1.00  0.00    -0.248 F 
ENDBRANCH  17  20
ENDBRANCH   1  16
TORSDOF 6
ENDMDL
MODEL 8
REMARK VINA RESULT:      -6.5      3.756      6.870
REMARK  6 active torsions:
REMARK  status: ('A' for Active; 'I' for Inactive)
REMARK    1  A    between atoms: O1_1  and  C1_2 
REMARK    2  A    between atoms: C1_2  and  C14_19 
REMARK    3  A    between atoms: C2_3  and  C3_4 
REMARK    4  A    between atoms: C5_6  and  C6_7 
REMARK    5  A    between atoms: C6_7  and  O2_8 
REMARK    6  A    between atoms: O2_8  and  C7_9 
ROOT
HETATM    1  C3  UNL     1      26.339   0.521  53.965  1.00  0.00     0.062 A 
HETATM    2  C4  UNL     1      25.265   0.814  53.160  1.00  0.00     0.061 A 
HETATM    3  C5  UNL     1      24.049   0.186  53.344  1.00  0.00     0.062 A 
HETATM    4  N1  UNL     1      23.890  -0.750  54.338  1.00  0.00    -0.244 NA
HETATM    5  C13 UNL     1      24.972  -1.022  55.125  1.00  0.00     0.234 A 
HETATM    6  N2  UNL     1      26.167  -0.408  54.948  1.00  0.00    -0.242 NA
ENDROOT
BRANCH   3   7
HETATM    7  C6  UNL     1      22.949   0.572  52.417  1.00  0.00     0.235 C 
BRANCH   7   8
HETATM    8  O2  UNL     1      21.786   0.716  53.237  1.00  0.00    -0.345 OA
BRANCH   8   9
HETATM    9  C7  UNL     1      20.547   0.257  52.888  1.00  0.00     0.070 A 
HETATM   10  C8  UNL     1      19.876  -0.668  53.673  1.00  0.00     0.037 A 
HETATM   11  C9  UNL     1      18.623  -1.110  53.283  1.00  0.00     0.004 A 
HETATM   12  C10 UNL     1      18.027  -0.645  52.126  1.00  0.00     0.024 A 
HETATM   13  C11 UNL     1      18.680   0.291  51.312  1.00  0.00     0.036 A 
HETATM   14 CL1  UNL     1      17.903   0.863  49.851  1.00  0.00    -0.084 Cl
HETATM   15  C12 UNL     1      19.917   0.694  51.745  1.00  0.00     0.060 A 
ENDBRANCH   8   9
ENDBRANCH   7   8
ENDBRANCH   3   7
BRANCH   1  16
HETATM   16  C2  UNL     1      27.715   0.975  53.976  1.00  0.00     0.066 C 
HETATM   17  C1  UNL     1      28.826   0.311  53.817  1.00  0.00     0.073 C 
BRANCH  17  18
HETATM   18  O1  UNL     1      29.879   1.263  53.920  1.00  0.00    -0.362 OA
HETATM   19  H1  UNL     1      30.794   0.805  54.018  1.00  0.00     0.217 HD
ENDBRANCH  17  18
BRANCH  17  20
HETATM   20  C14 UNL     1      29.666  -0.883  53.591  1.00  0.00     0.286 C 
HETATM   21  F1  UNL     1      28.945  -2.007  53.341  1.00  0.00    -0.248 F 
ENDBRANCH  17  20
ENDBRANCH   1  16
TORSDOF 6
ENDMDL
MODEL 9
REMARK VINA RESULT:      -6.3      3.834      4.868
REMARK  6 active torsions:
REMARK  status: ('A' for Active; 'I' for Inactive)
REMARK    1  A    between atoms: O1_1  and  C1_2 
REMARK    2  A    between atoms: C1_2  and  C14_19 
REMARK    3  A    between atoms: C2_3  and  C3_4 
REMARK    4  A    between atoms: C5_6  and  C6_7 
REMARK    5  A    between atoms: C6_7  and  O2_8 
REMARK    6  A    between atoms: O2_8  and  C7_9 
ROOT
HETATM    1  C3  UNL     1      23.427   0.576  52.592  1.00  0.00     0.062 A 
HETATM    2  C4  UNL     1      23.833   1.465  51.625  1.00  0.00     0.061 A 
HETATM    3  C5  UNL     1      22.940   1.952  50.692  1.00  0.00     0.062 A 
HETATM    4  N1  UNL     1      21.625   1.556  50.710  1.00  0.00    -0.244 NA
HETATM    5  C13 UNL     1      21.247   0.674  51.681  1.00  0.00     0.234 A 
HETATM    6  N2  UNL     1      22.119   0.193  52.599  1.00  0.00    -0.242 NA
ENDROOT
BRANCH   3   7
HETATM    7  C6  UNL     1      23.481   2.909  49.685  1.00  0.00     0.235 C 
BRANCH   7   8
HETATM    8  O2  UNL     1      24.720   3.377  50.224  1.00  0.00    -0.345 OA
BRANCH   8   9
HETATM    9  C7  UNL     1      25.523   4.293  49.604  1.00  0.00     0.070 A 
HETATM   10  C8  UNL     1      26.843   4.003  49.300  1.00  0.00     0.037 A 
HETATM   11  C9  UNL     1      27.623   4.960  48.673  1.00  0.00     0.004 A 
HETATM   12  C10 UNL     1      27.109   6.201  48.344  1.00  0.00     0.024 A 
HETATM   13  C11 UNL     1      25.778   6.524  48.639  1.00  0.00     0.036 A 
HETATM   14 CL1  UNL     1      25.153   8.102  48.213  1.00  0.00    -0.084 Cl
HETATM   15  C12 UNL     1      25.052   5.540  49.259  1.00  0.00     0.060 A 
ENDBRANCH   8   9
ENDBRANCH   7   8
ENDBRANCH   3   7
BRANCH   1  16
HETATM   16  C2  UNL     1      24.133  -0.123  53.647  1.00  0.00     0.066 C 
HETATM   17  C1  UNL     1      25.348  -0.595  53.682  1.00  0.00     0.073 C 
BRANCH  17  18
HETATM   18  O1  UNL     1      25.512  -1.181  54.969  1.00  0.00    -0.362 OA
HETATM   19  H1  UNL     1      26.079  -0.585  55.586  1.00  0.00     0.217 HD
ENDBRANCH  17  18
BRANCH  17  20
HETATM   20  C14 UNL     1      26.696  -0.896  53.159  1.00  0.00     0.286 C 
HETATM   21  F1  UNL     1      26.848  -0.574  51.848  1.00  0.00    -0.248 F 
ENDBRANCH  17  20
ENDBRANCH   1  16
TORSDOF 6
ENDMDL
