MODEL 1
REMARK VINA RESULT:      -8.1      0.000      0.000
REMARK  6 active torsions:
REMARK  status: ('A' for Active; 'I' for Inactive)
REMARK    1  A    between atoms: N1_5  and  C4_6 
REMARK    2  A    between atoms: C7_9  and  N2_10 
REMARK    3  A    between atoms: N2_10  and  C8_11 
REMARK    4  A    between atoms: C8_11  and  C9_12 
REMARK    5  A    between atoms: C10_13  and  C11_14 
REMARK    6  A    between atoms: C11_14  and  N3_15 
ROOT
HETATM    1  C4  UNL     1      24.953  -0.648  53.532  1.00  0.00     0.036 C 
HETATM    2  C5  UNL     1      25.950  -0.576  52.564  1.00  0.00    -0.028 C 
HETATM    3  C6  UNL     1      26.623   0.526  51.593  1.00  0.00     0.041 C 
HETATM    4  C7  UNL     1      26.970   1.164  52.787  1.00  0.00     0.055 C 
HETATM    5  C16 UNL     1      27.658  -0.037  53.420  1.00  0.00     0.051 C 
HETATM    6  C17 UNL     1      28.063  -1.327  53.224  1.00  0.00     0.009 C 
HETATM    7  C18 UNL     1      26.776  -1.882  52.572  1.00  0.00     0.070 C 
HETATM    8  N4  UNL     1      27.022  -0.167  54.908  1.00  0.00    -0.383 N 
HETATM    9  C19 UNL     1      25.577  -0.682  54.954  1.00  0.00     0.177 C 
HETATM   10  H21 UNL     1      27.019  -0.096  56.029  1.00  0.00     0.160 HD
ENDROOT
BRANCH   4  11
HETATM   11  N2  UNL     1      26.762   2.641  52.798  1.00  0.00    -0.385 N 
HETATM   12  H5  UNL     1      27.211   3.350  52.214  1.00  0.00     0.160 HD
BRANCH  11  13
HETATM   13  C8  UNL     1      25.747   2.916  53.828  1.00  0.00     0.147 C 
BRANCH  13  14
HETATM   14  C9  UNL     1      24.409   2.912  53.181  1.00  0.00    -0.010 C 
HETATM   15  C10 UNL     1      23.620   3.844  52.675  1.00  0.00     0.001 C 
BRANCH  15  16
HETATM   16  C11 UNL     1      22.299   3.633  52.064  1.00  0.00     0.300 C 
BRANCH  16  17
HETATM   17  N3  UNL     1      22.248   3.746  50.642  1.00  0.00     0.098 N 
HETATM   18  C12 UNL     1      22.725   2.612  49.925  1.00  0.00     0.300 C 
HETATM   19  C13 UNL     1      23.490   3.088  48.764  1.00  0.00     0.001 C 
HETATM   20  C14 UNL     1      23.634   4.400  48.881  1.00  0.00     0.001 C 
HETATM   21  C15 UNL     1      22.979   4.875  50.118  1.00  0.00     0.300 C 
ENDBRANCH  16  17
ENDBRANCH  15  16
ENDBRANCH  13  14
ENDBRANCH  11  13
ENDBRANCH   4  11
BRANCH   1  22
HETATM   22  N1  UNL     1      23.485  -0.657  53.564  1.00  0.00    -0.353 N 
HETATM   23  C3  UNL     1      22.993  -1.185  54.785  1.00  0.00     0.158 A 
HETATM   24  C2  UNL     1      21.508  -1.155  54.750  1.00  0.00     0.037 A 
HETATM   25  C1  UNL     1      20.687  -0.737  53.799  1.00  0.00     0.137 A 
HETATM   26  F1  UNL     1      19.336  -0.764  53.894  1.00  0.00    -0.205 F 
HETATM   27  C21 UNL     1      21.367  -0.226  52.604  1.00  0.00     0.087 A 
HETATM   28  C20 UNL     1      22.683  -0.186  52.489  1.00  0.00     0.118 A 
HETATM   29 CL1  UNL     1      20.361   0.350  51.291  1.00  0.00    -0.080 Cl
ENDBRANCH   1  22
TORSDOF 6
ENDMDL
MODEL 2
REMARK VINA RESULT:      -8.1      2.763      3.332
REMARK  6 active torsions:
REMARK  status: ('A' for Active; 'I' for Inactive)
REMARK    1  A    between atoms: N1_5  and  C4_6 
REMARK    2  A    between atoms: C7_9  and  N2_10 
REMARK    3  A    between atoms: N2_10  and  C8_11 
REMARK    4  A    between atoms: C8_11  and  C9_12 
REMARK    5  A    between atoms: C10_13  and  C11_14 
REMARK    6  A    between atoms: C11_14  and  N3_15 
ROOT
HETATM    1  C4  UNL     1      25.219  -0.396  53.596  1.00  0.00     0.036 C 
HETATM    2  C5  UNL     1      26.205  -0.443  52.615  1.00  0.00    -0.028 C 
HETATM    3  C6  UNL     1      26.764   0.475  51.408  1.00  0.00     0.041 C 
HETATM    4  C7  UNL     1      27.042   1.395  52.422  1.00  0.00     0.055 C 
HETATM    5  C16 UNL     1      27.847   0.442  53.293  1.00  0.00     0.051 C 
HETATM    6  C17 UNL     1      28.383  -0.812  53.381  1.00  0.00     0.009 C 
HETATM    7  C18 UNL     1      27.160  -1.625  52.897  1.00  0.00     0.070 C 
HETATM    8  N4  UNL     1      27.225   0.587  54.785  1.00  0.00    -0.383 N 
HETATM    9  C19 UNL     1      25.841  -0.047  54.975  1.00  0.00     0.177 C 
HETATM   10  H21 UNL     1      27.213   0.906  55.862  1.00  0.00     0.160 HD
ENDROOT
BRANCH   4  11
HETATM   11  N2  UNL     1      26.684   2.809  52.108  1.00  0.00    -0.385 N 
HETATM   12  H5  UNL     1      26.814   3.641  52.689  1.00  0.00     0.160 HD
BRANCH  11  13
HETATM   13  C8  UNL     1      26.099   2.806  50.757  1.00  0.00     0.147 C 
BRANCH  13  14
HETATM   14  C9  UNL     1      26.822   3.807  49.931  1.00  0.00    -0.010 C 
HETATM   15  C10 UNL     1      26.459   4.860  49.218  1.00  0.00     0.001 C 
BRANCH  15  16
HETATM   16  C11 UNL     1      27.349   5.746  48.452  1.00  0.00     0.300 C 
BRANCH  16  17
HETATM   17  N3  UNL     1      27.070   7.141  48.552  1.00  0.00     0.098 N 
HETATM   18  C12 UNL     1      28.215   7.986  48.612  1.00  0.00     0.300 C 
HETATM   19  C13 UNL     1      27.948   9.057  49.584  1.00  0.00     0.001 C 
HETATM   20  C14 UNL     1      26.815   8.769  50.206  1.00  0.00     0.001 C 
HETATM   21  C15 UNL     1      26.261   7.498  49.693  1.00  0.00     0.300 C 
ENDBRANCH  16  17
ENDBRANCH  15  16
ENDBRANCH  13  14
ENDBRANCH  11  13
ENDBRANCH   4  11
BRANCH   1  22
HETATM   22  N1  UNL     1      23.759  -0.544  53.660  1.00  0.00    -0.353 N 
HETATM   23  C3  UNL     1      23.351  -1.173  54.864  1.00  0.00     0.158 A 
HETATM   24  C2  UNL     1      21.869  -1.280  54.864  1.00  0.00     0.037 A 
HETATM   25  C1  UNL     1      20.988  -0.898  53.953  1.00  0.00     0.137 A 
HETATM   26  F1  UNL     1      19.649  -1.055  54.077  1.00  0.00    -0.205 F 
HETATM   27  C21 UNL     1      21.586  -0.269  52.770  1.00  0.00     0.087 A 
HETATM   28  C20 UNL     1      22.889  -0.100  52.627  1.00  0.00     0.118 A 
HETATM   29 CL1  UNL     1      20.495   0.271  51.509  1.00  0.00    -0.080 Cl
ENDBRANCH   1  22
TORSDOF 6
ENDMDL
MODEL 3
REMARK VINA RESULT:      -8.0      1.138      1.250
REMARK  6 active torsions:
REMARK  status: ('A' for Active; 'I' for Inactive)
REMARK    1  A    between atoms: N1_5  and  C4_6 
REMARK    2  A    between atoms: C7_9  and  N2_10 
REMARK    3  A    between atoms: N2_10  and  C8_11 
REMARK    4  A    between atoms: C8_11  and  C9_12 
REMARK    5  A    between atoms: C10_13  and  C11_14 
REMARK    6  A    between atoms: C11_14  and  N3_15 
ROOT
HETATM    1  C4  UNL     1      25.332  -0.380  53.624  1.00  0.00     0.036 C 
HETATM    2  C5  UNL     1      26.316  -0.396  52.640  1.00  0.00    -0.028 C 
HETATM    3  C6  UNL     1      26.878   0.562  51.467  1.00  0.00     0.041 C 
HETATM    4  C7  UNL     1      27.163   1.443  52.513  1.00  0.00     0.055 C 
HETATM    5  C16 UNL     1      27.965   0.453  53.346  1.00  0.00     0.051 C 
HETATM    6  C17 UNL     1      28.493  -0.807  53.386  1.00  0.00     0.009 C 
HETATM    7  C18 UNL     1      27.264  -1.593  52.875  1.00  0.00     0.070 C 
HETATM    8  N4  UNL     1      27.346   0.545  54.845  1.00  0.00    -0.383 N 
HETATM    9  C19 UNL     1      25.959  -0.087  55.014  1.00  0.00     0.177 C 
HETATM   10  H21 UNL     1      27.339   0.824  55.932  1.00  0.00     0.160 HD
ENDROOT
BRANCH   4  11
HETATM   11  N2  UNL     1      26.813   2.869  52.253  1.00  0.00    -0.385 N 
HETATM   12  H5  UNL     1      26.817   3.654  52.910  1.00  0.00     0.160 HD
BRANCH  11  13
HETATM   13  C8  UNL     1      26.460   2.964  50.827  1.00  0.00     0.147 C 
BRANCH  13  14
HETATM   14  C9  UNL     1      25.053   3.433  50.723  1.00  0.00    -0.010 C 
HETATM   15  C10 UNL     1      23.874   2.896  50.986  1.00  0.00     0.001 C 
BRANCH  15  16
HETATM   16  C11 UNL     1      22.563   3.539  50.810  1.00  0.00     0.300 C 
BRANCH  16  17
HETATM   17  N3  UNL     1      21.888   3.248  49.587  1.00  0.00     0.098 N 
HETATM   18  C12 UNL     1      22.257   2.020  48.968  1.00  0.00     0.300 C 
HETATM   19  C13 UNL     1      22.327   2.238  47.516  1.00  0.00     0.001 C 
HETATM   20  C14 UNL     1      22.206   3.538  47.293  1.00  0.00     0.001 C 
HETATM   21  C15 UNL     1      22.051   4.261  48.572  1.00  0.00     0.300 C 
ENDBRANCH  16  17
ENDBRANCH  15  16
ENDBRANCH  13  14
ENDBRANCH  11  13
ENDBRANCH   4  11
BRANCH   1  22
HETATM   22  N1  UNL     1      23.872  -0.521  53.686  1.00  0.00    -0.353 N 
HETATM   23  C3  UNL     1      23.457  -1.125  54.900  1.00  0.00     0.158 A 
HETATM   24  C2  UNL     1      21.975  -1.227  54.897  1.00  0.00     0.037 A 
HETATM   25  C1  UNL     1      21.098  -0.860  53.976  1.00  0.00     0.137 A 
HETATM   26  F1  UNL     1      19.758  -1.010  54.098  1.00  0.00    -0.205 F 
HETATM   27  C21 UNL     1      21.702  -0.257  52.783  1.00  0.00     0.087 A 
HETATM   28  C20 UNL     1      23.006  -0.096  52.641  1.00  0.00     0.118 A 
HETATM   29 CL1  UNL     1      20.618   0.262  51.508  1.00  0.00    -0.080 Cl
ENDBRANCH   1  22
TORSDOF 6
ENDMDL
MODEL 4
REMARK VINA RESULT:      -7.7      7.666     10.495
REMARK  6 active torsions:
REMARK  status: ('A' for Active; 'I' for Inactive)
REMARK    1  A    between atoms: N1_5  and  C4_6 
REMARK    2  A    between atoms: C7_9  and  N2_10 
REMARK    3  A    between atoms: N2_10  and  C8_11 
REMARK    4  A    between atoms: C8_11  and  C9_12 
REMARK    5  A    between atoms: C10_13  and  C11_14 
REMARK    6  A    between atoms: C11_14  and  N3_15 
ROOT
HETATM    1  C4  UNL     1      31.465   7.339  48.189  1.00  0.00     0.036 C 
HETATM    2  C5  UNL     1      30.432   7.917  47.456  1.00  0.00    -0.028 C 
HETATM    3  C6  UNL     1      28.880   7.629  47.108  1.00  0.00     0.041 C 
HETATM    4  C7  UNL     1      28.696   7.729  48.489  1.00  0.00     0.055 C 
HETATM    5  C16 UNL     1      29.360   9.089  48.646  1.00  0.00     0.051 C 
HETATM    6  C17 UNL     1      29.932  10.139  47.983  1.00  0.00     0.009 C 
HETATM    7  C18 UNL     1      30.840   9.341  47.019  1.00  0.00     0.070 C 
HETATM    8  N4  UNL     1      30.417   8.919  49.866  1.00  0.00    -0.383 N 
HETATM    9  C19 UNL     1      31.666   8.093  49.531  1.00  0.00     0.177 C 
HETATM   10  H21 UNL     1      30.809   9.066  50.908  1.00  0.00     0.160 HD
ENDROOT
BRANCH   4  11
HETATM   11  N2  UNL     1      27.802   6.693  49.084  1.00  0.00    -0.385 N 
HETATM   12  H5  UNL     1      27.076   6.814  49.794  1.00  0.00     0.160 HD
BRANCH  11  13
HETATM   13  C8  UNL     1      28.149   5.416  48.439  1.00  0.00     0.147 C 
BRANCH  13  14
HETATM   14  C9  UNL     1      27.178   4.385  48.890  1.00  0.00    -0.010 C 
HETATM   15  C10 UNL     1      26.145   4.380  49.714  1.00  0.00     0.001 C 
BRANCH  15  16
HETATM   16  C11 UNL     1      25.289   3.228  50.035  1.00  0.00     0.300 C 
BRANCH  16  17
HETATM   17  N3  UNL     1      25.465   2.668  51.336  1.00  0.00     0.098 N 
HETATM   18  C12 UNL     1      26.554   1.758  51.462  1.00  0.00     0.300 C 
HETATM   19  C13 UNL     1      26.126   0.644  52.321  1.00  0.00     0.001 C 
HETATM   20  C14 UNL     1      24.825   0.769  52.533  1.00  0.00     0.001 C 
HETATM   21  C15 UNL     1      24.308   1.964  51.833  1.00  0.00     0.300 C 
ENDBRANCH  16  17
ENDBRANCH  15  16
ENDBRANCH  13  14
ENDBRANCH  11  13
ENDBRANCH   4  11
BRANCH   1  22
HETATM   22  N1  UNL     1      32.372   6.193  48.048  1.00  0.00    -0.353 N 
HETATM   23  C3  UNL     1      33.667   6.488  48.544  1.00  0.00     0.158 A 
HETATM   24  C2  UNL     1      34.524   5.286  48.378  1.00  0.00     0.037 A 
HETATM   25  C1  UNL     1      34.237   4.100  47.865  1.00  0.00     0.137 A 
HETATM   26  F1  UNL     1      35.120   3.077  47.771  1.00  0.00    -0.205 F 
HETATM   27  C21 UNL     1      32.853   3.971  47.396  1.00  0.00     0.087 A 
HETATM   28  C20 UNL     1      31.972   4.953  47.480  1.00  0.00     0.118 A 
HETATM   29 CL1  UNL     1      32.379   2.434  46.701  1.00  0.00    -0.080 Cl
ENDBRANCH   1  22
TORSDOF 6
ENDMDL
MODEL 5
REMARK VINA RESULT:      -7.7      1.970      5.877
REMARK  6 active torsions:
REMARK  status: ('A' for Active; 'I' for Inactive)
REMARK    1  A    between atoms: N1_5  and  C4_6 
REMARK    2  A    between atoms: C7_9  and  N2_10 
REMARK    3  A    between atoms: N2_10  and  C8_11 
REMARK    4  A    between atoms: C8_11  and  C9_12 
REMARK    5  A    between atoms: C10_13  and  C11_14 
REMARK    6  A    between atoms: C11_14  and  N3_15 
ROOT
HETATM    1  C4  UNL     1      22.332   2.474  51.404  1.00  0.00     0.036 C 
HETATM    2  C5  UNL     1      22.431   3.854  51.560  1.00  0.00    -0.028 C 
HETATM    3  C6  UNL     1      23.548   4.956  51.946  1.00  0.00     0.041 C 
HETATM    4  C7  UNL     1      24.206   4.485  50.807  1.00  0.00     0.055 C 
HETATM    5  C16 UNL     1      23.034   4.667  49.853  1.00  0.00     0.051 C 
HETATM    6  C17 UNL     1      21.757   5.136  49.726  1.00  0.00     0.009 C 
HETATM    7  C18 UNL     1      21.154   4.531  51.015  1.00  0.00     0.070 C 
HETATM    8  N4  UNL     1      22.894   3.255  49.063  1.00  0.00    -0.383 N 
HETATM    9  C19 UNL     1      22.330   2.098  49.898  1.00  0.00     0.177 C 
HETATM   10  H21 UNL     1      22.972   2.565  48.181  1.00  0.00     0.160 HD
ENDROOT
BRANCH   4  11
HETATM   11  N2  UNL     1      25.675   4.280  50.964  1.00  0.00    -0.385 N 
HETATM   12  H5  UNL     1      26.367   4.923  51.358  1.00  0.00     0.160 HD
BRANCH  11  13
HETATM   13  C8  UNL     1      25.972   2.934  50.448  1.00  0.00     0.147 C 
BRANCH  13  14
HETATM   14  C9  UNL     1      26.651   2.160  51.520  1.00  0.00    -0.010 C 
HETATM   15  C10 UNL     1      26.580   2.143  52.840  1.00  0.00     0.001 C 
BRANCH  15  16
HETATM   16  C11 UNL     1      27.356   1.282  53.745  1.00  0.00     0.300 C 
BRANCH  16  17
HETATM   17  N3  UNL     1      28.290   0.405  53.118  1.00  0.00     0.098 N 
HETATM   18  C12 UNL     1      27.900  -0.963  53.069  1.00  0.00     0.300 C 
HETATM   19  C13 UNL     1      29.086  -1.790  53.336  1.00  0.00     0.001 C 
HETATM   20  C14 UNL     1      30.068  -0.986  53.713  1.00  0.00     0.001 C 
HETATM   21  C15 UNL     1      29.601   0.417  53.720  1.00  0.00     0.300 C 
ENDBRANCH  16  17
ENDBRANCH  15  16
ENDBRANCH  13  14
ENDBRANCH  11  13
ENDBRANCH   4  11
BRANCH   1  22
HETATM   22  N1  UNL     1      22.274   1.295  52.277  1.00  0.00    -0.353 N 
HETATM   23  C3  UNL     1      20.972   0.734  52.309  1.00  0.00     0.158 A 
HETATM   24  C2  UNL     1      20.991  -0.455  53.200  1.00  0.00     0.037 A 
HETATM   25  C1  UNL     1      21.986  -0.982  53.896  1.00  0.00     0.137 A 
HETATM   26  F1  UNL     1      21.869  -2.081  54.679  1.00  0.00    -0.205 F 
HETATM   27  C21 UNL     1      23.260  -0.271  53.749  1.00  0.00     0.087 A 
HETATM   28  C20 UNL     1      23.401   0.801  52.989  1.00  0.00     0.118 A 
HETATM   29 CL1  UNL     1      24.637  -0.896  54.634  1.00  0.00    -0.080 Cl
ENDBRANCH   1  22
TORSDOF 6
ENDMDL
MODEL 6
REMARK VINA RESULT:      -7.0      4.309      8.188
REMARK  6 active torsions:
REMARK  status: ('A' for Active; 'I' for Inactive)
REMARK    1  A    between atoms: N1_5  and  C4_6 
REMARK    2  A    between atoms: C7_9  and  N2_10 
REMARK    3  A    between atoms: N2_10  and  C8_11 
REMARK    4  A    between atoms: C8_11  and  C9_12 
REMARK    5  A    between atoms: C10_13  and  C11_14 
REMARK    6  A    between atoms: C11_14  and  N3_15 
ROOT
HETATM    1  C4  UNL     1      24.527   6.077  49.710  1.00  0.00     0.036 C 
HETATM    2  C5  UNL     1      23.254   5.768  49.239  1.00  0.00    -0.028 C 
HETATM    3  C6  UNL     1      22.373   4.460  48.888  1.00  0.00     0.041 C 
HETATM    4  C7  UNL     1      22.548   4.150  50.239  1.00  0.00     0.055 C 
HETATM    5  C16 UNL     1      22.037   5.478  50.779  1.00  0.00     0.051 C 
HETATM    6  C17 UNL     1      21.474   6.679  50.449  1.00  0.00     0.009 C 
HETATM    7  C18 UNL     1      22.376   7.039  49.246  1.00  0.00     0.070 C 
HETATM    8  N4  UNL     1      23.161   5.978  51.838  1.00  0.00    -0.383 N 
HETATM    9  C19 UNL     1      24.469   6.477  51.209  1.00  0.00     0.177 C 
HETATM   10  H21 UNL     1      23.582   6.196  52.856  1.00  0.00     0.160 HD
ENDROOT
BRANCH   4  11
HETATM   11  N2  UNL     1      22.877   2.724  50.524  1.00  0.00    -0.385 N 
HETATM   12  H5  UNL     1      23.374   2.056  49.928  1.00  0.00     0.160 HD
BRANCH  11  13
HETATM   13  C8  UNL     1      22.356   2.430  51.869  1.00  0.00     0.147 C 
BRANCH  13  14
HETATM   14  C9  UNL     1      23.510   2.230  52.784  1.00  0.00    -0.010 C 
HETATM   15  C10 UNL     1      24.750   2.687  52.829  1.00  0.00     0.001 C 
BRANCH  15  16
HETATM   16  C11 UNL     1      25.764   2.361  53.843  1.00  0.00     0.300 C 
BRANCH  16  17
HETATM   17  N3  UNL     1      26.563   1.210  53.573  1.00  0.00     0.098 N 
HETATM   18  C12 UNL     1      26.790   0.938  52.194  1.00  0.00     0.300 C 
HETATM   19  C13 UNL     1      26.711  -0.516  51.992  1.00  0.00     0.001 C 
HETATM   20  C14 UNL     1      26.275  -1.061  53.117  1.00  0.00     0.001 C 
HETATM   21  C15 UNL     1      26.037  -0.013  54.131  1.00  0.00     0.300 C 
ENDBRANCH  16  17
ENDBRANCH  15  16
ENDBRANCH  13  14
ENDBRANCH  11  13
ENDBRANCH   4  11
BRANCH   1  22
HETATM   22  N1  UNL     1      25.897   6.082  49.181  1.00  0.00    -0.353 N 
HETATM   23  C3  UNL     1      26.450   4.777  49.153  1.00  0.00     0.158 A 
HETATM   24  C2  UNL     1      27.827   4.857  48.601  1.00  0.00     0.037 A 
HETATM   25  C1  UNL     1      28.517   5.907  48.184  1.00  0.00     0.137 A 
HETATM   26  F1  UNL     1      29.779   5.843  47.697  1.00  0.00    -0.205 F 
HETATM   27  C21 UNL     1      27.793   7.178  48.288  1.00  0.00     0.087 A 
HETATM   28  C20 UNL     1      26.560   7.266  48.757  1.00  0.00     0.118 A 
HETATM   29 CL1  UNL     1      28.627   8.625  47.759  1.00  0.00    -0.080 Cl
ENDBRANCH   1  22
TORSDOF 6
ENDMDL
MODEL 7
REMARK VINA RESULT:      -6.8      2.626      6.395
REMARK  6 active torsions:
REMARK  status: ('A' for Active; 'I' for Inactive)
REMARK    1  A    between atoms: N1_5  and  C4_6 
REMARK    2  A    between atoms: C7_9  and  N2_10 
REMARK    3  A    between atoms: N2_10  and  C8_11 
REMARK    4  A    between atoms: C8_11  and  C9_12 
REMARK    5  A    between atoms: C10_13  and  C11_14 
REMARK    6  A    between atoms: C11_14  and  N3_15 
ROOT
HETATM    1  C4  UNL     1      23.634   3.128  51.006  1.00  0.00     0.036 C 
HETATM    2  C5  UNL     1      23.536   3.320  49.631  1.00  0.00    -0.028 C 
HETATM    3  C6  UNL     1      23.069   2.499  48.319  1.00  0.00     0.041 C 
HETATM    4  C7  UNL     1      21.827   2.458  48.957  1.00  0.00     0.055 C 
HETATM    5  C16 UNL     1      21.710   3.958  49.185  1.00  0.00     0.051 C 
HETATM    6  C17 UNL     1      22.286   5.174  48.950  1.00  0.00     0.009 C 
HETATM    7  C18 UNL     1      23.749   4.814  49.299  1.00  0.00     0.070 C 
HETATM    8  N4  UNL     1      21.323   4.130  50.753  1.00  0.00    -0.383 N 
HETATM    9  C19 UNL     1      22.463   3.838  51.738  1.00  0.00     0.177 C 
HETATM   10  H21 UNL     1      20.649   4.361  51.620  1.00  0.00     0.160 HD
ENDROOT
BRANCH   4  11
HETATM   11  N2  UNL     1      21.132   1.139  48.904  1.00  0.00    -0.385 N 
HETATM   12  H5  UNL     1      21.496   0.243  48.570  1.00  0.00     0.160 HD
BRANCH  11  13
HETATM   13  C8  UNL     1      19.782   1.351  49.450  1.00  0.00     0.147 C 
BRANCH  13  14
HETATM   14  C9  UNL     1      19.640   0.530  50.681  1.00  0.00    -0.010 C 
HETATM   15  C10 UNL     1      19.557   0.800  51.972  1.00  0.00     0.001 C 
BRANCH  15  16
HETATM   16  C11 UNL     1      19.417  -0.178  53.062  1.00  0.00     0.300 C 
BRANCH  16  17
HETATM   17  N3  UNL     1      20.478  -0.200  54.016  1.00  0.00     0.098 N 
HETATM   18  C12 UNL     1      21.678   0.447  53.604  1.00  0.00     0.300 C 
HETATM   19  C13 UNL     1      22.818  -0.359  54.065  1.00  0.00     0.001 C 
HETATM   20  C14 UNL     1      22.344  -1.501  54.541  1.00  0.00     0.001 C 
HETATM   21  C15 UNL     1      20.870  -1.526  54.427  1.00  0.00     0.300 C 
ENDBRANCH  16  17
ENDBRANCH  15  16
ENDBRANCH  13  14
ENDBRANCH  11  13
ENDBRANCH   4  11
BRANCH   1  22
HETATM   22  N1  UNL     1      24.515   2.404  51.930  1.00  0.00    -0.353 N 
HETATM   23  C3  UNL     1      24.627   3.072  53.176  1.00  0.00     0.158 A 
HETATM   24  C2  UNL     1      25.523   2.281  54.059  1.00  0.00     0.037 A 
HETATM   25  C1  UNL     1      26.162   1.146  53.826  1.00  0.00     0.137 A 
HETATM   26  F1  UNL     1      26.958   0.521  54.727  1.00  0.00    -0.205 F 
HETATM   27  C21 UNL     1      25.937   0.597  52.485  1.00  0.00     0.087 A 
HETATM   28  C20 UNL     1      25.163   1.185  51.589  1.00  0.00     0.118 A 
HETATM   29 CL1  UNL     1      26.743  -0.906  52.084  1.00  0.00    -0.080 Cl
ENDBRANCH   1  22
TORSDOF 6
ENDMDL
MODEL 8
REMARK VINA RESULT:      -6.7      4.588      7.058
REMARK  6 active torsions:
REMARK  status: ('A' for Active; 'I' for Inactive)
REMARK    1  A    between atoms: N1_5  and  C4_6 
REMARK    2  A    between atoms: C7_9  and  N2_10 
REMARK    3  A    between atoms: N2_10  and  C8_11 
REMARK    4  A    between atoms: C8_11  and  C9_12 
REMARK    5  A    between atoms: C10_13  and  C11_14 
REMARK    6  A    between atoms: C11_14  and  N3_15 
ROOT
HETATM    1  C4  UNL     1      23.168   4.849  51.504  1.00  0.00     0.036 C 
HETATM    2  C5  UNL     1      23.354   3.528  51.105  1.00  0.00    -0.028 C 
HETATM    3  C6  UNL     1      24.428   2.648  50.278  1.00  0.00     0.041 C 
HETATM    4  C7  UNL     1      25.317   3.049  51.278  1.00  0.00     0.055 C 
HETATM    5  C16 UNL     1      24.466   2.585  52.451  1.00  0.00     0.051 C 
HETATM    6  C17 UNL     1      23.320   1.934  52.814  1.00  0.00     0.009 C 
HETATM    7  C18 UNL     1      22.340   2.618  51.833  1.00  0.00     0.070 C 
HETATM    8  N4  UNL     1      24.407   3.847  53.471  1.00  0.00    -0.383 N 
HETATM    9  C19 UNL     1      23.532   5.018  53.004  1.00  0.00     0.177 C 
HETATM   10  H21 UNL     1      24.651   4.418  54.406  1.00  0.00     0.160 HD
ENDROOT
BRANCH   4  11
HETATM   11  N2  UNL     1      26.665   3.469  50.795  1.00  0.00    -0.385 N 
HETATM   12  H5  UNL     1      27.499   3.681  51.347  1.00  0.00     0.160 HD
BRANCH  11  13
HETATM   13  C8  UNL     1      26.590   3.517  49.325  1.00  0.00     0.147 C 
BRANCH  13  14
HETATM   14  C9  UNL     1      27.517   4.573  48.843  1.00  0.00    -0.010 C 
HETATM   15  C10 UNL     1      27.375   5.832  48.467  1.00  0.00     0.001 C 
BRANCH  15  16
HETATM   16  C11 UNL     1      28.443   6.734  48.010  1.00  0.00     0.300 C 
BRANCH  16  17
HETATM   17  N3  UNL     1      28.165   8.129  48.117  1.00  0.00     0.098 N 
HETATM   18  C12 UNL     1      28.900   8.820  49.122  1.00  0.00     0.300 C 
HETATM   19  C13 UNL     1      27.999   9.785  49.771  1.00  0.00     0.001 C 
HETATM   20  C14 UNL     1      26.772   9.556  49.330  1.00  0.00     0.001 C 
HETATM   21  C15 UNL     1      26.777   8.433  48.369  1.00  0.00     0.300 C 
ENDBRANCH  16  17
ENDBRANCH  15  16
ENDBRANCH  13  14
ENDBRANCH  11  13
ENDBRANCH   4  11
BRANCH   1  22
HETATM   22  N1  UNL     1      22.766   6.114  50.878  1.00  0.00    -0.353 N 
HETATM   23  C3  UNL     1      23.882   6.956  50.639  1.00  0.00     0.158 A 
HETATM   24  C2  UNL     1      23.404   8.208  49.999  1.00  0.00     0.037 A 
HETATM   25  C1  UNL     1      22.177   8.582  49.671  1.00  0.00     0.137 A 
HETATM   26  F1  UNL     1      21.871   9.764  49.086  1.00  0.00    -0.205 F 
HETATM   27  C21 UNL     1      21.144   7.591  49.995  1.00  0.00     0.087 A 
HETATM   28  C20 UNL     1      21.416   6.429  50.563  1.00  0.00     0.118 A 
HETATM   29 CL1  UNL     1      19.487   7.997  49.597  1.00  0.00    -0.080 Cl
ENDBRANCH   1  22
TORSDOF 6
ENDMDL
MODEL 9
REMARK VINA RESULT:      -6.7      3.529      5.834
REMARK  6 active torsions:
REMARK  status: ('A' for Active; 'I' for Inactive)
REMARK    1  A    between atoms: N1_5  and  C4_6 
REMARK    2  A    between atoms: C7_9  and  N2_10 
REMARK    3  A    between atoms: N2_10  and  C8_11 
REMARK    4  A    between atoms: C8_11  and  C9_12 
REMARK    5  A    between atoms: C10_13  and  C11_14 
REMARK    6  A    between atoms: C11_14  and  N3_15 
ROOT
HETATM    1  C4  UNL     1      21.633   1.854  51.874  1.00  0.00     0.036 C 
HETATM    2  C5  UNL     1      21.807   3.216  51.643  1.00  0.00    -0.028 C 
HETATM    3  C6  UNL     1      22.943   4.217  51.079  1.00  0.00     0.041 C 
HETATM    4  C7  UNL     1      22.818   3.473  49.903  1.00  0.00     0.055 C 
HETATM    5  C16 UNL     1      21.311   3.632  49.767  1.00  0.00     0.051 C 
HETATM    6  C17 UNL     1      20.197   4.231  50.286  1.00  0.00     0.009 C 
HETATM    7  C18 UNL     1      20.452   3.944  51.784  1.00  0.00     0.070 C 
HETATM    8  N4  UNL     1      20.735   2.134  49.524  1.00  0.00    -0.383 N 
HETATM    9  C19 UNL     1      20.757   1.222  50.758  1.00  0.00     0.177 C 
HETATM   10  H21 UNL     1      20.286   1.295  48.928  1.00  0.00     0.160 HD
ENDROOT
BRANCH   4  11
HETATM   11  N2  UNL     1      24.106   3.113  49.242  1.00  0.00    -0.385 N 
HETATM   12  H5  UNL     1      24.279   2.918  48.253  1.00  0.00     0.160 HD
BRANCH  11  13
HETATM   13  C8  UNL     1      25.133   3.100  50.297  1.00  0.00     0.147 C 
BRANCH  13  14
HETATM   14  C9  UNL     1      26.391   3.654  49.733  1.00  0.00    -0.010 C 
HETATM   15  C10 UNL     1      26.693   4.711  48.999  1.00  0.00     0.001 C 
BRANCH  15  16
HETATM   16  C11 UNL     1      28.034   5.095  48.531  1.00  0.00     0.300 C 
BRANCH  16  17
HETATM   17  N3  UNL     1      28.179   6.451  48.111  1.00  0.00     0.098 N 
HETATM   18  C12 UNL     1      29.502   6.971  48.186  1.00  0.00     0.300 C 
HETATM   19  C13 UNL     1      29.426   8.358  48.670  1.00  0.00     0.001 C 
HETATM   20  C14 UNL     1      28.178   8.590  49.047  1.00  0.00     0.001 C 
HETATM   21  C15 UNL     1      27.351   7.382  48.840  1.00  0.00     0.300 C 
ENDBRANCH  16  17
ENDBRANCH  15  16
ENDBRANCH  13  14
ENDBRANCH  11  13
ENDBRANCH   4  11
BRANCH   1  22
HETATM   22  N1  UNL     1      22.089   0.864  52.858  1.00  0.00    -0.353 N 
HETATM   23  C3  UNL     1      21.010   0.358  53.626  1.00  0.00     0.158 A 
HETATM   24  C2  UNL     1      21.542  -0.641  54.590  1.00  0.00     0.037 A 
HETATM   25  C1  UNL     1      22.783  -1.056  54.787  1.00  0.00     0.137 A 
HETATM   26  F1  UNL     1      23.139  -1.983  55.708  1.00  0.00    -0.205 F 
HETATM   27  C21 UNL     1      23.772  -0.424  53.907  1.00  0.00     0.087 A 
HETATM   28  C20 UNL     1      23.450   0.480  52.998  1.00  0.00     0.118 A 
HETATM   29 CL1  UNL     1      25.444  -0.911  54.095  1.00  0.00    -0.080 Cl
ENDBRANCH   1  22
TORSDOF 6
ENDMDL
