MODEL 1
REMARK VINA RESULT:      -6.4      0.000      0.000
REMARK  9 active torsions:
REMARK  status: ('A' for Active; 'I' for Inactive)
REMARK    1  A    between atoms: C2_2  and  N2_14 
REMARK    2  A    between atoms: C3_3  and  N1_4 
REMARK       I    between atoms: N1_4  and  C4_5 
REMARK    3  A    between atoms: C4_5  and  C5_7 
REMARK    4  A    between atoms: N2_14  and  C11_15 
REMARK    5  A    between atoms: C11_15  and  C12_16 
REMARK    6  A    between atoms: C12_16  and  C13_17 
REMARK    7  A    between atoms: C13_17  and  N3_18 
REMARK    8  A    between atoms: N3_18  and  C14_19 
REMARK    9  A    between atoms: C14_19  and  C15_20 
ROOT
HETATM    1  C1  UNL     1      24.557   3.016  52.703  1.00  0.00     0.069 C 
HETATM    2  C2  UNL     1      25.398   2.006  52.012  1.00  0.00     0.016 C 
HETATM    3  C3  UNL     1      26.174   2.470  51.050  1.00  0.00     0.115 C 
ENDROOT
BRANCH   2   4
HETATM    4  N2  UNL     1      25.495   0.607  52.230  1.00  0.00    -0.392 N 
HETATM    5  H10 UNL     1      26.168   0.271  51.510  1.00  0.00     0.159 HD
BRANCH   4   6
HETATM    6  C11 UNL     1      24.642   0.183  53.349  1.00  0.00     0.121 C 
BRANCH   6   7
HETATM    7  C12 UNL     1      25.489  -0.625  54.313  1.00  0.00     0.039 C 
BRANCH   7   8
HETATM    8  C13 UNL     1      26.507   0.211  55.033  1.00  0.00     0.120 C 
BRANCH   8   9
HETATM    9  N3  UNL     1      27.840  -0.344  54.930  1.00  0.00    -0.396 N 
HETATM   10  H17 UNL     1      27.983  -1.357  55.122  1.00  0.00     0.159 HD
BRANCH   9  11
HETATM   11  C14 UNL     1      28.831   0.636  54.557  1.00  0.00     0.142 C 
BRANCH  11  12
HETATM   12  C15 UNL     1      28.706   1.631  53.726  1.00  0.00     0.237 C 
HETATM   13  O2  UNL     1      28.881   2.741  53.207  1.00  0.00    -0.283 OA
ENDBRANCH  11  12
ENDBRANCH   9  11
ENDBRANCH   8   9
ENDBRANCH   7   8
ENDBRANCH   6   7
ENDBRANCH   4   6
ENDBRANCH   2   4
BRANCH   3  14
HETATM   14  N1  UNL     1      26.414   3.753  50.487  1.00  0.00    -0.331 N 
HETATM   15  C4  UNL     1      25.776   4.631  49.569  1.00  0.00     0.257 C 
HETATM   16  O1  UNL     1      24.699   4.067  49.168  1.00  0.00    -0.267 OA
HETATM   17  H5  UNL     1      27.321   4.043  50.928  1.00  0.00     0.168 HD
BRANCH  15  18
HETATM   18  C5  UNL     1      26.446   5.899  49.301  1.00  0.00     0.054 A 
HETATM   19  C6  UNL     1      27.509   5.833  48.429  1.00  0.00     0.019 A 
HETATM   20  C7  UNL     1      28.198   6.981  48.119  1.00  0.00     0.001 A 
HETATM   21  C8  UNL     1      27.838   8.189  48.670  1.00  0.00     0.002 A 
HETATM   22  C9  UNL     1      26.762   8.278  49.558  1.00  0.00     0.025 A 
HETATM   23  C10 UNL     1      26.087   7.111  49.853  1.00  0.00     0.049 A 
HETATM   24 CL1  UNL     1      24.714   7.082  50.957  1.00  0.00    -0.083 Cl
ENDBRANCH  15  18
ENDBRANCH   3  14
TORSDOF 9
ENDMDL
MODEL 2
REMARK VINA RESULT:      -6.2      4.623      7.022
REMARK  9 active torsions:
REMARK  status: ('A' for Active; 'I' for Inactive)
REMARK    1  A    between atoms: C2_2  and  N2_14 
REMARK    2  A    between atoms: C3_3  and  N1_4 
REMARK       I    between atoms: N1_4  and  C4_5 
REMARK    3  A    between atoms: C4_5  and  C5_7 
REMARK    4  A    between atoms: N2_14  and  C11_15 
REMARK    5  A    between atoms: C11_15  and  C12_16 
REMARK    6  A    between atoms: C12_16  and  C13_17 
REMARK    7  A    between atoms: C13_17  and  N3_18 
REMARK    8  A    between atoms: N3_18  and  C14_19 
REMARK    9  A    between atoms: C14_19  and  C15_20 
ROOT
HETATM    1  C1  UNL     1      23.955   3.595  52.725  1.00  0.00     0.069 C 
HETATM    2  C2  UNL     1      23.439   2.608  51.743  1.00  0.00     0.016 C 
HETATM    3  C3  UNL     1      24.176   1.526  51.579  1.00  0.00     0.115 C 
ENDROOT
BRANCH   2   4
HETATM    4  N2  UNL     1      22.264   2.653  50.947  1.00  0.00    -0.392 N 
HETATM    5  H10 UNL     1      21.820   3.566  51.179  1.00  0.00     0.159 HD
BRANCH   4   6
HETATM    6  C11 UNL     1      22.129   1.438  50.131  1.00  0.00     0.121 C 
BRANCH   6   7
HETATM    7  C12 UNL     1      20.689   0.971  50.209  1.00  0.00     0.039 C 
BRANCH   7   8
HETATM    8  C13 UNL     1      20.236   0.714  51.617  1.00  0.00     0.120 C 
BRANCH   8   9
HETATM    9  N3  UNL     1      21.112  -0.205  52.312  1.00  0.00    -0.396 N 
HETATM   10  H17 UNL     1      21.583  -0.961  51.774  1.00  0.00     0.159 HD
BRANCH   9  11
HETATM   11  C14 UNL     1      21.213   0.071  53.724  1.00  0.00     0.142 C 
BRANCH  11  12
HETATM   12  C15 UNL     1      21.452  -0.766  54.693  1.00  0.00     0.237 C 
HETATM   13  O2  UNL     1      21.835  -1.786  55.280  1.00  0.00    -0.283 OA
ENDBRANCH  11  12
ENDBRANCH   9  11
ENDBRANCH   8   9
ENDBRANCH   7   8
ENDBRANCH   6   7
ENDBRANCH   4   6
ENDBRANCH   2   4
BRANCH   3  14
HETATM   14  N1  UNL     1      25.395   1.049  52.134  1.00  0.00    -0.331 N 
HETATM   15  C4  UNL     1      25.799   0.196  53.196  1.00  0.00     0.257 C 
HETATM   16  O1  UNL     1      24.744  -0.232  53.781  1.00  0.00    -0.267 OA
HETATM   17  H5  UNL     1      26.126   1.501  51.532  1.00  0.00     0.168 HD
BRANCH  15  18
HETATM   18  C5  UNL     1      27.235   0.008  53.376  1.00  0.00     0.054 A 
HETATM   19  C6  UNL     1      27.909   1.083  53.909  1.00  0.00     0.019 A 
HETATM   20  C7  UNL     1      29.265   0.993  54.113  1.00  0.00     0.001 A 
HETATM   21  C8  UNL     1      29.952  -0.153  53.790  1.00  0.00     0.002 A 
HETATM   22  C9  UNL     1      29.286  -1.257  53.247  1.00  0.00     0.025 A 
HETATM   23  C10 UNL     1      27.925  -1.142  53.051  1.00  0.00     0.049 A 
HETATM   24 CL1  UNL     1      26.965  -2.455  52.375  1.00  0.00    -0.083 Cl
ENDBRANCH  15  18
ENDBRANCH   3  14
TORSDOF 9
ENDMDL
MODEL 3
REMARK VINA RESULT:      -6.2      4.431      6.938
REMARK  9 active torsions:
REMARK  status: ('A' for Active; 'I' for Inactive)
REMARK    1  A    between atoms: C2_2  and  N2_14 
REMARK    2  A    between atoms: C3_3  and  N1_4 
REMARK       I    between atoms: N1_4  and  C4_5 
REMARK    3  A    between atoms: C4_5  and  C5_7 
REMARK    4  A    between atoms: N2_14  and  C11_15 
REMARK    5  A    between atoms: C11_15  and  C12_16 
REMARK    6  A    between atoms: C12_16  and  C13_17 
REMARK    7  A    between atoms: C13_17  and  N3_18 
REMARK    8  A    between atoms: N3_18  and  C14_19 
REMARK    9  A    between atoms: C14_19  and  C15_20 
ROOT
HETATM    1  C1  UNL     1      24.108   3.363  53.059  1.00  0.00     0.069 C 
HETATM    2  C2  UNL     1      23.548   2.495  51.993  1.00  0.00     0.016 C 
HETATM    3  C3  UNL     1      24.256   1.420  51.700  1.00  0.00     0.115 C 
ENDROOT
BRANCH   2   4
HETATM    4  N2  UNL     1      22.357   2.646  51.236  1.00  0.00    -0.392 N 
HETATM    5  H10 UNL     1      22.556   2.175  50.329  1.00  0.00     0.159 HD
BRANCH   4   6
HETATM    6  C11 UNL     1      21.334   3.382  51.994  1.00  0.00     0.121 C 
BRANCH   6   7
HETATM    7  C12 UNL     1      20.479   2.375  52.738  1.00  0.00     0.039 C 
BRANCH   7   8
HETATM    8  C13 UNL     1      20.126   1.180  51.901  1.00  0.00     0.120 C 
BRANCH   8   9
HETATM    9  N3  UNL     1      20.416  -0.066  52.577  1.00  0.00    -0.396 N 
HETATM   10  H17 UNL     1      20.045  -0.955  52.182  1.00  0.00     0.159 HD
BRANCH   9  11
HETATM   11  C14 UNL     1      21.218   0.110  53.763  1.00  0.00     0.142 C 
BRANCH  11  12
HETATM   12  C15 UNL     1      21.496  -0.768  54.684  1.00  0.00     0.237 C 
HETATM   13  O2  UNL     1      22.141  -1.581  55.358  1.00  0.00    -0.283 OA
ENDBRANCH  11  12
ENDBRANCH   9  11
ENDBRANCH   8   9
ENDBRANCH   7   8
ENDBRANCH   6   7
ENDBRANCH   4   6
ENDBRANCH   2   4
BRANCH   3  14
HETATM   14  N1  UNL     1      25.475   0.863  52.172  1.00  0.00    -0.331 N 
HETATM   15  C4  UNL     1      25.925   0.135  53.307  1.00  0.00     0.257 C 
HETATM   16  O1  UNL     1      24.922  -0.039  54.085  1.00  0.00    -0.267 OA
HETATM   17  H5  UNL     1      26.160   1.106  51.415  1.00  0.00     0.168 HD
BRANCH  15  18
HETATM   18  C5  UNL     1      27.337  -0.229  53.336  1.00  0.00     0.054 A 
HETATM   19  C6  UNL     1      27.606  -1.564  53.133  1.00  0.00     0.019 A 
HETATM   20  C7  UNL     1      28.910  -1.997  53.143  1.00  0.00     0.001 A 
HETATM   21  C8  UNL     1      29.944  -1.115  53.352  1.00  0.00     0.002 A 
HETATM   22  C9  UNL     1      29.692   0.245  53.560  1.00  0.00     0.025 A 
HETATM   23  C10 UNL     1      28.375   0.654  53.546  1.00  0.00     0.049 A 
HETATM   24 CL1  UNL     1      27.918   2.338  53.795  1.00  0.00    -0.083 Cl
ENDBRANCH  15  18
ENDBRANCH   3  14
TORSDOF 9
ENDMDL
MODEL 4
REMARK VINA RESULT:      -6.2      3.405      6.668
REMARK  9 active torsions:
REMARK  status: ('A' for Active; 'I' for Inactive)
REMARK    1  A    between atoms: C2_2  and  N2_14 
REMARK    2  A    between atoms: C3_3  and  N1_4 
REMARK       I    between atoms: N1_4  and  C4_5 
REMARK    3  A    between atoms: C4_5  and  C5_7 
REMARK    4  A    between atoms: N2_14  and  C11_15 
REMARK    5  A    between atoms: C11_15  and  C12_16 
REMARK    6  A    between atoms: C12_16  and  C13_17 
REMARK    7  A    between atoms: C13_17  and  N3_18 
REMARK    8  A    between atoms: N3_18  and  C14_19 
REMARK    9  A    between atoms: C14_19  and  C15_20 
ROOT
HETATM    1  C1  UNL     1      26.438  -1.529  51.958  1.00  0.00     0.069 C 
HETATM    2  C2  UNL     1      26.638  -0.971  53.319  1.00  0.00     0.016 C 
HETATM    3  C3  UNL     1      25.570  -0.433  53.879  1.00  0.00     0.115 C 
ENDROOT
BRANCH   2   4
HETATM    4  N2  UNL     1      27.811  -0.927  54.116  1.00  0.00    -0.392 N 
HETATM    5  H10 UNL     1      28.276  -1.845  53.957  1.00  0.00     0.159 HD
BRANCH   4   6
HETATM    6  C11 UNL     1      27.919   0.351  54.834  1.00  0.00     0.121 C 
BRANCH   6   7
HETATM    7  C12 UNL     1      29.096   1.118  54.265  1.00  0.00     0.039 C 
BRANCH   7   8
HETATM    8  C13 UNL     1      28.700   2.445  53.685  1.00  0.00     0.120 C 
BRANCH   8   9
HETATM    9  N3  UNL     1      27.322   2.459  53.243  1.00  0.00    -0.396 N 
HETATM   10  H17 UNL     1      26.565   2.557  53.951  1.00  0.00     0.159 HD
BRANCH   9  11
HETATM   11  C14 UNL     1      27.186   2.328  51.814  1.00  0.00     0.142 C 
BRANCH  11  12
HETATM   12  C15 UNL     1      26.255   2.817  51.045  1.00  0.00     0.237 C 
HETATM   13  O2  UNL     1      25.600   3.060  50.024  1.00  0.00    -0.283 OA
ENDBRANCH  11  12
ENDBRANCH   9  11
ENDBRANCH   8   9
ENDBRANCH   7   8
ENDBRANCH   6   7
ENDBRANCH   4   6
ENDBRANCH   2   4
BRANCH   3  14
HETATM   14  N1  UNL     1      24.217  -0.248  53.484  1.00  0.00    -0.331 N 
HETATM   15  C4  UNL     1      23.365   0.837  53.140  1.00  0.00     0.257 C 
HETATM   16  O1  UNL     1      24.048   1.917  53.226  1.00  0.00    -0.267 OA
HETATM   17  H5  UNL     1      23.834  -1.224  53.472  1.00  0.00     0.168 HD
BRANCH  15  18
HETATM   18  C5  UNL     1      21.989   0.504  52.788  1.00  0.00     0.054 A 
HETATM   19  C6  UNL     1      21.243  -0.065  53.796  1.00  0.00     0.019 A 
HETATM   20  C7  UNL     1      19.935  -0.411  53.552  1.00  0.00     0.001 A 
HETATM   21  C8  UNL     1      19.368  -0.196  52.318  1.00  0.00     0.002 A 
HETATM   22  C9  UNL     1      20.108   0.379  51.281  1.00  0.00     0.025 A 
HETATM   23  C10 UNL     1      21.419   0.717  51.550  1.00  0.00     0.049 A 
HETATM   24 CL1  UNL     1      22.462   1.449  50.334  1.00  0.00    -0.083 Cl
ENDBRANCH  15  18
ENDBRANCH   3  14
TORSDOF 9
ENDMDL
MODEL 5
REMARK VINA RESULT:      -6.1      2.853      7.082
REMARK  9 active torsions:
REMARK  status: ('A' for Active; 'I' for Inactive)
REMARK    1  A    between atoms: C2_2  and  N2_14 
REMARK    2  A    between atoms: C3_3  and  N1_4 
REMARK       I    between atoms: N1_4  and  C4_5 
REMARK    3  A    between atoms: C4_5  and  C5_7 
REMARK    4  A    between atoms: N2_14  and  C11_15 
REMARK    5  A    between atoms: C11_15  and  C12_16 
REMARK    6  A    between atoms: C12_16  and  C13_17 
REMARK    7  A    between atoms: C13_17  and  N3_18 
REMARK    8  A    between atoms: N3_18  and  C14_19 
REMARK    9  A    between atoms: C14_19  and  C15_20 
ROOT
HETATM    1  C1  UNL     1      23.027   1.091  52.004  1.00  0.00     0.069 C 
HETATM    2  C2  UNL     1      23.661   2.428  51.888  1.00  0.00     0.016 C 
HETATM    3  C3  UNL     1      24.959   2.468  52.126  1.00  0.00     0.115 C 
ENDROOT
BRANCH   2   4
HETATM    4  N2  UNL     1      23.079   3.680  51.560  1.00  0.00    -0.392 N 
HETATM    5  H10 UNL     1      22.271   3.777  52.209  1.00  0.00     0.159 HD
BRANCH   4   6
HETATM    6  C11 UNL     1      23.814   4.338  50.469  1.00  0.00     0.121 C 
BRANCH   6   7
HETATM    7  C12 UNL     1      23.883   5.822  50.771  1.00  0.00     0.039 C 
BRANCH   7   8
HETATM    8  C13 UNL     1      25.120   6.471  50.220  1.00  0.00     0.120 C 
BRANCH   8   9
HETATM    9  N3  UNL     1      26.202   5.526  50.050  1.00  0.00    -0.396 N 
HETATM   10  H17 UNL     1      26.433   4.876  50.830  1.00  0.00     0.159 HD
BRANCH   9  11
HETATM   11  C14 UNL     1      26.840   5.624  48.761  1.00  0.00     0.142 C 
BRANCH  11  12
HETATM   12  C15 UNL     1      28.056   5.288  48.436  1.00  0.00     0.237 C 
HETATM   13  O2  UNL     1      29.277   5.113  48.530  1.00  0.00    -0.283 OA
ENDBRANCH  11  12
ENDBRANCH   9  11
ENDBRANCH   8   9
ENDBRANCH   7   8
ENDBRANCH   6   7
ENDBRANCH   4   6
ENDBRANCH   2   4
BRANCH   3  14
HETATM   14  N1  UNL     1      25.944   1.506  52.479  1.00  0.00    -0.331 N 
HETATM   15  C4  UNL     1      26.593   1.057  53.662  1.00  0.00     0.257 C 
HETATM   16  O1  UNL     1      26.133   1.735  54.645  1.00  0.00    -0.267 OA
HETATM   17  H5  UNL     1      26.190   1.065  51.560  1.00  0.00     0.168 HD
BRANCH  15  18
HETATM   18  C5  UNL     1      27.577  -0.008  53.504  1.00  0.00     0.054 A 
HETATM   19  C6  UNL     1      27.086  -1.198  53.016  1.00  0.00     0.019 A 
HETATM   20  C7  UNL     1      27.944  -2.257  52.835  1.00  0.00     0.001 A 
HETATM   21  C8  UNL     1      29.281  -2.141  53.137  1.00  0.00     0.002 A 
HETATM   22  C9  UNL     1      29.799  -0.941  53.635  1.00  0.00     0.025 A 
HETATM   23  C10 UNL     1      28.918   0.107  53.808  1.00  0.00     0.049 A 
HETATM   24 CL1  UNL     1      29.439   1.672  54.427  1.00  0.00    -0.083 Cl
ENDBRANCH  15  18
ENDBRANCH   3  14
TORSDOF 9
ENDMDL
MODEL 6
REMARK VINA RESULT:      -6.0      3.135      6.892
REMARK  9 active torsions:
REMARK  status: ('A' for Active; 'I' for Inactive)
REMARK    1  A    between atoms: C2_2  and  N2_14 
REMARK    2  A    between atoms: C3_3  and  N1_4 
REMARK       I    between atoms: N1_4  and  C4_5 
REMARK    3  A    between atoms: C4_5  and  C5_7 
REMARK    4  A    between atoms: N2_14  and  C11_15 
REMARK    5  A    between atoms: C11_15  and  C12_16 
REMARK    6  A    between atoms: C12_16  and  C13_17 
REMARK    7  A    between atoms: C13_17  and  N3_18 
REMARK    8  A    between atoms: N3_18  and  C14_19 
REMARK    9  A    between atoms: C14_19  and  C15_20 
ROOT
HETATM    1  C1  UNL     1      23.522   1.674  51.118  1.00  0.00     0.069 C 
HETATM    2  C2  UNL     1      23.499   2.675  52.214  1.00  0.00     0.016 C 
HETATM    3  C3  UNL     1      24.493   2.598  53.080  1.00  0.00     0.115 C 
ENDROOT
BRANCH   2   4
HETATM    4  N2  UNL     1      22.563   3.709  52.476  1.00  0.00    -0.392 N 
HETATM    5  H10 UNL     1      22.165   3.479  53.410  1.00  0.00     0.159 HD
BRANCH   4   6
HETATM    6  C11 UNL     1      22.515   4.676  51.369  1.00  0.00     0.121 C 
BRANCH   6   7
HETATM    7  C12 UNL     1      23.588   5.721  51.604  1.00  0.00     0.039 C 
BRANCH   7   8
HETATM    8  C13 UNL     1      24.225   6.198  50.330  1.00  0.00     0.120 C 
BRANCH   8   9
HETATM    9  N3  UNL     1      25.644   5.920  50.293  1.00  0.00    -0.396 N 
HETATM   10  H17 UNL     1      26.308   6.622  50.680  1.00  0.00     0.159 HD
BRANCH   9  11
HETATM   11  C14 UNL     1      25.954   4.646  49.693  1.00  0.00     0.142 C 
BRANCH  11  12
HETATM   12  C15 UNL     1      26.486   3.599  50.257  1.00  0.00     0.237 C 
HETATM   13  O2  UNL     1      26.907   2.444  50.401  1.00  0.00    -0.283 OA
ENDBRANCH  11  12
ENDBRANCH   9  11
ENDBRANCH   8   9
ENDBRANCH   7   8
ENDBRANCH   6   7
ENDBRANCH   4   6
ENDBRANCH   2   4
BRANCH   3  14
HETATM   14  N1  UNL     1      25.630   1.759  53.228  1.00  0.00    -0.331 N 
HETATM   15  C4  UNL     1      25.897   0.411  53.593  1.00  0.00     0.257 C 
HETATM   16  O1  UNL     1      24.778  -0.157  53.848  1.00  0.00    -0.267 OA
HETATM   17  H5  UNL     1      26.430   2.391  52.982  1.00  0.00     0.168 HD
BRANCH  15  18
HETATM   18  C5  UNL     1      27.296  -0.003  53.596  1.00  0.00     0.054 A 
HETATM   19  C6  UNL     1      28.170   0.880  54.190  1.00  0.00     0.019 A 
HETATM   20  C7  UNL     1      29.509   0.571  54.238  1.00  0.00     0.001 A 
HETATM   21  C8  UNL     1      29.981  -0.604  53.703  1.00  0.00     0.002 A 
HETATM   22  C9  UNL     1      29.109  -1.514  53.096  1.00  0.00     0.025 A 
HETATM   23  C10 UNL     1      27.771  -1.181  53.059  1.00  0.00     0.049 A 
HETATM   24 CL1  UNL     1      26.566  -2.236  52.324  1.00  0.00    -0.083 Cl
ENDBRANCH  15  18
ENDBRANCH   3  14
TORSDOF 9
ENDMDL
MODEL 7
REMARK VINA RESULT:      -6.0      2.994      7.434
REMARK  9 active torsions:
REMARK  status: ('A' for Active; 'I' for Inactive)
REMARK    1  A    between atoms: C2_2  and  N2_14 
REMARK    2  A    between atoms: C3_3  and  N1_4 
REMARK       I    between atoms: N1_4  and  C4_5 
REMARK    3  A    between atoms: C4_5  and  C5_7 
REMARK    4  A    between atoms: N2_14  and  C11_15 
REMARK    5  A    between atoms: C11_15  and  C12_16 
REMARK    6  A    between atoms: C12_16  and  C13_17 
REMARK    7  A    between atoms: C13_17  and  N3_18 
REMARK    8  A    between atoms: N3_18  and  C14_19 
REMARK    9  A    between atoms: C14_19  and  C15_20 
ROOT
HETATM    1  C1  UNL     1      27.090   4.200  49.119  1.00  0.00     0.069 C 
HETATM    2  C2  UNL     1      25.708   4.313  49.650  1.00  0.00     0.016 C 
HETATM    3  C3  UNL     1      25.399   3.477  50.624  1.00  0.00     0.115 C 
ENDROOT
BRANCH   2   4
HETATM    4  N2  UNL     1      24.660   5.191  49.267  1.00  0.00    -0.392 N 
HETATM    5  H10 UNL     1      24.239   4.749  48.423  1.00  0.00     0.159 HD
BRANCH   4   6
HETATM    6  C11 UNL     1      24.573   6.344  50.174  1.00  0.00     0.121 C 
BRANCH   6   7
HETATM    7  C12 UNL     1      25.124   7.559  49.453  1.00  0.00     0.039 C 
BRANCH   7   8
HETATM    8  C13 UNL     1      26.312   8.159  50.148  1.00  0.00     0.120 C 
BRANCH   8   9
HETATM    9  N3  UNL     1      27.563   7.716  49.571  1.00  0.00    -0.396 N 
HETATM   10  H17 UNL     1      27.807   6.704  49.608  1.00  0.00     0.159 HD
BRANCH   9  11
HETATM   11  C14 UNL     1      28.332   8.792  48.998  1.00  0.00     0.142 C 
BRANCH  11  12
HETATM   12  C15 UNL     1      29.557   9.141  49.272  1.00  0.00     0.237 C 
HETATM   13  O2  UNL     1      30.509   9.819  49.677  1.00  0.00    -0.283 OA
ENDBRANCH  11  12
ENDBRANCH   9  11
ENDBRANCH   8   9
ENDBRANCH   7   8
ENDBRANCH   6   7
ENDBRANCH   4   6
ENDBRANCH   2   4
BRANCH   3  14
HETATM   14  N1  UNL     1      26.092   2.451  51.322  1.00  0.00    -0.331 N 
HETATM   15  C4  UNL     1      26.113   1.906  52.635  1.00  0.00     0.257 C 
HETATM   16  O1  UNL     1      25.260   2.549  53.341  1.00  0.00    -0.267 OA
HETATM   17  H5  UNL     1      26.730   2.052  50.591  1.00  0.00     0.168 HD
BRANCH  15  18
HETATM   18  C5  UNL     1      27.040   0.806  52.873  1.00  0.00     0.054 A 
HETATM   19  C6  UNL     1      26.559  -0.448  52.570  1.00  0.00     0.019 A 
HETATM   20  C7  UNL     1      27.366  -1.544  52.763  1.00  0.00     0.001 A 
HETATM   21  C8  UNL     1      28.643  -1.401  53.254  1.00  0.00     0.002 A 
HETATM   22  C9  UNL     1      29.150  -0.136  53.569  1.00  0.00     0.025 A 
HETATM   23  C10 UNL     1      28.320   0.947  53.367  1.00  0.00     0.049 A 
HETATM   24 CL1  UNL     1      28.834   2.595  53.722  1.00  0.00    -0.083 Cl
ENDBRANCH  15  18
ENDBRANCH   3  14
TORSDOF 9
ENDMDL
MODEL 8
REMARK VINA RESULT:      -6.0      3.094      6.994
REMARK  9 active torsions:
REMARK  status: ('A' for Active; 'I' for Inactive)
REMARK    1  A    between atoms: C2_2  and  N2_14 
REMARK    2  A    between atoms: C3_3  and  N1_4 
REMARK       I    between atoms: N1_4  and  C4_5 
REMARK    3  A    between atoms: C4_5  and  C5_7 
REMARK    4  A    between atoms: N2_14  and  C11_15 
REMARK    5  A    between atoms: C11_15  and  C12_16 
REMARK    6  A    between atoms: C12_16  and  C13_17 
REMARK    7  A    between atoms: C13_17  and  N3_18 
REMARK    8  A    between atoms: N3_18  and  C14_19 
REMARK    9  A    between atoms: C14_19  and  C15_20 
ROOT
HETATM    1  C1  UNL     1      22.677   2.292  51.378  1.00  0.00     0.069 C 
HETATM    2  C2  UNL     1      23.072   3.471  52.190  1.00  0.00     0.016 C 
HETATM    3  C3  UNL     1      24.248   3.388  52.785  1.00  0.00     0.115 C 
ENDROOT
BRANCH   2   4
HETATM    4  N2  UNL     1      22.372   4.683  52.424  1.00  0.00    -0.392 N 
HETATM    5  H10 UNL     1      22.321   4.765  53.461  1.00  0.00     0.159 HD
BRANCH   4   6
HETATM    6  C11 UNL     1      22.003   5.337  51.160  1.00  0.00     0.121 C 
BRANCH   6   7
HETATM    7  C12 UNL     1      22.842   6.591  51.011  1.00  0.00     0.039 C 
BRANCH   7   8
HETATM    8  C13 UNL     1      24.239   6.303  50.540  1.00  0.00     0.120 C 
BRANCH   8   9
HETATM    9  N3  UNL     1      25.199   7.245  51.071  1.00  0.00    -0.396 N 
HETATM   10  H17 UNL     1      25.203   7.442  52.093  1.00  0.00     0.159 HD
BRANCH   9  11
HETATM   11  C14 UNL     1      26.059   7.806  50.058  1.00  0.00     0.142 C 
BRANCH  11  12
HETATM   12  C15 UNL     1      26.892   8.801  50.169  1.00  0.00     0.237 C 
HETATM   13  O2  UNL     1      27.310   9.963  50.247  1.00  0.00    -0.283 OA
ENDBRANCH  11  12
ENDBRANCH   9  11
ENDBRANCH   8   9
ENDBRANCH   7   8
ENDBRANCH   6   7
ENDBRANCH   4   6
ENDBRANCH   2   4
BRANCH   3  14
HETATM   14  N1  UNL     1      25.274   2.407  52.845  1.00  0.00    -0.331 N 
HETATM   15  C4  UNL     1      26.437   2.060  52.103  1.00  0.00     0.257 C 
HETATM   16  O1  UNL     1      26.542   2.884  51.129  1.00  0.00    -0.267 OA
HETATM   17  H5  UNL     1      25.017   1.841  53.690  1.00  0.00     0.168 HD
BRANCH  15  18
HETATM   18  C5  UNL     1      27.204   0.917  52.584  1.00  0.00     0.054 A 
HETATM   19  C6  UNL     1      26.690  -0.318  52.258  1.00  0.00     0.019 A 
HETATM   20  C7  UNL     1      27.349  -1.452  52.670  1.00  0.00     0.001 A 
HETATM   21  C8  UNL     1      28.510  -1.365  53.402  1.00  0.00     0.002 A 
HETATM   22  C9  UNL     1      29.048  -0.121  53.744  1.00  0.00     0.025 A 
HETATM   23  C10 UNL     1      28.368   1.002  53.319  1.00  0.00     0.049 A 
HETATM   24 CL1  UNL     1      28.936   2.630  53.681  1.00  0.00    -0.083 Cl
ENDBRANCH  15  18
ENDBRANCH   3  14
TORSDOF 9
ENDMDL
MODEL 9
REMARK VINA RESULT:      -5.9      3.438      8.086
REMARK  9 active torsions:
REMARK  status: ('A' for Active; 'I' for Inactive)
REMARK    1  A    between atoms: C2_2  and  N2_14 
REMARK    2  A    between atoms: C3_3  and  N1_4 
REMARK       I    between atoms: N1_4  and  C4_5 
REMARK    3  A    between atoms: C4_5  and  C5_7 
REMARK    4  A    between atoms: N2_14  and  C11_15 
REMARK    5  A    between atoms: C11_15  and  C12_16 
REMARK    6  A    between atoms: C12_16  and  C13_17 
REMARK    7  A    between atoms: C13_17  and  N3_18 
REMARK    8  A    between atoms: N3_18  and  C14_19 
REMARK    9  A    between atoms: C14_19  and  C15_20 
ROOT
HETATM    1  C1  UNL     1      24.211   3.142  49.459  1.00  0.00     0.069 C 
HETATM    2  C2  UNL     1      25.094   3.735  50.495  1.00  0.00     0.016 C 
HETATM    3  C3  UNL     1      25.012   3.190  51.695  1.00  0.00     0.115 C 
ENDROOT
BRANCH   2   4
HETATM    4  N2  UNL     1      26.019   4.806  50.391  1.00  0.00    -0.392 N 
HETATM    5  H10 UNL     1      26.305   5.007  51.372  1.00  0.00     0.159 HD
BRANCH   4   6
HETATM    6  C11 UNL     1      26.213   5.207  48.990  1.00  0.00     0.121 C 
BRANCH   6   7
HETATM    7  C12 UNL     1      25.957   6.697  48.883  1.00  0.00     0.039 C 
BRANCH   7   8
HETATM    8  C13 UNL     1      25.688   7.338  50.214  1.00  0.00     0.120 C 
BRANCH   8   9
HETATM    9  N3  UNL     1      26.714   8.291  50.578  1.00  0.00    -0.396 N 
HETATM   10  H17 UNL     1      26.773   8.620  51.564  1.00  0.00     0.159 HD
BRANCH   9  11
HETATM   11  C14 UNL     1      27.554   8.667  49.467  1.00  0.00     0.142 C 
BRANCH  11  12
HETATM   12  C15 UNL     1      28.624   9.410  49.483  1.00  0.00     0.237 C 
HETATM   13  O2  UNL     1      29.821   9.724  49.475  1.00  0.00    -0.283 OA
ENDBRANCH  11  12
ENDBRANCH   9  11
ENDBRANCH   8   9
ENDBRANCH   7   8
ENDBRANCH   6   7
ENDBRANCH   4   6
ENDBRANCH   2   4
BRANCH   3  14
HETATM   14  N1  UNL     1      24.256   2.131  52.266  1.00  0.00    -0.331 N 
HETATM   15  C4  UNL     1      24.411   0.736  52.491  1.00  0.00     0.257 C 
HETATM   16  O1  UNL     1      25.557   0.389  52.038  1.00  0.00    -0.267 OA
HETATM   17  H5  UNL     1      23.371   2.605  52.572  1.00  0.00     0.168 HD
BRANCH  15  18
HETATM   18  C5  UNL     1      23.302   0.050  53.146  1.00  0.00     0.054 A 
HETATM   19  C6  UNL     1      22.066   0.245  52.571  1.00  0.00     0.019 A 
HETATM   20  C7  UNL     1      20.964  -0.364  53.123  1.00  0.00     0.001 A 
HETATM   21  C8  UNL     1      21.083  -1.161  54.237  1.00  0.00     0.002 A 
HETATM   22  C9  UNL     1      22.329  -1.370  54.837  1.00  0.00     0.025 A 
HETATM   23  C10 UNL     1      23.419  -0.748  54.264  1.00  0.00     0.049 A 
HETATM   24 CL1  UNL     1      25.046  -0.927  54.918  1.00  0.00    -0.083 Cl
ENDBRANCH  15  18
ENDBRANCH   3  14
TORSDOF 9
ENDMDL
