MODEL 1
REMARK VINA RESULT:      -7.4      0.000      0.000
REMARK  4 active torsions:
REMARK  status: ('A' for Active; 'I' for Inactive)
REMARK    1  A    between atoms: N1_3  and  C3_4 
REMARK    2  A    between atoms: C6_8  and  O1_9 
REMARK    3  A    between atoms: O1_9  and  C7_10 
REMARK    4  A    between atoms: C7_10  and  C8_11 
ROOT
HETATM    1  C3  UNL     1      20.472   1.798  52.764  1.00  0.00     0.226 C 
HETATM    2  C4  UNL     1      21.347   0.773  53.398  1.00  0.00     0.047 C 
HETATM    3  C5  UNL     1      22.627   0.487  53.394  1.00  0.00     0.068 C 
HETATM    4 CL1  UNL     1      23.199  -0.865  54.332  1.00  0.00    -0.082 Cl
HETATM    5  C6  UNL     1      23.753   1.110  52.719  1.00  0.00     0.101 C 
HETATM    6  C14 UNL     1      24.113   2.254  52.163  1.00  0.00     0.010 C 
HETATM    7  C15 UNL     1      23.352   2.713  51.184  1.00  0.00     0.007 C 
HETATM    8  C16 UNL     1      21.859   2.683  50.990  1.00  0.00     0.144 C 
HETATM    9  N2  UNL     1      21.255   2.872  52.277  1.00  0.00    -0.394 N 
HETATM   10  H16 UNL     1      20.949   3.827  52.504  1.00  0.00     0.155 HD
ENDROOT
BRANCH   5  11
HETATM   11  O1  UNL     1      24.901   0.324  52.543  1.00  0.00    -0.344 OA
BRANCH  11  12
HETATM   12  C7  UNL     1      26.105   0.938  53.011  1.00  0.00     0.214 C 
BRANCH  12  13
HETATM   13  C8  UNL     1      27.131  -0.133  53.060  1.00  0.00    -0.031 A 
HETATM   14  C9  UNL     1      26.668  -1.379  52.624  1.00  0.00     0.009 A 
HETATM   15  C10 UNL     1      27.485  -2.476  52.604  1.00  0.00     0.004 A 
HETATM   16  C11 UNL     1      28.800  -2.361  53.024  1.00  0.00     0.042 A 
HETATM   17  C12 UNL     1      29.234  -1.131  53.447  1.00  0.00     0.117 A 
HETATM   18  F1  UNL     1      30.508  -1.013  53.855  1.00  0.00    -0.206 F 
HETATM   19  C13 UNL     1      28.423   0.004  53.477  1.00  0.00     0.051 A 
ENDBRANCH  12  13
ENDBRANCH  11  12
ENDBRANCH   5  11
BRANCH   1  20
HETATM   20  N1  UNL     1      19.705   1.117  51.770  1.00  0.00    -0.277 NA
HETATM   21  C2  UNL     1      18.457   1.254  51.562  1.00  0.00     0.082 C 
HETATM   22  C1  UNL     1      18.068   0.348  50.421  1.00  0.00     0.057 C 
ENDBRANCH   1  20
TORSDOF 4
ENDMDL
MODEL 2
REMARK VINA RESULT:      -7.3      1.953      3.000
REMARK  4 active torsions:
REMARK  status: ('A' for Active; 'I' for Inactive)
REMARK    1  A    between atoms: N1_3  and  C3_4 
REMARK    2  A    between atoms: C6_8  and  O1_9 
REMARK    3  A    between atoms: O1_9  and  C7_10 
REMARK    4  A    between atoms: C7_10  and  C8_11 
ROOT
HETATM    1  C3  UNL     1      21.949   1.997  50.522  1.00  0.00     0.226 C 
HETATM    2  C4  UNL     1      23.425   2.005  50.717  1.00  0.00     0.047 C 
HETATM    3  C5  UNL     1      24.269   1.486  51.575  1.00  0.00     0.068 C 
HETATM    4 CL1  UNL     1      25.974   1.791  51.381  1.00  0.00    -0.082 Cl
HETATM    5  C6  UNL     1      24.065   0.646  52.743  1.00  0.00     0.101 C 
HETATM    6  C14 UNL     1      23.181  -0.183  53.270  1.00  0.00     0.010 C 
HETATM    7  C15 UNL     1      21.961   0.287  53.472  1.00  0.00     0.007 C 
HETATM    8  C16 UNL     1      21.116   1.234  52.660  1.00  0.00     0.144 C 
HETATM    9  N2  UNL     1      21.364   0.953  51.277  1.00  0.00    -0.394 N 
HETATM   10  H16 UNL     1      20.683   0.344  50.803  1.00  0.00     0.155 HD
ENDROOT
BRANCH   5  11
HETATM   11  O1  UNL     1      25.089   0.631  53.701  1.00  0.00    -0.344 OA
BRANCH  11  12
HETATM   12  C7  UNL     1      25.761  -0.626  53.817  1.00  0.00     0.214 C 
BRANCH  12  13
HETATM   13  C8  UNL     1      27.215  -0.325  53.834  1.00  0.00    -0.031 A 
HETATM   14  C9  UNL     1      28.007  -1.336  53.281  1.00  0.00     0.009 A 
HETATM   15  C10 UNL     1      29.369  -1.220  53.217  1.00  0.00     0.004 A 
HETATM   16  C11 UNL     1      29.985  -0.081  53.709  1.00  0.00     0.042 A 
HETATM   17  C12 UNL     1      29.189   0.898  54.247  1.00  0.00     0.117 A 
HETATM   18  F1  UNL     1      29.781   2.005  54.726  1.00  0.00    -0.206 F 
HETATM   19  C13 UNL     1      27.799   0.806  54.324  1.00  0.00     0.051 A 
ENDBRANCH  12  13
ENDBRANCH  11  12
ENDBRANCH   5  11
BRANCH   1  20
HETATM   20  N1  UNL     1      21.488   3.307  50.855  1.00  0.00    -0.277 NA
HETATM   21  C2  UNL     1      22.011   4.405  50.478  1.00  0.00     0.082 C 
HETATM   22  C1  UNL     1      21.203   5.537  51.062  1.00  0.00     0.057 C 
ENDBRANCH   1  20
TORSDOF 4
ENDMDL
MODEL 3
REMARK VINA RESULT:      -7.2      3.972      7.304
REMARK  4 active torsions:
REMARK  status: ('A' for Active; 'I' for Inactive)
REMARK    1  A    between atoms: N1_3  and  C3_4 
REMARK    2  A    between atoms: C6_8  and  O1_9 
REMARK    3  A    between atoms: O1_9  and  C7_10 
REMARK    4  A    between atoms: C7_10  and  C8_11 
ROOT
HETATM    1  C3  UNL     1      27.358   0.476  54.451  1.00  0.00     0.226 C 
HETATM    2  C4  UNL     1      27.287   1.343  53.243  1.00  0.00     0.047 C 
HETATM    3  C5  UNL     1      26.354   1.722  52.403  1.00  0.00     0.068 C 
HETATM    4 CL1  UNL     1      26.773   2.790  51.092  1.00  0.00    -0.082 Cl
HETATM    5  C6  UNL     1      24.936   1.413  52.332  1.00  0.00     0.101 C 
HETATM    6  C14 UNL     1      23.938   0.988  53.087  1.00  0.00     0.010 C 
HETATM    7  C15 UNL     1      24.097  -0.174  53.698  1.00  0.00     0.007 C 
HETATM    8  C16 UNL     1      25.310  -0.805  54.330  1.00  0.00     0.144 C 
HETATM    9  N2  UNL     1      26.059   0.242  54.961  1.00  0.00    -0.394 N 
HETATM   10  H16 UNL     1      25.913   0.366  55.972  1.00  0.00     0.155 HD
ENDROOT
BRANCH   5  11
HETATM   11  O1  UNL     1      24.309   1.590  51.090  1.00  0.00    -0.344 OA
BRANCH  11  12
HETATM   12  C7  UNL     1      23.112   2.370  51.146  1.00  0.00     0.214 C 
BRANCH  12  13
HETATM   13  C8  UNL     1      23.479   3.735  50.693  1.00  0.00    -0.031 A 
HETATM   14  C9  UNL     1      23.638   3.846  49.308  1.00  0.00     0.009 A 
HETATM   15  C10 UNL     1      23.975   5.035  48.722  1.00  0.00     0.004 A 
HETATM   16  C11 UNL     1      24.167   6.159  49.509  1.00  0.00     0.042 A 
HETATM   17  C12 UNL     1      24.005   6.028  50.864  1.00  0.00     0.117 A 
HETATM   18  F1  UNL     1      24.190   7.114  51.633  1.00  0.00    -0.206 F 
HETATM   19  C13 UNL     1      23.661   4.828  51.488  1.00  0.00     0.051 A 
ENDBRANCH  12  13
ENDBRANCH  11  12
ENDBRANCH   5  11
BRANCH   1  20
HETATM   20  N1  UNL     1      28.069  -0.701  54.063  1.00  0.00    -0.277 NA
HETATM   21  C2  UNL     1      29.265  -0.746  53.629  1.00  0.00     0.082 C 
HETATM   22  C1  UNL     1      29.608  -2.187  53.344  1.00  0.00     0.057 C 
ENDBRANCH   1  20
TORSDOF 4
ENDMDL
MODEL 4
REMARK VINA RESULT:      -7.1      2.502      3.953
REMARK  4 active torsions:
REMARK  status: ('A' for Active; 'I' for Inactive)
REMARK    1  A    between atoms: N1_3  and  C3_4 
REMARK    2  A    between atoms: C6_8  and  O1_9 
REMARK    3  A    between atoms: O1_9  and  C7_10 
REMARK    4  A    between atoms: C7_10  and  C8_11 
ROOT
HETATM    1  C3  UNL     1      22.649   4.185  49.681  1.00  0.00     0.226 C 
HETATM    2  C4  UNL     1      24.082   3.780  49.671  1.00  0.00     0.047 C 
HETATM    3  C5  UNL     1      24.840   2.964  50.363  1.00  0.00     0.068 C 
HETATM    4 CL1  UNL     1      26.530   2.826  49.960  1.00  0.00    -0.082 Cl
HETATM    5  C6  UNL     1      24.543   2.084  51.480  1.00  0.00     0.101 C 
HETATM    6  C14 UNL     1      23.529   1.466  52.060  1.00  0.00     0.010 C 
HETATM    7  C15 UNL     1      22.517   2.217  52.462  1.00  0.00     0.007 C 
HETATM    8  C16 UNL     1      21.882   3.437  51.850  1.00  0.00     0.144 C 
HETATM    9  N2  UNL     1      21.886   3.256  50.428  1.00  0.00    -0.394 N 
HETATM   10  H16 UNL     1      21.015   2.906  50.007  1.00  0.00     0.155 HD
ENDROOT
BRANCH   5  11
HETATM   11  O1  UNL     1      25.624   1.692  52.284  1.00  0.00    -0.344 OA
BRANCH  11  12
HETATM   12  C7  UNL     1      25.639   0.298  52.601  1.00  0.00     0.214 C 
BRANCH  12  13
HETATM   13  C8  UNL     1      27.044  -0.041  52.938  1.00  0.00    -0.031 A 
HETATM   14  C9  UNL     1      27.840   1.073  53.223  1.00  0.00     0.009 A 
HETATM   15  C10 UNL     1      29.161   0.940  53.554  1.00  0.00     0.004 A 
HETATM   16  C11 UNL     1      29.732  -0.322  53.608  1.00  0.00     0.042 A 
HETATM   17  C12 UNL     1      28.933  -1.400  53.325  1.00  0.00     0.117 A 
HETATM   18  F1  UNL     1      29.480  -2.626  53.376  1.00  0.00    -0.206 F 
HETATM   19  C13 UNL     1      27.583  -1.293  52.986  1.00  0.00     0.051 A 
ENDBRANCH  12  13
ENDBRANCH  11  12
ENDBRANCH   5  11
BRANCH   1  20
HETATM   20  N1  UNL     1      22.610   5.524  50.174  1.00  0.00    -0.277 NA
HETATM   21  C2  UNL     1      23.386   6.474  49.831  1.00  0.00     0.082 C 
HETATM   22  C1  UNL     1      22.986   7.709  50.597  1.00  0.00     0.057 C 
ENDBRANCH   1  20
TORSDOF 4
ENDMDL
MODEL 5
REMARK VINA RESULT:      -6.8      4.326      6.221
REMARK  4 active torsions:
REMARK  status: ('A' for Active; 'I' for Inactive)
REMARK    1  A    between atoms: N1_3  and  C3_4 
REMARK    2  A    between atoms: C6_8  and  O1_9 
REMARK    3  A    between atoms: O1_9  and  C7_10 
REMARK    4  A    between atoms: C7_10  and  C8_11 
ROOT
HETATM    1  C3  UNL     1      25.251   7.284  50.417  1.00  0.00     0.226 C 
HETATM    2  C4  UNL     1      24.271   6.444  51.159  1.00  0.00     0.047 C 
HETATM    3  C5  UNL     1      24.078   5.161  51.352  1.00  0.00     0.068 C 
HETATM    4 CL1  UNL     1      22.739   4.642  52.339  1.00  0.00    -0.082 Cl
HETATM    5  C6  UNL     1      24.801   3.994  50.877  1.00  0.00     0.101 C 
HETATM    6  C14 UNL     1      25.985   3.639  50.410  1.00  0.00     0.010 C 
HETATM    7  C15 UNL     1      26.421   4.270  49.333  1.00  0.00     0.007 C 
HETATM    8  C16 UNL     1      26.291   5.708  48.905  1.00  0.00     0.144 C 
HETATM    9  N2  UNL     1      26.394   6.518  50.083  1.00  0.00    -0.394 N 
HETATM   10  H16 UNL     1      27.317   6.927  50.279  1.00  0.00     0.155 HD
ENDROOT
BRANCH   5  11
HETATM   11  O1  UNL     1      24.105   2.776  50.869  1.00  0.00    -0.344 OA
BRANCH  11  12
HETATM   12  C7  UNL     1      24.756   1.728  51.591  1.00  0.00     0.214 C 
BRANCH  12  13
HETATM   13  C8  UNL     1      23.683   0.939  52.247  1.00  0.00    -0.031 A 
HETATM   14  C9  UNL     1      22.459   0.983  51.572  1.00  0.00     0.009 A 
HETATM   15  C10 UNL     1      21.362   0.312  52.040  1.00  0.00     0.004 A 
HETATM   16  C11 UNL     1      21.457  -0.429  53.207  1.00  0.00     0.042 A 
HETATM   17  C12 UNL     1      22.667  -0.459  53.852  1.00  0.00     0.117 A 
HETATM   18  F1  UNL     1      22.766  -1.176  54.984  1.00  0.00    -0.206 F 
HETATM   19  C13 UNL     1      23.801   0.215  53.397  1.00  0.00     0.051 A 
ENDBRANCH  12  13
ENDBRANCH  11  12
ENDBRANCH   5  11
BRANCH   1  20
HETATM   20  N1  UNL     1      24.551   7.832  49.299  1.00  0.00    -0.277 NA
HETATM   21  C2  UNL     1      23.306   8.095  49.249  1.00  0.00     0.082 C 
HETATM   22  C1  UNL     1      22.998   8.658  47.885  1.00  0.00     0.057 C 
ENDBRANCH   1  20
TORSDOF 4
ENDMDL
MODEL 6
REMARK VINA RESULT:      -6.8      4.245      7.775
REMARK  4 active torsions:
REMARK  status: ('A' for Active; 'I' for Inactive)
REMARK    1  A    between atoms: N1_3  and  C3_4 
REMARK    2  A    between atoms: C6_8  and  O1_9 
REMARK    3  A    between atoms: O1_9  and  C7_10 
REMARK    4  A    between atoms: C7_10  and  C8_11 
ROOT
HETATM    1  C3  UNL     1      27.582   1.458  53.728  1.00  0.00     0.226 C 
HETATM    2  C4  UNL     1      27.269   2.090  52.417  1.00  0.00     0.047 C 
HETATM    3  C5  UNL     1      26.206   2.228  51.662  1.00  0.00     0.068 C 
HETATM    4 CL1  UNL     1      26.341   3.084  50.150  1.00  0.00    -0.082 Cl
HETATM    5  C6  UNL     1      24.834   1.781  51.835  1.00  0.00     0.101 C 
HETATM    6  C14 UNL     1      23.988   1.404  52.778  1.00  0.00     0.010 C 
HETATM    7  C15 UNL     1      24.351   0.386  53.541  1.00  0.00     0.007 C 
HETATM    8  C16 UNL     1      25.694  -0.009  54.096  1.00  0.00     0.144 C 
HETATM    9  N2  UNL     1      26.387   1.197  54.441  1.00  0.00    -0.394 N 
HETATM   10  H16 UNL     1      26.349   1.482  55.429  1.00  0.00     0.155 HD
ENDROOT
BRANCH   5  11
HETATM   11  O1  UNL     1      24.049   1.678  50.678  1.00  0.00    -0.344 OA
BRANCH  11  12
HETATM   12  C7  UNL     1      22.796   2.362  50.761  1.00  0.00     0.214 C 
BRANCH  12  13
HETATM   13  C8  UNL     1      22.675   3.167  49.520  1.00  0.00    -0.031 A 
HETATM   14  C9  UNL     1      22.902   4.534  49.709  1.00  0.00     0.009 A 
HETATM   15  C10 UNL     1      22.830   5.420  48.669  1.00  0.00     0.004 A 
HETATM   16  C11 UNL     1      22.525   4.963  47.397  1.00  0.00     0.042 A 
HETATM   17  C12 UNL     1      22.306   3.619  47.234  1.00  0.00     0.117 A 
HETATM   18  F1  UNL     1      22.010   3.169  46.003  1.00  0.00    -0.206 F 
HETATM   19  C13 UNL     1      22.374   2.694  48.276  1.00  0.00     0.051 A 
ENDBRANCH  12  13
ENDBRANCH  11  12
ENDBRANCH   5  11
BRANCH   1  20
HETATM   20  N1  UNL     1      28.372   0.303  53.443  1.00  0.00    -0.277 NA
HETATM   21  C2  UNL     1      29.318  -0.156  54.161  1.00  0.00     0.082 C 
HETATM   22  C1  UNL     1      29.872  -1.384  53.483  1.00  0.00     0.057 C 
ENDBRANCH   1  20
TORSDOF 4
ENDMDL
MODEL 7
REMARK VINA RESULT:      -6.8      2.355      2.894
REMARK  4 active torsions:
REMARK  status: ('A' for Active; 'I' for Inactive)
REMARK    1  A    between atoms: N1_3  and  C3_4 
REMARK    2  A    between atoms: C6_8  and  O1_9 
REMARK    3  A    between atoms: O1_9  and  C7_10 
REMARK    4  A    between atoms: C7_10  and  C8_11 
ROOT
HETATM    1  C3  UNL     1      21.461   5.061  51.044  1.00  0.00     0.226 C 
HETATM    2  C4  UNL     1      22.380   4.436  52.035  1.00  0.00     0.047 C 
HETATM    3  C5  UNL     1      23.485   3.732  51.989  1.00  0.00     0.068 C 
HETATM    4 CL1  UNL     1      24.221   3.206  53.478  1.00  0.00    -0.082 Cl
HETATM    5  C6  UNL     1      24.286   3.264  50.871  1.00  0.00     0.101 C 
HETATM    6  C14 UNL     1      24.520   3.522  49.596  1.00  0.00     0.010 C 
HETATM    7  C15 UNL     1      23.481   3.508  48.778  1.00  0.00     0.007 C 
HETATM    8  C16 UNL     1      22.059   3.964  48.973  1.00  0.00     0.144 C 
HETATM    9  N2  UNL     1      22.093   5.147  49.781  1.00  0.00    -0.394 N 
HETATM   10  H16 UNL     1      22.042   6.045  49.281  1.00  0.00     0.155 HD
ENDROOT
BRANCH   5  11
HETATM   11  O1  UNL     1      25.135   2.173  51.110  1.00  0.00    -0.344 OA
BRANCH  11  12
HETATM   12  C7  UNL     1      26.526   2.505  51.105  1.00  0.00     0.214 C 
BRANCH  12  13
HETATM   13  C8  UNL     1      27.167   1.639  52.126  1.00  0.00    -0.031 A 
HETATM   14  C9  UNL     1      26.787   0.296  52.045  1.00  0.00     0.009 A 
HETATM   15  C10 UNL     1      27.285  -0.639  52.911  1.00  0.00     0.004 A 
HETATM   16  C11 UNL     1      28.185  -0.256  53.892  1.00  0.00     0.042 A 
HETATM   17  C12 UNL     1      28.545   1.066  53.952  1.00  0.00     0.117 A 
HETATM   18  F1  UNL     1      29.418   1.443  54.902  1.00  0.00    -0.206 F 
HETATM   19  C13 UNL     1      28.053   2.040  53.082  1.00  0.00     0.051 A 
ENDBRANCH  12  13
ENDBRANCH  11  12
ENDBRANCH   5  11
BRANCH   1  20
HETATM   20  N1  UNL     1      20.261   4.287  51.060  1.00  0.00    -0.277 NA
HETATM   21  C2  UNL     1      19.914   3.459  51.964  1.00  0.00     0.082 C 
HETATM   22  C1  UNL     1      18.580   2.873  51.577  1.00  0.00     0.057 C 
ENDBRANCH   1  20
TORSDOF 4
ENDMDL
MODEL 8
REMARK VINA RESULT:      -6.5      4.087      5.621
REMARK  4 active torsions:
REMARK  status: ('A' for Active; 'I' for Inactive)
REMARK    1  A    between atoms: N1_3  and  C3_4 
REMARK    2  A    between atoms: C6_8  and  O1_9 
REMARK    3  A    between atoms: O1_9  and  C7_10 
REMARK    4  A    between atoms: C7_10  and  C8_11 
ROOT
HETATM    1  C3  UNL     1      20.925   0.326  51.061  1.00  0.00     0.226 C 
HETATM    2  C4  UNL     1      21.474   1.046  49.879  1.00  0.00     0.047 C 
HETATM    3  C5  UNL     1      22.515   1.803  49.632  1.00  0.00     0.068 C 
HETATM    4 CL1  UNL     1      22.740   2.442  48.026  1.00  0.00    -0.082 Cl
HETATM    5  C6  UNL     1      23.604   2.255  50.481  1.00  0.00     0.101 C 
HETATM    6  C14 UNL     1      24.227   1.946  51.605  1.00  0.00     0.010 C 
HETATM    7  C15 UNL     1      23.489   1.864  52.699  1.00  0.00     0.007 C 
HETATM    8  C16 UNL     1      22.092   1.347  52.918  1.00  0.00     0.144 C 
HETATM    9  N2  UNL     1      21.917   0.208  52.064  1.00  0.00    -0.394 N 
HETATM   10  H16 UNL     1      22.052  -0.715  52.496  1.00  0.00     0.155 HD
ENDROOT
BRANCH   5  11
HETATM   11  O1  UNL     1      24.301   3.399  50.064  1.00  0.00    -0.344 OA
BRANCH  11  12
HETATM   12  C7  UNL     1      25.720   3.230  50.013  1.00  0.00     0.214 C 
BRANCH  12  13
HETATM   13  C8  UNL     1      26.264   4.447  49.360  1.00  0.00    -0.031 A 
HETATM   14  C9  UNL     1      25.366   5.518  49.325  1.00  0.00     0.009 A 
HETATM   15  C10 UNL     1      25.707   6.717  48.759  1.00  0.00     0.004 A 
HETATM   16  C11 UNL     1      26.965   6.881  48.204  1.00  0.00     0.042 A 
HETATM   17  C12 UNL     1      27.831   5.818  48.249  1.00  0.00     0.117 A 
HETATM   18  F1  UNL     1      29.053   5.971  47.713  1.00  0.00    -0.206 F 
HETATM   19  C13 UNL     1      27.510   4.586  48.821  1.00  0.00     0.051 A 
ENDBRANCH  12  13
ENDBRANCH  11  12
ENDBRANCH   5  11
BRANCH   1  20
HETATM   20  N1  UNL     1      19.752   1.036  51.460  1.00  0.00    -0.277 NA
HETATM   21  C2  UNL     1      18.978   1.696  50.695  1.00  0.00     0.082 C 
HETATM   22  C1  UNL     1      17.870   2.280  51.536  1.00  0.00     0.057 C 
ENDBRANCH   1  20
TORSDOF 4
ENDMDL
MODEL 9
REMARK VINA RESULT:      -6.4      6.301      8.660
REMARK  4 active torsions:
REMARK  status: ('A' for Active; 'I' for Inactive)
REMARK    1  A    between atoms: N1_3  and  C3_4 
REMARK    2  A    between atoms: C6_8  and  O1_9 
REMARK    3  A    between atoms: O1_9  and  C7_10 
REMARK    4  A    between atoms: C7_10  and  C8_11 
ROOT
HETATM    1  C3  UNL     1      27.536   8.615  49.400  1.00  0.00     0.226 C 
HETATM    2  C4  UNL     1      26.209   8.315  50.007  1.00  0.00     0.047 C 
HETATM    3  C5  UNL     1      25.457   7.253  50.162  1.00  0.00     0.068 C 
HETATM    4 CL1  UNL     1      23.921   7.408  50.971  1.00  0.00    -0.082 Cl
HETATM    5  C6  UNL     1      25.650   5.868  49.769  1.00  0.00     0.101 C 
HETATM    6  C14 UNL     1      26.608   5.014  49.448  1.00  0.00     0.010 C 
HETATM    7  C15 UNL     1      27.396   5.346  48.439  1.00  0.00     0.007 C 
HETATM    8  C16 UNL     1      27.954   6.678  48.013  1.00  0.00     0.144 C 
HETATM    9  N2  UNL     1      28.262   7.416  49.203  1.00  0.00    -0.394 N 
HETATM   10  H16 UNL     1      29.242   7.394  49.516  1.00  0.00     0.155 HD
ENDROOT
BRANCH   5  11
HETATM   11  O1  UNL     1      24.500   5.071  49.662  1.00  0.00    -0.344 OA
BRANCH  11  12
HETATM   12  C7  UNL     1      24.471   3.965  50.568  1.00  0.00     0.214 C 
BRANCH  12  13
HETATM   13  C8  UNL     1      23.494   2.995  50.015  1.00  0.00    -0.031 A 
HETATM   14  C9  UNL     1      23.245   3.162  48.649  1.00  0.00     0.009 A 
HETATM   15  C10 UNL     1      22.369   2.351  47.980  1.00  0.00     0.004 A 
HETATM   16  C11 UNL     1      21.710   1.341  48.661  1.00  0.00     0.042 A 
HETATM   17  C12 UNL     1      21.970   1.195  50.000  1.00  0.00     0.117 A 
HETATM   18  F1  UNL     1      21.333   0.217  50.667  1.00  0.00    -0.206 F 
HETATM   19  C13 UNL     1      22.858   2.007  50.707  1.00  0.00     0.051 A 
ENDBRANCH  12  13
ENDBRANCH  11  12
ENDBRANCH   5  11
BRANCH   1  20
HETATM   20  N1  UNL     1      27.278   9.361  48.211  1.00  0.00    -0.277 NA
HETATM   21  C2  UNL     1      26.941  10.588  48.153  1.00  0.00     0.082 C 
HETATM   22  C1  UNL     1      26.773  10.962  46.702  1.00  0.00     0.057 C 
ENDBRANCH   1  20
TORSDOF 4
ENDMDL
