MODEL 1
REMARK VINA RESULT:      -8.1      0.000      0.000
REMARK  4 active torsions:
REMARK  status: ('A' for Active; 'I' for Inactive)
REMARK    1  A    between atoms: C3_3  and  C4_4 
REMARK       I    between atoms: C4_4  and  N1_6 
REMARK    2  A    between atoms: C11_16  and  N4_17 
REMARK    3  A    between atoms: N4_17  and  C12_18 
REMARK    4  A    between atoms: C16_22  and  O2_23 
ROOT
HETATM    1  C1  UNL     1      16.450  -0.074  50.027  1.00  0.00     0.112 C 
HETATM    2  C2  UNL     1      17.589  -0.104  50.967  1.00  0.00    -0.101 C 
HETATM    3  C3  UNL     1      18.505  -0.131  51.751  1.00  0.00    -0.006 C 
ENDROOT
BRANCH   3   4
HETATM    4  C4  UNL     1      19.610  -0.172  52.664  1.00  0.00     0.298 C 
HETATM    5  O1  UNL     1      19.931  -1.164  53.368  1.00  0.00    -0.258 OA
HETATM    6  N1  UNL     1      20.491   0.922  52.886  1.00  0.00    -0.336 N 
HETATM    7  C5  UNL     1      21.565   0.762  53.826  1.00  0.00     0.132 C 
HETATM    8  C18 UNL     1      20.606   2.273  52.374  1.00  0.00     0.173 C 
HETATM    9  C6  UNL     1      22.934   0.830  53.307  1.00  0.00     0.060 C 
HETATM   10  C7  UNL     1      23.145   1.808  52.213  1.00  0.00    -0.025 A 
HETATM   11  C8  UNL     1      21.972   2.409  51.882  1.00  0.00     0.010 A 
HETATM   12  C17 UNL     1      24.296   2.141  51.562  1.00  0.00     0.053 A 
HETATM   13  S1  UNL     1      22.493   3.591  50.494  1.00  0.00    -0.072 SA
HETATM   14  C9  UNL     1      24.149   3.112  50.572  1.00  0.00     0.114 A 
HETATM   15  N2  UNL     1      25.204   3.559  49.825  1.00  0.00    -0.234 NA
HETATM   16  C10 UNL     1      26.433   3.108  49.982  1.00  0.00     0.236 A 
HETATM   17  N3  UNL     1      26.561   2.176  50.936  1.00  0.00    -0.224 NA
HETATM   18  C11 UNL     1      25.584   1.689  51.705  1.00  0.00     0.139 A 
BRANCH  18  19
HETATM   19  N4  UNL     1      26.004   0.705  52.637  1.00  0.00    -0.364 N 
HETATM   20  H9  UNL     1      25.540   0.053  53.272  1.00  0.00     0.162 HD
BRANCH  19  21
HETATM   21  C12 UNL     1      27.427   0.488  52.810  1.00  0.00     0.135 C 
HETATM   22  C13 UNL     1      27.747   1.049  54.176  1.00  0.00    -0.003 C 
HETATM   23  C14 UNL     1      28.666   0.242  54.732  1.00  0.00    -0.026 C 
HETATM   24  C15 UNL     1      29.042  -0.894  53.837  1.00  0.00     0.061 C 
HETATM   25  C16 UNL     1      27.857  -0.927  52.893  1.00  0.00     0.148 C 
BRANCH  25  26
HETATM   26  O2  UNL     1      26.867  -1.735  53.445  1.00  0.00    -0.393 OA
HETATM   27  H16 UNL     1      26.278  -2.101  52.743  1.00  0.00     0.210 HD
ENDBRANCH  25  26
ENDBRANCH  19  21
ENDBRANCH  18  19
ENDBRANCH   3   4
TORSDOF 4
ENDMDL
MODEL 2
REMARK VINA RESULT:      -8.0      3.420      5.414
REMARK  4 active torsions:
REMARK  status: ('A' for Active; 'I' for Inactive)
REMARK    1  A    between atoms: C3_3  and  C4_4 
REMARK       I    between atoms: C4_4  and  N1_6 
REMARK    2  A    between atoms: C11_16  and  N4_17 
REMARK    3  A    between atoms: N4_17  and  C12_18 
REMARK    4  A    between atoms: C16_22  and  O2_23 
ROOT
HETATM    1  C1  UNL     1      21.630   8.447  49.198  1.00  0.00     0.112 C 
HETATM    2  C2  UNL     1      22.803   7.561  49.356  1.00  0.00    -0.101 C 
HETATM    3  C3  UNL     1      23.750   6.825  49.472  1.00  0.00    -0.006 C 
ENDROOT
BRANCH   3   4
HETATM    4  C4  UNL     1      24.892   5.969  49.615  1.00  0.00     0.298 C 
HETATM    5  O1  UNL     1      26.068   6.361  49.831  1.00  0.00    -0.258 OA
HETATM    6  N1  UNL     1      24.831   4.551  49.531  1.00  0.00    -0.336 N 
HETATM    7  C5  UNL     1      26.043   3.798  49.692  1.00  0.00     0.132 C 
HETATM    8  C18 UNL     1      23.783   3.576  49.305  1.00  0.00     0.173 C 
HETATM    9  C6  UNL     1      26.135   2.904  50.850  1.00  0.00     0.060 C 
HETATM   10  C7  UNL     1      24.872   2.221  51.220  1.00  0.00    -0.025 A 
HETATM   11  C8  UNL     1      23.858   2.630  50.412  1.00  0.00     0.010 A 
HETATM   12  C17 UNL     1      24.641   1.303  52.202  1.00  0.00     0.053 A 
HETATM   13  S1  UNL     1      22.383   1.636  51.069  1.00  0.00    -0.072 SA
HETATM   14  C9  UNL     1      23.325   0.852  52.284  1.00  0.00     0.114 A 
HETATM   15  N2  UNL     1      22.925  -0.069  53.213  1.00  0.00    -0.234 NA
HETATM   16  C10 UNL     1      23.750  -0.597  54.096  1.00  0.00     0.236 A 
HETATM   17  N3  UNL     1      25.011  -0.156  54.006  1.00  0.00    -0.224 NA
HETATM   18  C11 UNL     1      25.478   0.738  53.131  1.00  0.00     0.139 A 
BRANCH  18  19
HETATM   19  N4  UNL     1      26.862   1.023  53.263  1.00  0.00    -0.364 N 
HETATM   20  H9  UNL     1      27.480   1.790  52.994  1.00  0.00     0.162 HD
BRANCH  19  21
HETATM   21  C12 UNL     1      27.702   0.049  53.932  1.00  0.00     0.135 C 
HETATM   22  C13 UNL     1      27.829  -1.097  52.956  1.00  0.00    -0.003 C 
HETATM   23  C14 UNL     1      29.084  -1.567  53.057  1.00  0.00    -0.026 C 
HETATM   24  C15 UNL     1      29.892  -0.820  54.067  1.00  0.00     0.061 C 
HETATM   25  C16 UNL     1      29.101   0.467  54.181  1.00  0.00     0.148 C 
BRANCH  25  26
HETATM   26  O2  UNL     1      29.552   1.358  53.211  1.00  0.00    -0.393 OA
HETATM   27  H16 UNL     1      29.679   0.903  52.346  1.00  0.00     0.210 HD
ENDBRANCH  25  26
ENDBRANCH  19  21
ENDBRANCH  18  19
ENDBRANCH   3   4
TORSDOF 4
ENDMDL
MODEL 3
REMARK VINA RESULT:      -7.5      4.414      8.140
REMARK  4 active torsions:
REMARK  status: ('A' for Active; 'I' for Inactive)
REMARK    1  A    between atoms: C3_3  and  C4_4 
REMARK       I    between atoms: C4_4  and  N1_6 
REMARK    2  A    between atoms: C11_16  and  N4_17 
REMARK    3  A    between atoms: N4_17  and  C12_18 
REMARK    4  A    between atoms: C16_22  and  O2_23 
ROOT
HETATM    1  C1  UNL     1      28.672  12.001  48.714  1.00  0.00     0.112 C 
HETATM    2  C2  UNL     1      28.785  10.529  48.655  1.00  0.00    -0.101 C 
HETATM    3  C3  UNL     1      28.899   9.330  48.606  1.00  0.00    -0.006 C 
ENDROOT
BRANCH   3   4
HETATM    4  C4  UNL     1      29.012   7.901  48.560  1.00  0.00     0.298 C 
HETATM    5  O1  UNL     1      30.052   7.248  48.837  1.00  0.00    -0.258 OA
HETATM    6  N1  UNL     1      27.946   7.036  48.193  1.00  0.00    -0.336 N 
HETATM    7  C5  UNL     1      28.179   5.619  48.185  1.00  0.00     0.132 C 
HETATM    8  C18 UNL     1      26.565   7.215  47.789  1.00  0.00     0.173 C 
HETATM    9  C6  UNL     1      27.420   4.804  49.138  1.00  0.00     0.060 C 
HETATM   10  C7  UNL     1      26.026   5.249  49.378  1.00  0.00    -0.025 A 
HETATM   11  C8  UNL     1      25.766   6.386  48.682  1.00  0.00     0.010 A 
HETATM   12  C17 UNL     1      25.061   4.683  50.158  1.00  0.00     0.053 A 
HETATM   13  S1  UNL     1      23.962   6.745  49.143  1.00  0.00    -0.072 SA
HETATM   14  C9  UNL     1      23.842   5.359  50.164  1.00  0.00     0.114 A 
HETATM   15  N2  UNL     1      22.769   4.925  50.894  1.00  0.00    -0.234 NA
HETATM   16  C10 UNL     1      22.806   3.840  51.642  1.00  0.00     0.236 A 
HETATM   17  N3  UNL     1      23.982   3.200  51.628  1.00  0.00    -0.224 NA
HETATM   18  C11 UNL     1      25.072   3.558  50.945  1.00  0.00     0.139 A 
BRANCH  18  19
HETATM   19  N4  UNL     1      26.184   2.692  51.114  1.00  0.00    -0.364 N 
HETATM   20  H9  UNL     1      27.026   2.470  50.582  1.00  0.00     0.162 HD
BRANCH  19  21
HETATM   21  C12 UNL     1      26.239   1.874  52.310  1.00  0.00     0.135 C 
HETATM   22  C13 UNL     1      26.633   0.498  51.826  1.00  0.00    -0.003 C 
HETATM   23  C14 UNL     1      27.455  -0.028  52.749  1.00  0.00    -0.026 C 
HETATM   24  C15 UNL     1      27.688   0.899  53.897  1.00  0.00     0.061 C 
HETATM   25  C16 UNL     1      27.296   2.229  53.285  1.00  0.00     0.148 C 
BRANCH  25  26
HETATM   26  O2  UNL     1      28.411   2.779  52.659  1.00  0.00    -0.393 OA
HETATM   27  H16 UNL     1      29.245   2.454  53.072  1.00  0.00     0.210 HD
ENDBRANCH  25  26
ENDBRANCH  19  21
ENDBRANCH  18  19
ENDBRANCH   3   4
TORSDOF 4
ENDMDL
MODEL 4
REMARK VINA RESULT:      -7.3      2.997      4.432
REMARK  4 active torsions:
REMARK  status: ('A' for Active; 'I' for Inactive)
REMARK    1  A    between atoms: C3_3  and  C4_4 
REMARK       I    between atoms: C4_4  and  N1_6 
REMARK    2  A    between atoms: C11_16  and  N4_17 
REMARK    3  A    between atoms: N4_17  and  C12_18 
REMARK    4  A    between atoms: C16_22  and  O2_23 
ROOT
HETATM    1  C1  UNL     1      14.523   3.984  52.624  1.00  0.00     0.112 C 
HETATM    2  C2  UNL     1      15.912   3.823  52.144  1.00  0.00    -0.101 C 
HETATM    3  C3  UNL     1      17.040   3.671  51.748  1.00  0.00    -0.006 C 
ENDROOT
BRANCH   3   4
HETATM    4  C4  UNL     1      18.384   3.516  51.272  1.00  0.00     0.298 C 
HETATM    5  O1  UNL     1      19.138   4.458  50.913  1.00  0.00    -0.258 OA
HETATM    6  N1  UNL     1      19.037   2.260  51.147  1.00  0.00    -0.336 N 
HETATM    7  C5  UNL     1      20.387   2.230  50.659  1.00  0.00     0.132 C 
HETATM    8  C18 UNL     1      18.675   0.880  51.403  1.00  0.00     0.173 C 
HETATM    9  C6  UNL     1      21.427   1.753  51.574  1.00  0.00     0.060 C 
HETATM   10  C7  UNL     1      21.018   0.645  52.470  1.00  0.00    -0.025 A 
HETATM   11  C8  UNL     1      19.707   0.341  52.279  1.00  0.00     0.010 A 
HETATM   12  C17 UNL     1      21.757  -0.043  53.387  1.00  0.00     0.053 A 
HETATM   13  S1  UNL     1      19.430  -1.075  53.510  1.00  0.00    -0.072 SA
HETATM   14  C9  UNL     1      21.062  -1.040  54.071  1.00  0.00     0.114 A 
HETATM   15  N2  UNL     1      21.655  -1.822  55.023  1.00  0.00    -0.234 NA
HETATM   16  C10 UNL     1      22.923  -1.694  55.365  1.00  0.00     0.236 A 
HETATM   17  N3  UNL     1      23.579  -0.734  54.701  1.00  0.00    -0.224 NA
HETATM   18  C11 UNL     1      23.073   0.068  53.761  1.00  0.00     0.139 A 
BRANCH  18  19
HETATM   19  N4  UNL     1      23.998   1.000  53.222  1.00  0.00    -0.364 N 
HETATM   20  H9  UNL     1      24.042   2.015  53.125  1.00  0.00     0.162 HD
BRANCH  19  21
HETATM   21  C12 UNL     1      25.222   0.489  52.637  1.00  0.00     0.135 C 
HETATM   22  C13 UNL     1      25.716   1.593  51.732  1.00  0.00    -0.003 C 
HETATM   23  C14 UNL     1      27.056   1.611  51.822  1.00  0.00    -0.026 C 
HETATM   24  C15 UNL     1      27.579   0.568  52.755  1.00  0.00     0.061 C 
HETATM   25  C16 UNL     1      26.343   0.268  53.580  1.00  0.00     0.148 C 
BRANCH  25  26
HETATM   26  O2  UNL     1      26.296   1.154  54.653  1.00  0.00    -0.393 OA
HETATM   27  H16 UNL     1      26.147   2.078  54.341  1.00  0.00     0.210 HD
ENDBRANCH  25  26
ENDBRANCH  19  21
ENDBRANCH  18  19
ENDBRANCH   3   4
TORSDOF 4
ENDMDL
MODEL 5
REMARK VINA RESULT:      -7.3      3.234      4.790
REMARK  4 active torsions:
REMARK  status: ('A' for Active; 'I' for Inactive)
REMARK    1  A    between atoms: C3_3  and  C4_4 
REMARK       I    between atoms: C4_4  and  N1_6 
REMARK    2  A    between atoms: C11_16  and  N4_17 
REMARK    3  A    between atoms: N4_17  and  C12_18 
REMARK    4  A    between atoms: C16_22  and  O2_23 
ROOT
HETATM    1  C1  UNL     1      18.381   6.315  47.932  1.00  0.00     0.112 C 
HETATM    2  C2  UNL     1      19.667   5.670  48.270  1.00  0.00    -0.101 C 
HETATM    3  C3  UNL     1      20.724   5.164  48.550  1.00  0.00    -0.006 C 
ENDROOT
BRANCH   3   4
HETATM    4  C4  UNL     1      21.971   4.540  48.891  1.00  0.00     0.298 C 
HETATM    5  O1  UNL     1      23.066   5.142  49.036  1.00  0.00    -0.258 OA
HETATM    6  N1  UNL     1      22.120   3.143  49.110  1.00  0.00    -0.336 N 
HETATM    7  C5  UNL     1      23.419   2.633  49.446  1.00  0.00     0.132 C 
HETATM    8  C18 UNL     1      21.235   1.995  49.081  1.00  0.00     0.173 C 
HETATM    9  C6  UNL     1      23.584   2.025  50.769  1.00  0.00     0.060 C 
HETATM   10  C7  UNL     1      22.418   1.251  51.257  1.00  0.00    -0.025 A 
HETATM   11  C8  UNL     1      21.395   1.324  50.366  1.00  0.00     0.010 A 
HETATM   12  C17 UNL     1      22.277   0.533  52.409  1.00  0.00     0.053 A 
HETATM   13  S1  UNL     1      20.050   0.277  51.197  1.00  0.00    -0.072 SA
HETATM   14  C9  UNL     1      21.037  -0.085  52.565  1.00  0.00     0.114 A 
HETATM   15  N2  UNL     1      20.731  -0.841  53.663  1.00  0.00    -0.234 NA
HETATM   16  C10 UNL     1      21.581  -1.043  54.651  1.00  0.00     0.236 A 
HETATM   17  N3  UNL     1      22.768  -0.444  54.488  1.00  0.00    -0.224 NA
HETATM   18  C11 UNL     1      23.142   0.308  53.450  1.00  0.00     0.139 A 
BRANCH  18  19
HETATM   19  N4  UNL     1      24.462   0.820  53.538  1.00  0.00    -0.364 N 
HETATM   20  H9  UNL     1      24.897   1.740  53.455  1.00  0.00     0.162 HD
BRANCH  19  21
HETATM   21  C12 UNL     1      25.541  -0.109  53.816  1.00  0.00     0.135 C 
HETATM   22  C13 UNL     1      26.236  -0.311  52.490  1.00  0.00    -0.003 C 
HETATM   23  C14 UNL     1      27.552  -0.408  52.742  1.00  0.00    -0.026 C 
HETATM   24  C15 UNL     1      27.863  -0.287  54.198  1.00  0.00     0.061 C 
HETATM   25  C16 UNL     1      26.609   0.393  54.710  1.00  0.00     0.148 C 
BRANCH  25  26
HETATM   26  O2  UNL     1      26.770   1.772  54.597  1.00  0.00    -0.393 OA
HETATM   27  H16 UNL     1      26.408   2.236  55.388  1.00  0.00     0.210 HD
ENDBRANCH  25  26
ENDBRANCH  19  21
ENDBRANCH  18  19
ENDBRANCH   3   4
TORSDOF 4
ENDMDL
MODEL 6
REMARK VINA RESULT:      -7.2      8.833     12.855
REMARK  4 active torsions:
REMARK  status: ('A' for Active; 'I' for Inactive)
REMARK    1  A    between atoms: C3_3  and  C4_4 
REMARK       I    between atoms: C4_4  and  N1_6 
REMARK    2  A    between atoms: C11_16  and  N4_17 
REMARK    3  A    between atoms: N4_17  and  C12_18 
REMARK    4  A    between atoms: C16_22  and  O2_23 
ROOT
HETATM    1  C1  UNL     1      32.230  13.685  42.944  1.00  0.00     0.112 C 
HETATM    2  C2  UNL     1      31.732  13.082  44.198  1.00  0.00    -0.101 C 
HETATM    3  C3  UNL     1      31.305  12.595  45.214  1.00  0.00    -0.006 C 
ENDROOT
BRANCH   3   4
HETATM    4  C4  UNL     1      30.818  12.000  46.426  1.00  0.00     0.298 C 
HETATM    5  O1  UNL     1      29.713  12.261  46.967  1.00  0.00    -0.258 OA
HETATM    6  N1  UNL     1      31.537  11.026  47.171  1.00  0.00    -0.336 N 
HETATM    7  C5  UNL     1      30.946  10.500  48.369  1.00  0.00     0.132 C 
HETATM    8  C18 UNL     1      32.819  10.363  47.034  1.00  0.00     0.173 C 
HETATM    9  C6  UNL     1      30.612   9.073  48.389  1.00  0.00     0.060 C 
HETATM   10  C7  UNL     1      31.568   8.193  47.676  1.00  0.00    -0.025 A 
HETATM   11  C8  UNL     1      32.548   8.931  47.092  1.00  0.00     0.010 A 
HETATM   12  C17 UNL     1      31.567   6.834  47.555  1.00  0.00     0.053 A 
HETATM   13  S1  UNL     1      33.622   7.607  46.262  1.00  0.00    -0.072 SA
HETATM   14  C9  UNL     1      32.623   6.311  46.810  1.00  0.00     0.114 A 
HETATM   15  N2  UNL     1      32.769   4.969  46.593  1.00  0.00    -0.234 NA
HETATM   16  C10 UNL     1      31.929   4.072  47.070  1.00  0.00     0.236 A 
HETATM   17  N3  UNL     1      30.920   4.587  47.785  1.00  0.00    -0.224 NA
HETATM   18  C11 UNL     1      30.708   5.880  48.040  1.00  0.00     0.139 A 
BRANCH  18  19
HETATM   19  N4  UNL     1      29.556   6.144  48.826  1.00  0.00    -0.364 N 
HETATM   20  H9  UNL     1      29.374   6.375  49.804  1.00  0.00     0.162 HD
BRANCH  19  21
HETATM   21  C12 UNL     1      28.260   6.104  48.177  1.00  0.00     0.135 C 
HETATM   22  C13 UNL     1      27.553   4.915  48.784  1.00  0.00    -0.003 C 
HETATM   23  C14 UNL     1      26.258   5.247  48.916  1.00  0.00    -0.026 C 
HETATM   24  C15 UNL     1      25.973   6.632  48.433  1.00  0.00     0.061 C 
HETATM   25  C16 UNL     1      27.359   7.244  48.466  1.00  0.00     0.148 C 
BRANCH  25  26
HETATM   26  O2  UNL     1      27.586   7.771  49.735  1.00  0.00    -0.393 OA
HETATM   27  H16 UNL     1      28.443   8.257  49.767  1.00  0.00     0.210 HD
ENDBRANCH  25  26
ENDBRANCH  19  21
ENDBRANCH  18  19
ENDBRANCH   3   4
TORSDOF 4
ENDMDL
MODEL 7
REMARK VINA RESULT:      -7.0      5.274      9.556
REMARK  4 active torsions:
REMARK  status: ('A' for Active; 'I' for Inactive)
REMARK    1  A    between atoms: C3_3  and  C4_4 
REMARK       I    between atoms: C4_4  and  N1_6 
REMARK    2  A    between atoms: C11_16  and  N4_17 
REMARK    3  A    between atoms: N4_17  and  C12_18 
REMARK    4  A    between atoms: C16_22  and  O2_23 
ROOT
HETATM    1  C1  UNL     1      32.210  11.364  47.460  1.00  0.00     0.112 C 
HETATM    2  C2  UNL     1      31.787   9.970  47.708  1.00  0.00    -0.101 C 
HETATM    3  C3  UNL     1      31.455   8.827  47.895  1.00  0.00    -0.006 C 
ENDROOT
BRANCH   3   4
HETATM    4  C4  UNL     1      31.054   7.472  48.143  1.00  0.00     0.298 C 
HETATM    5  O1  UNL     1      31.705   6.638  48.825  1.00  0.00    -0.258 OA
HETATM    6  N1  UNL     1      29.854   6.900  47.641  1.00  0.00    -0.336 N 
HETATM    7  C5  UNL     1      29.558   5.531  47.956  1.00  0.00     0.132 C 
HETATM    8  C18 UNL     1      28.752   7.368  46.824  1.00  0.00     0.173 C 
HETATM    9  C6  UNL     1      28.372   5.267  48.775  1.00  0.00     0.060 C 
HETATM   10  C7  UNL     1      27.214   6.155  48.512  1.00  0.00    -0.025 A 
HETATM   11  C8  UNL     1      27.536   7.087  47.577  1.00  0.00     0.010 A 
HETATM   12  C17 UNL     1      25.966   6.135  49.063  1.00  0.00     0.053 A 
HETATM   13  S1  UNL     1      25.928   8.080  47.417  1.00  0.00    -0.072 SA
HETATM   14  C9  UNL     1      25.102   7.121  48.589  1.00  0.00     0.114 A 
HETATM   15  N2  UNL     1      23.815   7.240  49.038  1.00  0.00    -0.234 NA
HETATM   16  C10 UNL     1      23.297   6.436  49.946  1.00  0.00     0.236 A 
HETATM   17  N3  UNL     1      24.138   5.494  50.393  1.00  0.00    -0.224 NA
HETATM   18  C11 UNL     1      25.403   5.313  50.007  1.00  0.00     0.139 A 
BRANCH  18  19
HETATM   19  N4  UNL     1      26.066   4.234  50.647  1.00  0.00    -0.364 N 
HETATM   20  H9  UNL     1      26.950   4.108  51.142  1.00  0.00     0.162 HD
BRANCH  19  21
HETATM   21  C12 UNL     1      25.410   2.940  50.663  1.00  0.00     0.135 C 
HETATM   22  C13 UNL     1      26.498   1.953  51.016  1.00  0.00    -0.003 C 
HETATM   23  C14 UNL     1      25.946   1.021  51.811  1.00  0.00    -0.026 C 
HETATM   24  C15 UNL     1      24.496   1.275  52.064  1.00  0.00     0.061 C 
HETATM   25  C16 UNL     1      24.392   2.748  51.722  1.00  0.00     0.148 C 
BRANCH  25  26
HETATM   26  O2  UNL     1      24.685   3.493  52.860  1.00  0.00    -0.393 OA
HETATM   27  H16 UNL     1      24.655   4.460  52.667  1.00  0.00     0.210 HD
ENDBRANCH  25  26
ENDBRANCH  19  21
ENDBRANCH  18  19
ENDBRANCH   3   4
TORSDOF 4
ENDMDL
MODEL 8
REMARK VINA RESULT:      -6.8      3.514      7.685
REMARK  4 active torsions:
REMARK  status: ('A' for Active; 'I' for Inactive)
REMARK    1  A    between atoms: C3_3  and  C4_4 
REMARK       I    between atoms: C4_4  and  N1_6 
REMARK    2  A    between atoms: C11_16  and  N4_17 
REMARK    3  A    between atoms: N4_17  and  C12_18 
REMARK    4  A    between atoms: C16_22  and  O2_23 
ROOT
HETATM    1  C1  UNL     1      27.722   5.083  48.589  1.00  0.00     0.112 C 
HETATM    2  C2  UNL     1      26.361   5.047  49.162  1.00  0.00    -0.101 C 
HETATM    3  C3  UNL     1      25.245   5.036  49.618  1.00  0.00    -0.006 C 
ENDROOT
BRANCH   3   4
HETATM    4  C4  UNL     1      23.919   4.997  50.164  1.00  0.00     0.298 C 
HETATM    5  O1  UNL     1      22.884   5.414  49.582  1.00  0.00    -0.258 OA
HETATM    6  N1  UNL     1      23.610   4.472  51.448  1.00  0.00    -0.336 N 
HETATM    7  C5  UNL     1      22.243   4.485  51.888  1.00  0.00     0.132 C 
HETATM    8  C18 UNL     1      24.370   3.875  52.529  1.00  0.00     0.173 C 
HETATM    9  C6  UNL     1      21.591   3.191  52.108  1.00  0.00     0.060 C 
HETATM   10  C7  UNL     1      22.463   2.135  52.676  1.00  0.00    -0.025 A 
HETATM   11  C8  UNL     1      23.733   2.597  52.820  1.00  0.00     0.010 A 
HETATM   12  C17 UNL     1      22.149   0.858  53.039  1.00  0.00     0.053 A 
HETATM   13  S1  UNL     1      24.635   1.096  53.549  1.00  0.00    -0.072 SA
HETATM   14  C9  UNL     1      23.214   0.116  53.547  1.00  0.00     0.114 A 
HETATM   15  N2  UNL     1      23.071  -1.181  53.957  1.00  0.00    -0.234 NA
HETATM   16  C10 UNL     1      21.921  -1.824  53.904  1.00  0.00     0.236 A 
HETATM   17  N3  UNL     1      20.906  -1.100  53.414  1.00  0.00    -0.224 NA
HETATM   18  C11 UNL     1      20.965   0.166  52.994  1.00  0.00     0.139 A 
BRANCH  18  19
HETATM   19  N4  UNL     1      19.733   0.688  52.522  1.00  0.00    -0.364 N 
HETATM   20  H9  UNL     1      19.209   1.555  52.648  1.00  0.00     0.162 HD
BRANCH  19  21
HETATM   21  C12 UNL     1      18.939  -0.132  51.627  1.00  0.00     0.135 C 
HETATM   22  C13 UNL     1      17.640  -0.368  52.360  1.00  0.00    -0.003 C 
HETATM   23  C14 UNL     1      16.657  -0.344  51.444  1.00  0.00    -0.026 C 
HETATM   24  C15 UNL     1      17.172  -0.101  50.063  1.00  0.00     0.061 C 
HETATM   25  C16 UNL     1      18.526   0.512  50.359  1.00  0.00     0.148 C 
BRANCH  25  26
HETATM   26  O2  UNL     1      18.372   1.888  50.506  1.00  0.00    -0.393 OA
HETATM   27  H16 UNL     1      19.107   2.375  50.065  1.00  0.00     0.210 HD
ENDBRANCH  25  26
ENDBRANCH  19  21
ENDBRANCH  18  19
ENDBRANCH   3   4
TORSDOF 4
ENDMDL
MODEL 9
REMARK VINA RESULT:      -6.8      3.176      4.813
REMARK  4 active torsions:
REMARK  status: ('A' for Active; 'I' for Inactive)
REMARK    1  A    between atoms: C3_3  and  C4_4 
REMARK       I    between atoms: C4_4  and  N1_6 
REMARK    2  A    between atoms: C11_16  and  N4_17 
REMARK    3  A    between atoms: N4_17  and  C12_18 
REMARK    4  A    between atoms: C16_22  and  O2_23 
ROOT
HETATM    1  C1  UNL     1      15.512   2.371  52.139  1.00  0.00     0.112 C 
HETATM    2  C2  UNL     1      16.677   2.388  51.231  1.00  0.00    -0.101 C 
HETATM    3  C3  UNL     1      17.628   2.423  50.491  1.00  0.00    -0.006 C 
ENDROOT
BRANCH   3   4
HETATM    4  C4  UNL     1      18.766   2.442  49.617  1.00  0.00     0.298 C 
HETATM    5  O1  UNL     1      18.919   3.226  48.644  1.00  0.00    -0.258 OA
HETATM    6  N1  UNL     1      19.877   1.565  49.750  1.00  0.00    -0.336 N 
HETATM    7  C5  UNL     1      20.960   1.679  48.815  1.00  0.00     0.132 C 
HETATM    8  C18 UNL     1      20.241   0.492  50.654  1.00  0.00     0.173 C 
HETATM    9  C6  UNL     1      22.267   2.085  49.341  1.00  0.00     0.060 C 
HETATM   10  C7  UNL     1      22.599   1.552  50.684  1.00  0.00    -0.025 A 
HETATM   11  C8  UNL     1      21.561   0.826  51.175  1.00  0.00     0.010 A 
HETATM   12  C17 UNL     1      23.740   1.703  51.415  1.00  0.00     0.053 A 
HETATM   13  S1  UNL     1      22.215   0.263  52.863  1.00  0.00    -0.072 SA
HETATM   14  C9  UNL     1      23.729   1.064  52.655  1.00  0.00     0.114 A 
HETATM   15  N2  UNL     1      24.795   1.115  53.512  1.00  0.00    -0.234 NA
HETATM   16  C10 UNL     1      25.906   1.768  53.232  1.00  0.00     0.236 A 
HETATM   17  N3  UNL     1      25.903   2.376  52.039  1.00  0.00    -0.224 NA
HETATM   18  C11 UNL     1      24.907   2.374  51.150  1.00  0.00     0.139 A 
BRANCH  18  19
HETATM   19  N4  UNL     1      25.176   3.104  49.963  1.00  0.00    -0.364 N 
HETATM   20  H9  UNL     1      24.975   2.985  48.969  1.00  0.00     0.162 HD
BRANCH  19  21
HETATM   21  C12 UNL     1      25.914   4.348  50.076  1.00  0.00     0.135 C 
HETATM   22  C13 UNL     1      27.076   4.203  49.123  1.00  0.00    -0.003 C 
HETATM   23  C14 UNL     1      27.278   5.405  48.557  1.00  0.00    -0.026 C 
HETATM   24  C15 UNL     1      26.316   6.435  49.050  1.00  0.00     0.061 C 
HETATM   25  C16 UNL     1      25.208   5.561  49.602  1.00  0.00     0.148 C 
BRANCH  25  26
HETATM   26  O2  UNL     1      24.315   5.268  48.574  1.00  0.00    -0.393 OA
HETATM   27  H16 UNL     1      24.235   6.026  47.949  1.00  0.00     0.210 HD
ENDBRANCH  25  26
ENDBRANCH  19  21
ENDBRANCH  18  19
ENDBRANCH   3   4
TORSDOF 4
ENDMDL
