MODEL 1
REMARK VINA RESULT:      -9.6      0.000      0.000
REMARK  2 active torsions:
REMARK  status: ('A' for Active; 'I' for Inactive)
REMARK    1  A    between atoms: C2_2  and  O2_4 
REMARK    2  A    between atoms: O2_4  and  C3_5 
ROOT
HETATM    1  C3  UNL     1      23.398   0.440  52.867  1.00  0.00     0.163 A 
HETATM    2  C4  UNL     1      23.865   1.206  51.947  1.00  0.00     0.006 A 
HETATM    3  O3  UNL     1      24.837   0.303  52.339  1.00  0.00     0.000 OA
HETATM    4  C5  UNL     1      24.136   2.177  50.929  1.00  0.00    -0.019 A 
HETATM    5  C6  UNL     1      25.407   2.689  51.245  1.00  0.00     0.012 A 
HETATM    6  C7  UNL     1      26.089   3.683  50.530  1.00  0.00     0.001 A 
HETATM    7  C8  UNL     1      25.387   4.138  49.443  1.00  0.00     0.001 A 
HETATM    8  C9  UNL     1      24.149   3.634  49.142  1.00  0.00     0.008 A 
HETATM    9  C10 UNL     1      23.480   2.660  49.845  1.00  0.00    -0.041 A 
HETATM   10  C11 UNL     1      22.216   2.497  49.149  1.00  0.00     0.044 A 
HETATM   11  C12 UNL     1      22.298   1.747  47.817  1.00  0.00     0.037 A 
HETATM   12  C13 UNL     1      21.619   1.179  49.022  1.00  0.00     0.092 A 
HETATM   13  N1  UNL     1      20.146   1.315  48.992  1.00  0.00    -0.369 N 
HETATM   14  C14 UNL     1      20.076   1.852  50.321  1.00  0.00     0.127 A 
HETATM   15  C15 UNL     1      20.495   1.262  51.514  1.00  0.00     0.081 A 
HETATM   16  C16 UNL     1      20.390   1.957  52.714  1.00  0.00     0.062 A 
HETATM   17  N2  UNL     1      19.897   3.165  52.721  1.00  0.00    -0.242 NA
HETATM   18  C17 UNL     1      19.488   3.754  51.589  1.00  0.00     0.235 A 
HETATM   19  N3  UNL     1      19.575   3.106  50.403  1.00  0.00    -0.225 NA
HETATM   20  C18 UNL     1      20.942   0.889  53.517  1.00  0.00     0.037 C 
HETATM   21  C19 UNL     1      22.124   0.304  53.562  1.00  0.00    -0.038 C 
HETATM   22  C20 UNL     1      21.897  -0.683  54.631  1.00  0.00     0.047 C 
HETATM   23  H4  UNL     1      25.759   0.372  51.883  1.00  0.00     0.000 HD
HETATM   24  H13 UNL     1      19.234   1.219  48.513  1.00  0.00     0.161 HD
ENDROOT
BRANCH   1  25
HETATM   25  O2  UNL     1      24.230  -0.563  53.414  1.00  0.00    -0.297 OA
BRANCH  25  26
HETATM   26  C2  UNL     1      25.545  -0.342  53.785  1.00  0.00     0.256 C 
HETATM   27  C1  UNL     1      26.385  -1.178  52.854  1.00  0.00     0.126 C 
HETATM   28  O1  UNL     1      26.221   0.328  54.641  1.00  0.00    -0.266 OA
ENDBRANCH  25  26
ENDBRANCH   1  25
TORSDOF 2
ENDMDL
MODEL 2
REMARK VINA RESULT:      -9.3      3.107      5.099
REMARK  2 active torsions:
REMARK  status: ('A' for Active; 'I' for Inactive)
REMARK    1  A    between atoms: C2_2  and  O2_4 
REMARK    2  A    between atoms: O2_4  and  C3_5 
ROOT
HETATM    1  C3  UNL     1      21.312   0.020  52.800  1.00  0.00     0.163 A 
HETATM    2  C4  UNL     1      21.568   0.713  51.749  1.00  0.00     0.006 A 
HETATM    3  O3  UNL     1      20.203   0.693  51.974  1.00  0.00     0.000 OA
HETATM    4  C5  UNL     1      22.115   1.422  50.631  1.00  0.00    -0.019 A 
HETATM    5  C6  UNL     1      21.284   1.087  49.547  1.00  0.00     0.012 A 
HETATM    6  C7  UNL     1      21.437   1.539  48.229  1.00  0.00     0.001 A 
HETATM    7  C8  UNL     1      22.512   2.375  48.071  1.00  0.00     0.001 A 
HETATM    8  C9  UNL     1      23.317   2.697  49.133  1.00  0.00     0.008 A 
HETATM    9  C10 UNL     1      23.167   2.253  50.425  1.00  0.00    -0.041 A 
HETATM   10  C11 UNL     1      24.270   2.848  51.157  1.00  0.00     0.044 A 
HETATM   11  C12 UNL     1      24.125   4.343  51.452  1.00  0.00     0.037 A 
HETATM   12  C13 UNL     1      24.078   3.301  52.524  1.00  0.00     0.092 A 
HETATM   13  N1  UNL     1      25.351   3.155  53.266  1.00  0.00    -0.369 N 
HETATM   14  C14 UNL     1      25.373   1.727  53.131  1.00  0.00     0.127 A 
HETATM   15  C15 UNL     1      24.429   0.802  53.580  1.00  0.00     0.081 A 
HETATM   16  C16 UNL     1      24.596  -0.553  53.316  1.00  0.00     0.062 A 
HETATM   17  N2  UNL     1      25.639  -0.958  52.647  1.00  0.00    -0.242 NA
HETATM   18  C17 UNL     1      26.560  -0.091  52.205  1.00  0.00     0.235 A 
HETATM   19  N3  UNL     1      26.430   1.236  52.444  1.00  0.00    -0.225 NA
HETATM   20  C18 UNL     1      23.383  -0.954  53.993  1.00  0.00     0.037 C 
HETATM   21  C19 UNL     1      22.103  -0.718  53.779  1.00  0.00    -0.038 C 
HETATM   22  C20 UNL     1      21.498  -1.467  54.894  1.00  0.00     0.047 C 
HETATM   23  H4  UNL     1      19.603   1.190  51.298  1.00  0.00     0.000 HD
HETATM   24  H13 UNL     1      26.153   3.557  53.781  1.00  0.00     0.161 HD
ENDROOT
BRANCH   1  25
HETATM   25  O2  UNL     1      19.970  -0.132  53.215  1.00  0.00    -0.297 OA
BRANCH  25  26
HETATM   26  C2  UNL     1      18.939  -0.458  52.350  1.00  0.00     0.256 C 
HETATM   27  C1  UNL     1      18.049  -1.410  53.108  1.00  0.00     0.126 C 
HETATM   28  O1  UNL     1      18.540  -0.203  51.161  1.00  0.00    -0.266 OA
ENDBRANCH  25  26
ENDBRANCH   1  25
TORSDOF 2
ENDMDL
MODEL 3
REMARK VINA RESULT:      -8.8      0.936      1.119
REMARK  2 active torsions:
REMARK  status: ('A' for Active; 'I' for Inactive)
REMARK    1  A    between atoms: C2_2  and  O2_4 
REMARK    2  A    between atoms: O2_4  and  C3_5 
ROOT
HETATM    1  C3  UNL     1      24.283   1.093  52.221  1.00  0.00     0.163 A 
HETATM    2  C4  UNL     1      24.420   2.008  51.330  1.00  0.00     0.006 A 
HETATM    3  O3  UNL     1      25.630   1.367  51.529  1.00  0.00     0.000 OA
HETATM    4  C5  UNL     1      24.305   3.075  50.382  1.00  0.00    -0.019 A 
HETATM    5  C6  UNL     1      25.437   3.880  50.603  1.00  0.00     0.012 A 
HETATM    6  C7  UNL     1      25.750   5.058  49.911  1.00  0.00     0.001 A 
HETATM    7  C8  UNL     1      24.822   5.380  48.954  1.00  0.00     0.001 A 
HETATM    8  C9  UNL     1      23.722   4.590  48.745  1.00  0.00     0.008 A 
HETATM    9  C10 UNL     1      23.415   3.436  49.424  1.00  0.00    -0.041 A 
HETATM   10  C11 UNL     1      22.154   2.992  48.859  1.00  0.00     0.044 A 
HETATM   11  C12 UNL     1      22.248   2.371  47.462  1.00  0.00     0.037 A 
HETATM   12  C13 UNL     1      21.895   1.574  48.678  1.00  0.00     0.092 A 
HETATM   13  N1  UNL     1      20.443   1.324  48.821  1.00  0.00    -0.369 N 
HETATM   14  C14 UNL     1      20.413   1.744  50.194  1.00  0.00     0.127 A 
HETATM   15  C15 UNL     1      21.117   1.212  51.275  1.00  0.00     0.081 A 
HETATM   16  C16 UNL     1      20.996   1.782  52.537  1.00  0.00     0.062 A 
HETATM   17  N2  UNL     1      20.222   2.817  52.708  1.00  0.00    -0.242 NA
HETATM   18  C17 UNL     1      19.535   3.347  51.687  1.00  0.00     0.235 A 
HETATM   19  N3  UNL     1      19.629   2.817  50.444  1.00  0.00    -0.225 NA
HETATM   20  C18 UNL     1      21.897   0.848  53.174  1.00  0.00     0.037 C 
HETATM   21  C19 UNL     1      23.184   0.588  53.036  1.00  0.00    -0.038 C 
HETATM   22  C20 UNL     1      23.352  -0.487  54.029  1.00  0.00     0.047 C 
HETATM   23  H4  UNL     1      26.439   1.700  50.984  1.00  0.00     0.000 HD
HETATM   24  H13 UNL     1      19.530   1.023  48.438  1.00  0.00     0.161 HD
ENDROOT
BRANCH   1  25
HETATM   25  O2  UNL     1      25.403   0.309  52.580  1.00  0.00    -0.297 OA
BRANCH  25  26
HETATM   26  C2  UNL     1      26.424   0.770  53.395  1.00  0.00     0.256 C 
HETATM   27  C1  UNL     1      27.547  -0.225  53.252  1.00  0.00     0.126 C 
HETATM   28  O1  UNL     1      26.681   1.739  54.189  1.00  0.00    -0.266 OA
ENDBRANCH  25  26
ENDBRANCH   1  25
TORSDOF 2
ENDMDL
MODEL 4
REMARK VINA RESULT:      -8.1      1.531      4.434
REMARK  2 active torsions:
REMARK  status: ('A' for Active; 'I' for Inactive)
REMARK    1  A    between atoms: C2_2  and  O2_4 
REMARK    2  A    between atoms: O2_4  and  C3_5 
ROOT
HETATM    1  C3  UNL     1      25.125   2.421  51.504  1.00  0.00     0.163 A 
HETATM    2  C4  UNL     1      24.155   1.779  52.048  1.00  0.00     0.006 A 
HETATM    3  O3  UNL     1      25.209   1.872  52.939  1.00  0.00     0.000 OA
HETATM    4  C5  UNL     1      22.946   1.104  52.414  1.00  0.00    -0.019 A 
HETATM    5  C6  UNL     1      23.369  -0.079  53.046  1.00  0.00     0.012 A 
HETATM    6  C7  UNL     1      22.528  -1.073  53.568  1.00  0.00     0.001 A 
HETATM    7  C8  UNL     1      21.196  -0.786  53.407  1.00  0.00     0.001 A 
HETATM    8  C9  UNL     1      20.793   0.369  52.790  1.00  0.00     0.008 A 
HETATM    9  C10 UNL     1      21.618   1.342  52.278  1.00  0.00    -0.041 A 
HETATM   10  C11 UNL     1      20.722   2.336  51.715  1.00  0.00     0.044 A 
HETATM   11  C12 UNL     1      20.000   3.218  52.738  1.00  0.00     0.037 A 
HETATM   12  C13 UNL     1      21.047   3.748  51.810  1.00  0.00     0.092 A 
HETATM   13  N1  UNL     1      20.492   4.453  50.633  1.00  0.00    -0.369 N 
HETATM   14  C14 UNL     1      21.314   3.735  49.700  1.00  0.00     0.127 A 
HETATM   15  C15 UNL     1      22.706   3.686  49.637  1.00  0.00     0.081 A 
HETATM   16  C16 UNL     1      23.336   2.893  48.684  1.00  0.00     0.062 A 
HETATM   17  N2  UNL     1      22.619   2.195  47.847  1.00  0.00    -0.242 NA
HETATM   18  C17 UNL     1      21.280   2.226  47.887  1.00  0.00     0.235 A 
HETATM   19  N3  UNL     1      20.635   2.987  48.801  1.00  0.00    -0.225 NA
HETATM   20  C18 UNL     1      24.674   3.248  49.101  1.00  0.00     0.037 C 
HETATM   21  C19 UNL     1      25.359   3.058  50.213  1.00  0.00    -0.038 C 
HETATM   22  C20 UNL     1      26.633   3.709  49.861  1.00  0.00     0.047 C 
HETATM   23  H4  UNL     1      25.093   1.424  53.860  1.00  0.00     0.000 HD
HETATM   24  H13 UNL     1      19.853   5.148  50.207  1.00  0.00     0.161 HD
ENDROOT
BRANCH   1  25
HETATM   25  O2  UNL     1      26.310   2.634  52.244  1.00  0.00    -0.297 OA
BRANCH  25  26
HETATM   26  C2  UNL     1      26.674   1.863  53.336  1.00  0.00     0.256 C 
HETATM   27  C1  UNL     1      27.499   0.729  52.785  1.00  0.00     0.126 C 
HETATM   28  O1  UNL     1      26.524   1.833  54.606  1.00  0.00    -0.266 OA
ENDBRANCH  25  26
ENDBRANCH   1  25
TORSDOF 2
ENDMDL
MODEL 5
REMARK VINA RESULT:      -7.8      6.334      9.414
REMARK  2 active torsions:
REMARK  status: ('A' for Active; 'I' for Inactive)
REMARK    1  A    between atoms: C2_2  and  O2_4 
REMARK    2  A    between atoms: O2_4  and  C3_5 
ROOT
HETATM    1  C3  UNL     1      29.502   7.228  47.632  1.00  0.00     0.163 A 
HETATM    2  C4  UNL     1      28.500   6.623  48.162  1.00  0.00     0.006 A 
HETATM    3  O3  UNL     1      29.645   6.353  48.889  1.00  0.00     0.000 OA
HETATM    4  C5  UNL     1      27.240   6.062  48.547  1.00  0.00    -0.019 A 
HETATM    5  C6  UNL     1      27.518   4.716  48.844  1.00  0.00     0.012 A 
HETATM    6  C7  UNL     1      26.580   3.759  49.259  1.00  0.00     0.001 A 
HETATM    7  C8  UNL     1      25.309   4.264  49.358  1.00  0.00     0.001 A 
HETATM    8  C9  UNL     1      25.046   5.577  49.067  1.00  0.00     0.008 A 
HETATM    9  C10 UNL     1      25.966   6.514  48.659  1.00  0.00    -0.041 A 
HETATM   10  C11 UNL     1      25.199   7.729  48.457  1.00  0.00     0.044 A 
HETATM   11  C12 UNL     1      24.757   8.442  49.738  1.00  0.00     0.037 A 
HETATM   12  C13 UNL     1      25.771   9.019  48.803  1.00  0.00     0.092 A 
HETATM   13  N1  UNL     1      25.222  10.052  47.896  1.00  0.00    -0.369 N 
HETATM   14  C14 UNL     1      25.801   9.461  46.723  1.00  0.00     0.127 A 
HETATM   15  C15 UNL     1      27.149   9.228  46.449  1.00  0.00     0.081 A 
HETATM   16  C16 UNL     1      27.524   8.598  45.268  1.00  0.00     0.062 A 
HETATM   17  N2  UNL     1      26.611   8.225  44.415  1.00  0.00    -0.242 NA
HETATM   18  C17 UNL     1      25.309   8.438  44.654  1.00  0.00     0.235 A 
HETATM   19  N3  UNL     1      24.909   9.049  45.794  1.00  0.00    -0.225 NA
HETATM   20  C18 UNL     1      28.940   8.649  45.552  1.00  0.00     0.037 C 
HETATM   21  C19 UNL     1      29.700   8.108  46.486  1.00  0.00    -0.038 C 
HETATM   22  C20 UNL     1      31.020   8.634  46.101  1.00  0.00     0.047 C 
HETATM   23  H4  UNL     1      29.555   5.723  49.701  1.00  0.00     0.000 HD
HETATM   24  H13 UNL     1      24.671  10.911  47.725  1.00  0.00     0.161 HD
ENDROOT
BRANCH   1  25
HETATM   25  O2  UNL     1      30.779   7.090  48.220  1.00  0.00    -0.297 OA
BRANCH  25  26
HETATM   26  C2  UNL     1      31.252   5.896  48.738  1.00  0.00     0.256 C 
HETATM   27  C1  UNL     1      31.644   5.056  47.550  1.00  0.00     0.126 C 
HETATM   28  O1  UNL     1      31.445   5.327  49.868  1.00  0.00    -0.266 OA
ENDBRANCH  25  26
ENDBRANCH   1  25
TORSDOF 2
ENDMDL
MODEL 6
REMARK VINA RESULT:      -7.8      2.543      4.697
REMARK  2 active torsions:
REMARK  status: ('A' for Active; 'I' for Inactive)
REMARK    1  A    between atoms: C2_2  and  O2_4 
REMARK    2  A    between atoms: O2_4  and  C3_5 
ROOT
HETATM    1  C3  UNL     1      23.533   0.455  53.003  1.00  0.00     0.163 A 
HETATM    2  C4  UNL     1      22.649   0.937  52.205  1.00  0.00     0.006 A 
HETATM    3  O3  UNL     1      22.040   0.101  53.124  1.00  0.00     0.000 OA
HETATM    4  C5  UNL     1      21.877   1.603  51.199  1.00  0.00    -0.019 A 
HETATM    5  C6  UNL     1      21.003   0.619  50.702  1.00  0.00     0.012 A 
HETATM    6  C7  UNL     1      20.057   0.805  49.685  1.00  0.00     0.001 A 
HETATM    7  C8  UNL     1      20.047   2.084  49.188  1.00  0.00     0.001 A 
HETATM    8  C9  UNL     1      20.903   3.036  49.678  1.00  0.00     0.008 A 
HETATM    9  C10 UNL     1      21.831   2.853  50.675  1.00  0.00    -0.041 A 
HETATM   10  C11 UNL     1      22.495   4.137  50.810  1.00  0.00     0.044 A 
HETATM   11  C12 UNL     1      21.676   5.224  51.511  1.00  0.00     0.037 A 
HETATM   12  C13 UNL     1      22.898   4.615  52.121  1.00  0.00     0.092 A 
HETATM   13  N1  UNL     1      24.110   5.452  51.979  1.00  0.00    -0.369 N 
HETATM   14  C14 UNL     1      24.914   4.368  51.490  1.00  0.00     0.127 A 
HETATM   15  C15 UNL     1      25.216   3.163  52.124  1.00  0.00     0.081 A 
HETATM   16  C16 UNL     1      25.980   2.201  51.473  1.00  0.00     0.062 A 
HETATM   17  N2  UNL     1      26.415   2.430  50.265  1.00  0.00    -0.242 NA
HETATM   18  C17 UNL     1      26.140   3.580  49.634  1.00  0.00     0.235 A 
HETATM   19  N3  UNL     1      25.399   4.538  50.239  1.00  0.00    -0.225 NA
HETATM   20  C18 UNL     1      25.946   1.261  52.570  1.00  0.00     0.037 C 
HETATM   21  C19 UNL     1      24.977   0.587  53.160  1.00  0.00    -0.038 C 
HETATM   22  C20 UNL     1      25.739  -0.146  54.185  1.00  0.00     0.047 C 
HETATM   23  H4  UNL     1      21.021  -0.033  53.042  1.00  0.00     0.000 HD
HETATM   24  H13 UNL     1      24.603   6.360  52.056  1.00  0.00     0.161 HD
ENDROOT
BRANCH   1  25
HETATM   25  O2  UNL     1      23.126  -0.429  54.027  1.00  0.00    -0.297 OA
BRANCH  25  26
HETATM   26  C2  UNL     1      21.837  -0.467  54.532  1.00  0.00     0.256 C 
HETATM   27  C1  UNL     1      21.351  -1.878  54.322  1.00  0.00     0.126 C 
HETATM   28  O1  UNL     1      20.983   0.303  55.094  1.00  0.00    -0.266 OA
ENDBRANCH  25  26
ENDBRANCH   1  25
TORSDOF 2
ENDMDL
MODEL 7
REMARK VINA RESULT:      -7.7      2.342      3.810
REMARK  2 active torsions:
REMARK  status: ('A' for Active; 'I' for Inactive)
REMARK    1  A    between atoms: C2_2  and  O2_4 
REMARK    2  A    between atoms: O2_4  and  C3_5 
ROOT
HETATM    1  C3  UNL     1      22.611   1.012  52.700  1.00  0.00     0.163 A 
HETATM    2  C4  UNL     1      23.891   1.128  52.739  1.00  0.00     0.006 A 
HETATM    3  O3  UNL     1      23.536  -0.193  52.947  1.00  0.00     0.000 OA
HETATM    4  C5  UNL     1      25.267   1.524  52.736  1.00  0.00    -0.019 A 
HETATM    5  C6  UNL     1      25.836   0.865  53.841  1.00  0.00     0.012 A 
HETATM    6  C7  UNL     1      27.174   0.960  54.249  1.00  0.00     0.001 A 
HETATM    7  C8  UNL     1      27.922   1.783  53.447  1.00  0.00     0.001 A 
HETATM    8  C9  UNL     1      27.360   2.421  52.372  1.00  0.00     0.008 A 
HETATM    9  C10 UNL     1      26.048   2.328  51.973  1.00  0.00    -0.041 A 
HETATM   10  C11 UNL     1      25.946   3.198  50.815  1.00  0.00     0.044 A 
HETATM   11  C12 UNL     1      26.574   2.650  49.530  1.00  0.00     0.037 A 
HETATM   12  C13 UNL     1      25.098   2.825  49.696  1.00  0.00     0.092 A 
HETATM   13  N1  UNL     1      24.572   4.052  49.057  1.00  0.00    -0.369 N 
HETATM   14  C14 UNL     1      23.840   4.457  50.223  1.00  0.00     0.127 A 
HETATM   15  C15 UNL     1      22.823   3.769  50.887  1.00  0.00     0.081 A 
HETATM   16  C16 UNL     1      22.256   4.301  52.039  1.00  0.00     0.062 A 
HETATM   17  N2  UNL     1      22.677   5.446  52.500  1.00  0.00    -0.242 NA
HETATM   18  C17 UNL     1      23.651   6.126  51.881  1.00  0.00     0.235 A 
HETATM   19  N3  UNL     1      24.226   5.639  50.756  1.00  0.00    -0.225 NA
HETATM   20  C18 UNL     1      21.333   3.204  52.231  1.00  0.00     0.037 C 
HETATM   21  C19 UNL     1      21.490   1.919  52.487  1.00  0.00    -0.038 C 
HETATM   22  C20 UNL     1      20.085   1.478  52.535  1.00  0.00     0.047 C 
HETATM   23  H4  UNL     1      24.297  -0.868  53.116  1.00  0.00     0.000 HD
HETATM   24  H13 UNL     1      24.493   4.694  48.248  1.00  0.00     0.161 HD
ENDROOT
BRANCH   1  25
HETATM   25  O2  UNL     1      22.030  -0.262  52.889  1.00  0.00    -0.297 OA
BRANCH  25  26
HETATM   26  C2  UNL     1      22.180  -1.002  54.050  1.00  0.00     0.256 C 
HETATM   27  C1  UNL     1      20.852  -1.676  54.285  1.00  0.00     0.126 C 
HETATM   28  O1  UNL     1      23.066  -1.268  54.933  1.00  0.00    -0.266 OA
ENDBRANCH  25  26
ENDBRANCH   1  25
TORSDOF 2
ENDMDL
MODEL 8
REMARK VINA RESULT:      -7.7      2.328      5.203
REMARK  2 active torsions:
REMARK  status: ('A' for Active; 'I' for Inactive)
REMARK    1  A    between atoms: C2_2  and  O2_4 
REMARK    2  A    between atoms: O2_4  and  C3_5 
ROOT
HETATM    1  C3  UNL     1      21.470   0.657  52.855  1.00  0.00     0.163 A 
HETATM    2  C4  UNL     1      20.209   0.547  52.633  1.00  0.00     0.006 A 
HETATM    3  O3  UNL     1      20.494   0.126  53.919  1.00  0.00     0.000 OA
HETATM    4  C5  UNL     1      18.866   0.523  52.136  1.00  0.00    -0.019 A 
HETATM    5  C6  UNL     1      18.354  -0.724  52.539  1.00  0.00     0.012 A 
HETATM    6  C7  UNL     1      17.065  -1.204  52.267  1.00  0.00     0.001 A 
HETATM    7  C8  UNL     1      16.305  -0.320  51.543  1.00  0.00     0.001 A 
HETATM    8  C9  UNL     1      16.813   0.892  51.154  1.00  0.00     0.008 A 
HETATM    9  C10 UNL     1      18.077   1.362  51.420  1.00  0.00    -0.041 A 
HETATM   10  C11 UNL     1      18.135   2.664  50.782  1.00  0.00     0.044 A 
HETATM   11  C12 UNL     1      17.364   3.777  51.499  1.00  0.00     0.037 A 
HETATM   12  C13 UNL     1      18.857   3.754  51.415  1.00  0.00     0.092 A 
HETATM   13  N1  UNL     1      19.405   4.645  50.367  1.00  0.00    -0.369 N 
HETATM   14  C14 UNL     1      20.259   3.629  49.820  1.00  0.00     0.127 A 
HETATM   15  C15 UNL     1      21.282   2.927  50.457  1.00  0.00     0.081 A 
HETATM   16  C16 UNL     1      21.981   1.936  49.776  1.00  0.00     0.062 A 
HETATM   17  N2  UNL     1      21.676   1.665  48.537  1.00  0.00    -0.242 NA
HETATM   18  C17 UNL     1      20.698   2.326  47.902  1.00  0.00     0.235 A 
HETATM   19  N3  UNL     1      19.998   3.297  48.535  1.00  0.00    -0.225 NA
HETATM   20  C18 UNL     1      22.843   1.613  50.890  1.00  0.00     0.037 C 
HETATM   21  C19 UNL     1      22.626   1.115  52.093  1.00  0.00    -0.038 C 
HETATM   22  C20 UNL     1      23.998   1.088  52.628  1.00  0.00     0.047 C 
HETATM   23  H4  UNL     1      19.708  -0.220  54.490  1.00  0.00     0.000 HD
HETATM   24  H13 UNL     1      19.456   5.561  49.888  1.00  0.00     0.161 HD
ENDROOT
BRANCH   1  25
HETATM   25  O2  UNL     1      21.982   0.280  54.117  1.00  0.00    -0.297 OA
BRANCH  25  26
HETATM   26  C2  UNL     1      21.786  -0.973  54.673  1.00  0.00     0.256 C 
HETATM   27  C1  UNL     1      23.078  -1.325  55.365  1.00  0.00     0.126 C 
HETATM   28  O1  UNL     1      20.879  -1.871  54.768  1.00  0.00    -0.266 OA
ENDBRANCH  25  26
ENDBRANCH   1  25
TORSDOF 2
ENDMDL
MODEL 9
REMARK VINA RESULT:      -7.5     18.558     21.440
REMARK  2 active torsions:
REMARK  status: ('A' for Active; 'I' for Inactive)
REMARK    1  A    between atoms: C2_2  and  O2_4 
REMARK    2  A    between atoms: O2_4  and  C3_5 
ROOT
HETATM    1  C3  UNL     1      40.880   7.617  53.116  1.00  0.00     0.163 A 
HETATM    2  C4  UNL     1      42.063   7.996  52.789  1.00  0.00     0.006 A 
HETATM    3  O3  UNL     1      41.132   8.630  51.986  1.00  0.00     0.000 OA
HETATM    4  C5  UNL     1      43.463   8.248  52.623  1.00  0.00    -0.019 A 
HETATM    5  C6  UNL     1      43.675   8.216  51.233  1.00  0.00     0.012 A 
HETATM    6  C7  UNL     1      44.908   8.400  50.590  1.00  0.00     0.001 A 
HETATM    7  C8  UNL     1      45.940   8.626  51.464  1.00  0.00     0.001 A 
HETATM    8  C9  UNL     1      45.724   8.656  52.817  1.00  0.00     0.008 A 
HETATM    9  C10 UNL     1      44.516   8.474  53.447  1.00  0.00    -0.041 A 
HETATM   10  C11 UNL     1      44.814   8.572  54.864  1.00  0.00     0.044 A 
HETATM   11  C12 UNL     1      45.085   9.988  55.378  1.00  0.00     0.037 A 
HETATM   12  C13 UNL     1      43.870   9.208  55.766  1.00  0.00     0.092 A 
HETATM   13  N1  UNL     1      43.973   8.576  57.100  1.00  0.00    -0.369 N 
HETATM   14  C14 UNL     1      43.540   7.292  56.627  1.00  0.00     0.127 A 
HETATM   15  C15 UNL     1      42.332   6.959  56.013  1.00  0.00     0.081 A 
HETATM   16  C16 UNL     1      42.104   5.660  55.576  1.00  0.00     0.062 A 
HETATM   17  N2  UNL     1      43.023   4.750  55.741  1.00  0.00    -0.242 NA
HETATM   18  C17 UNL     1      44.192   5.043  56.328  1.00  0.00     0.235 A 
HETATM   19  N3  UNL     1      44.448   6.298  56.766  1.00  0.00    -0.225 NA
HETATM   20  C18 UNL     1      40.777   5.937  55.072  1.00  0.00     0.037 C 
HETATM   21  C19 UNL     1      40.314   6.710  54.108  1.00  0.00    -0.038 C 
HETATM   22  C20 UNL     1      38.869   6.449  54.221  1.00  0.00     0.047 C 
HETATM   23  H4  UNL     1      41.488   9.270  51.260  1.00  0.00     0.000 HD
HETATM   24  H13 UNL     1      44.190   8.617  58.111  1.00  0.00     0.161 HD
ENDROOT
BRANCH   1  25
HETATM   25  O2  UNL     1      39.771   8.145  52.419  1.00  0.00    -0.297 OA
BRANCH  25  26
HETATM   26  C2  UNL     1      39.799   8.463  51.071  1.00  0.00     0.256 C 
HETATM   27  C1  UNL     1      39.359   7.219  50.344  1.00  0.00     0.126 C 
HETATM   28  O1  UNL     1      40.075   9.449  50.304  1.00  0.00    -0.266 OA
ENDBRANCH  25  26
ENDBRANCH   1  25
TORSDOF 2
ENDMDL
