MODEL 1
REMARK VINA RESULT:      -8.0      0.000      0.000
REMARK  6 active torsions:
REMARK  status: ('A' for Active; 'I' for Inactive)
REMARK    1  A    between atoms: C2_2  and  C3_3 
REMARK       I    between atoms: C3_3  and  N1_5 
REMARK    2  A    between atoms: C5_7  and  C6_8 
REMARK    3  A    between atoms: C6_8  and  O2_9 
REMARK    4  A    between atoms: O2_9  and  C7_10 
REMARK    5  A    between atoms: N3_13  and  C9_14 
REMARK    6  A    between atoms: C13_20  and  C14_21 
ROOT
HETATM    1  C3  UNL     1      28.838   0.562  53.947  1.00  0.00     0.242 C 
HETATM    2  O1  UNL     1      28.887   1.391  54.889  1.00  0.00    -0.268 OA
HETATM    3  N1  UNL     1      27.753   0.915  53.122  1.00  0.00    -0.348 N 
HETATM    4  C4  UNL     1      27.008   2.103  53.565  1.00  0.00     0.133 C 
HETATM    5  C5  UNL     1      25.785   2.131  52.718  1.00  0.00     0.042 C 
HETATM    6  C13 UNL     1      25.638   0.727  52.261  1.00  0.00     0.119 C 
HETATM    7  C15 UNL     1      27.106   0.432  51.892  1.00  0.00     0.140 C 
ENDROOT
BRANCH   5   8
HETATM    8  C6  UNL     1      24.586   2.737  53.339  1.00  0.00     0.185 C 
BRANCH   8   9
HETATM    9  O2  UNL     1      23.996   3.755  52.608  1.00  0.00    -0.320 OA
BRANCH   9  10
HETATM   10  C7  UNL     1      24.186   4.257  51.390  1.00  0.00     0.247 A 
HETATM   11  N2  UNL     1      22.931   4.568  51.384  1.00  0.00    -0.230 NA
HETATM   12  C8  UNL     1      22.989   5.147  50.069  1.00  0.00     0.287 A 
HETATM   13  N3  UNL     1      24.380   4.790  50.099  1.00  0.00    -0.290 N 
BRANCH  13  14
HETATM   14  C9  UNL     1      25.701   4.696  49.572  1.00  0.00     0.075 A 
HETATM   15  C10 UNL     1      26.765   3.811  49.343  1.00  0.00     0.170 A 
HETATM   16  N4  UNL     1      27.743   4.522  48.756  1.00  0.00    -0.183 NA
HETATM   17  N5  UNL     1      27.335   5.771  48.620  1.00  0.00    -0.283 N 
HETATM   18  C11 UNL     1      28.322   6.623  47.991  1.00  0.00     0.179 C 
HETATM   19  C12 UNL     1      26.083   5.950  49.101  1.00  0.00     0.143 A 
ENDBRANCH  13  14
ENDBRANCH   9  10
ENDBRANCH   8   9
ENDBRANCH   5   8
BRANCH   6  20
HETATM   20  C14 UNL     1      25.286  -0.289  53.289  1.00  0.00     0.393 C 
HETATM   21  F1  UNL     1      23.945  -0.627  53.032  1.00  0.00    -0.171 F 
HETATM   22  F2  UNL     1      25.989  -1.458  53.120  1.00  0.00    -0.171 F 
HETATM   23  F3  UNL     1      25.275   0.165  54.587  1.00  0.00    -0.171 F 
ENDBRANCH   6  20
BRANCH   1  24
HETATM   24  C2  UNL     1      29.763  -0.549  53.785  1.00  0.00     0.064 C 
HETATM   25  C1  UNL     1      29.580  -1.791  53.384  1.00  0.00     0.017 C 
ENDBRANCH   1  24
TORSDOF 6
ENDMDL
MODEL 2
REMARK VINA RESULT:      -7.2      2.224      2.805
REMARK  6 active torsions:
REMARK  status: ('A' for Active; 'I' for Inactive)
REMARK    1  A    between atoms: C2_2  and  C3_3 
REMARK       I    between atoms: C3_3  and  N1_5 
REMARK    2  A    between atoms: C5_7  and  C6_8 
REMARK    3  A    between atoms: C6_8  and  O2_9 
REMARK    4  A    between atoms: O2_9  and  C7_10 
REMARK    5  A    between atoms: N3_13  and  C9_14 
REMARK    6  A    between atoms: C13_20  and  C14_21 
ROOT
HETATM    1  C3  UNL     1      27.783  -1.375  53.162  1.00  0.00     0.242 C 
HETATM    2  O1  UNL     1      27.179  -2.251  52.495  1.00  0.00    -0.268 OA
HETATM    3  N1  UNL     1      26.843  -0.396  53.536  1.00  0.00    -0.348 N 
HETATM    4  C4  UNL     1      25.473  -0.653  53.067  1.00  0.00     0.133 C 
HETATM    5  C5  UNL     1      24.727   0.604  53.344  1.00  0.00     0.042 C 
HETATM    6  C13 UNL     1      25.790   1.635  53.427  1.00  0.00     0.119 C 
HETATM    7  C15 UNL     1      26.813   0.868  54.289  1.00  0.00     0.140 C 
ENDROOT
BRANCH   5   8
HETATM    8  C6  UNL     1      23.607   0.904  52.424  1.00  0.00     0.185 C 
BRANCH   8   9
HETATM    9  O2  UNL     1      22.969   2.112  52.649  1.00  0.00    -0.320 OA
BRANCH   9  10
HETATM   10  C7  UNL     1      22.669   3.163  51.889  1.00  0.00     0.247 A 
HETATM   11  N2  UNL     1      21.459   3.068  52.334  1.00  0.00    -0.230 NA
HETATM   12  C8  UNL     1      20.993   4.192  51.567  1.00  0.00     0.287 A 
HETATM   13  N3  UNL     1      22.344   4.275  51.086  1.00  0.00    -0.290 N 
BRANCH  13  14
HETATM   14  C9  UNL     1      23.408   4.822  50.310  1.00  0.00     0.075 A 
HETATM   15  C10 UNL     1      24.139   4.662  49.123  1.00  0.00     0.170 A 
HETATM   16  N4  UNL     1      25.046   5.653  49.088  1.00  0.00    -0.183 NA
HETATM   17  N5  UNL     1      24.906   6.393  50.173  1.00  0.00    -0.283 N 
HETATM   18  C11 UNL     1      25.842   7.496  50.229  1.00  0.00     0.179 C 
HETATM   19  C12 UNL     1      23.913   5.939  50.972  1.00  0.00     0.143 A 
ENDBRANCH  13  14
ENDBRANCH   9  10
ENDBRANCH   8   9
ENDBRANCH   5   8
BRANCH   6  20
HETATM   20  C14 UNL     1      26.514   1.968  52.171  1.00  0.00     0.393 C 
HETATM   21  F1  UNL     1      25.892   3.131  51.682  1.00  0.00    -0.171 F 
HETATM   22  F2  UNL     1      27.818   2.333  52.409  1.00  0.00    -0.171 F 
HETATM   23  F3  UNL     1      26.373   1.058  51.150  1.00  0.00    -0.171 F 
ENDBRANCH   6  20
BRANCH   1  24
HETATM   24  C2  UNL     1      29.206  -1.414  53.466  1.00  0.00     0.064 C 
HETATM   25  C1  UNL     1      30.118  -0.464  53.513  1.00  0.00     0.017 C 
ENDBRANCH   1  24
TORSDOF 6
ENDMDL
MODEL 3
REMARK VINA RESULT:      -7.2      3.308      5.795
REMARK  6 active torsions:
REMARK  status: ('A' for Active; 'I' for Inactive)
REMARK    1  A    between atoms: C2_2  and  C3_3 
REMARK       I    between atoms: C3_3  and  N1_5 
REMARK    2  A    between atoms: C5_7  and  C6_8 
REMARK    3  A    between atoms: C6_8  and  O2_9 
REMARK    4  A    between atoms: O2_9  and  C7_10 
REMARK    5  A    between atoms: N3_13  and  C9_14 
REMARK    6  A    between atoms: C13_20  and  C14_21 
ROOT
HETATM    1  C3  UNL     1      25.705   2.418  51.469  1.00  0.00     0.242 C 
HETATM    2  O1  UNL     1      24.734   2.958  52.055  1.00  0.00    -0.268 OA
HETATM    3  N1  UNL     1      25.810   1.096  51.942  1.00  0.00    -0.348 N 
HETATM    4  C4  UNL     1      24.803   0.724  52.947  1.00  0.00     0.133 C 
HETATM    5  C5  UNL     1      25.256  -0.589  53.482  1.00  0.00     0.042 C 
HETATM    6  C13 UNL     1      26.708  -0.613  53.176  1.00  0.00     0.119 C 
HETATM    7  C15 UNL     1      26.665  -0.083  51.729  1.00  0.00     0.140 C 
ENDROOT
BRANCH   5   8
HETATM    8  C6  UNL     1      24.888  -0.872  54.887  1.00  0.00     0.185 C 
BRANCH   8   9
HETATM    9  O2  UNL     1      23.526  -0.934  55.137  1.00  0.00    -0.320 OA
BRANCH   9  10
HETATM   10  C7  UNL     1      22.435  -0.835  54.381  1.00  0.00     0.247 A 
HETATM   11  N2  UNL     1      21.947  -1.823  55.056  1.00  0.00    -0.230 NA
HETATM   12  C8  UNL     1      20.711  -1.832  54.320  1.00  0.00     0.287 A 
HETATM   13  N3  UNL     1      21.277  -0.737  53.583  1.00  0.00    -0.290 N 
BRANCH  13  14
HETATM   14  C9  UNL     1      21.288   0.278  52.582  1.00  0.00     0.075 A 
HETATM   15  C10 UNL     1      21.746   0.588  51.293  1.00  0.00     0.170 A 
HETATM   16  N4  UNL     1      21.314   1.830  51.014  1.00  0.00    -0.183 NA
HETATM   17  N5  UNL     1      20.630   2.282  52.049  1.00  0.00    -0.283 N 
HETATM   18  C11 UNL     1      20.117   3.621  51.847  1.00  0.00     0.179 C 
HETATM   19  C12 UNL     1      20.573   1.377  53.053  1.00  0.00     0.143 A 
ENDBRANCH  13  14
ENDBRANCH   9  10
ENDBRANCH   8   9
ENDBRANCH   5   8
BRANCH   6  20
HETATM   20  C14 UNL     1      27.574   0.344  53.914  1.00  0.00     0.393 C 
HETATM   21  F1  UNL     1      28.276  -0.436  54.850  1.00  0.00    -0.171 F 
HETATM   22  F2  UNL     1      28.543   0.890  53.105  1.00  0.00    -0.171 F 
HETATM   23  F3  UNL     1      26.909   1.272  54.680  1.00  0.00    -0.171 F 
ENDBRANCH   6  20
BRANCH   1  24
HETATM   24  C2  UNL     1      26.540   3.086  50.482  1.00  0.00     0.064 C 
HETATM   25  C1  UNL     1      26.282   4.052  49.626  1.00  0.00     0.017 C 
ENDBRANCH   1  24
TORSDOF 6
ENDMDL
MODEL 4
REMARK VINA RESULT:      -7.1      2.032      2.417
REMARK  6 active torsions:
REMARK  status: ('A' for Active; 'I' for Inactive)
REMARK    1  A    between atoms: C2_2  and  C3_3 
REMARK       I    between atoms: C3_3  and  N1_5 
REMARK    2  A    between atoms: C5_7  and  C6_8 
REMARK    3  A    between atoms: C6_8  and  O2_9 
REMARK    4  A    between atoms: O2_9  and  C7_10 
REMARK    5  A    between atoms: N3_13  and  C9_14 
REMARK    6  A    between atoms: C13_20  and  C14_21 
ROOT
HETATM    1  C3  UNL     1      28.530   1.367  53.308  1.00  0.00     0.242 C 
HETATM    2  O1  UNL     1      28.918   2.561  53.280  1.00  0.00    -0.268 OA
HETATM    3  N1  UNL     1      27.404   1.263  52.468  1.00  0.00    -0.348 N 
HETATM    4  C4  UNL     1      27.009   2.521  51.816  1.00  0.00     0.133 C 
HETATM    5  C5  UNL     1      25.682   2.239  51.205  1.00  0.00     0.042 C 
HETATM    6  C13 UNL     1      25.173   1.081  51.982  1.00  0.00     0.119 C 
HETATM    7  C15 UNL     1      26.457   0.228  52.024  1.00  0.00     0.140 C 
ENDROOT
BRANCH   5   8
HETATM    8  C6  UNL     1      24.765   3.397  51.097  1.00  0.00     0.185 C 
BRANCH   8   9
HETATM    9  O2  UNL     1      25.138   4.356  50.169  1.00  0.00    -0.320 OA
BRANCH   9  10
HETATM   10  C7  UNL     1      25.253   5.682  50.196  1.00  0.00     0.247 A 
HETATM   11  N2  UNL     1      24.159   5.706  50.884  1.00  0.00    -0.230 NA
HETATM   12  C8  UNL     1      24.156   7.141  50.994  1.00  0.00     0.287 A 
HETATM   13  N3  UNL     1      25.369   7.087  50.227  1.00  0.00    -0.290 N 
BRANCH  13  14
HETATM   14  C9  UNL     1      26.497   7.640  49.553  1.00  0.00     0.075 A 
HETATM   15  C10 UNL     1      27.558   7.333  48.688  1.00  0.00     0.170 A 
HETATM   16  N4  UNL     1      28.244   8.473  48.494  1.00  0.00    -0.183 NA
HETATM   17  N5  UNL     1      27.665   9.438  49.185  1.00  0.00    -0.283 N 
HETATM   18  C11 UNL     1      28.331  10.715  49.041  1.00  0.00     0.179 C 
HETATM   19  C12 UNL     1      26.580   8.995  49.863  1.00  0.00     0.143 A 
ENDBRANCH  13  14
ENDBRANCH   9  10
ENDBRANCH   8   9
ENDBRANCH   5   8
BRANCH   6  20
HETATM   20  C14 UNL     1      24.820   1.321  53.407  1.00  0.00     0.393 C 
HETATM   21  F1  UNL     1      23.426   1.149  53.477  1.00  0.00    -0.171 F 
HETATM   22  F2  UNL     1      25.342   0.356  54.235  1.00  0.00    -0.171 F 
HETATM   23  F3  UNL     1      25.024   2.604  53.857  1.00  0.00    -0.171 F 
ENDBRANCH   6  20
BRANCH   1  24
HETATM   24  C2  UNL     1      29.166   0.316  54.088  1.00  0.00     0.064 C 
HETATM   25  C1  UNL     1      29.662  -0.854  53.742  1.00  0.00     0.017 C 
ENDBRANCH   1  24
TORSDOF 6
ENDMDL
MODEL 5
REMARK VINA RESULT:      -7.0      3.162      6.709
REMARK  6 active torsions:
REMARK  status: ('A' for Active; 'I' for Inactive)
REMARK    1  A    between atoms: C2_2  and  C3_3 
REMARK       I    between atoms: C3_3  and  N1_5 
REMARK    2  A    between atoms: C5_7  and  C6_8 
REMARK    3  A    between atoms: C6_8  and  O2_9 
REMARK    4  A    between atoms: O2_9  and  C7_10 
REMARK    5  A    between atoms: N3_13  and  C9_14 
REMARK    6  A    between atoms: C13_20  and  C14_21 
ROOT
HETATM    1  C3  UNL     1      26.819   5.134  49.021  1.00  0.00     0.242 C 
HETATM    2  O1  UNL     1      27.387   4.017  49.107  1.00  0.00    -0.268 OA
HETATM    3  N1  UNL     1      25.669   5.094  49.832  1.00  0.00    -0.348 N 
HETATM    4  C4  UNL     1      25.456   3.815  50.528  1.00  0.00     0.133 C 
HETATM    5  C5  UNL     1      24.085   3.909  51.098  1.00  0.00     0.042 C 
HETATM    6  C13 UNL     1      23.424   4.943  50.264  1.00  0.00     0.119 C 
HETATM    7  C15 UNL     1      24.561   5.984  50.212  1.00  0.00     0.140 C 
ENDROOT
BRANCH   5   8
HETATM    8  C6  UNL     1      23.356   2.628  51.236  1.00  0.00     0.185 C 
BRANCH   8   9
HETATM    9  O2  UNL     1      23.377   2.074  52.506  1.00  0.00    -0.320 OA
BRANCH   9  10
HETATM   10  C7  UNL     1      23.860   0.946  53.022  1.00  0.00     0.247 A 
HETATM   11  N2  UNL     1      22.714   0.405  52.765  1.00  0.00    -0.230 NA
HETATM   12  C8  UNL     1      23.101  -0.877  53.291  1.00  0.00     0.287 A 
HETATM   13  N3  UNL     1      24.365  -0.252  53.568  1.00  0.00    -0.290 N 
BRANCH  13  14
HETATM   14  C9  UNL     1      25.704  -0.206  54.052  1.00  0.00     0.075 A 
HETATM   15  C10 UNL     1      26.505   0.224  55.121  1.00  0.00     0.170 A 
HETATM   16  N4  UNL     1      27.768  -0.128  54.827  1.00  0.00    -0.183 NA
HETATM   17  N5  UNL     1      27.776  -0.738  53.656  1.00  0.00    -0.283 N 
HETATM   18  C11 UNL     1      29.099  -1.161  53.248  1.00  0.00     0.179 C 
HETATM   19  C12 UNL     1      26.537  -0.822  53.120  1.00  0.00     0.143 A 
ENDBRANCH  13  14
ENDBRANCH   9  10
ENDBRANCH   8   9
ENDBRANCH   5   8
BRANCH   6  20
HETATM   20  C14 UNL     1      23.151   4.597  48.843  1.00  0.00     0.393 C 
HETATM   21  F1  UNL     1      21.750   4.593  48.725  1.00  0.00    -0.171 F 
HETATM   22  F2  UNL     1      23.580   5.580  47.982  1.00  0.00    -0.171 F 
HETATM   23  F3  UNL     1      23.524   3.330  48.462  1.00  0.00    -0.171 F 
ENDBRANCH   6  20
BRANCH   1  24
HETATM   24  C2  UNL     1      27.306   6.241  48.211  1.00  0.00     0.064 C 
HETATM   25  C1  UNL     1      28.526   6.643  47.919  1.00  0.00     0.017 C 
ENDBRANCH   1  24
TORSDOF 6
ENDMDL
MODEL 6
REMARK VINA RESULT:      -6.9      2.560      6.383
REMARK  6 active torsions:
REMARK  status: ('A' for Active; 'I' for Inactive)
REMARK    1  A    between atoms: C2_2  and  C3_3 
REMARK       I    between atoms: C3_3  and  N1_5 
REMARK    2  A    between atoms: C5_7  and  C6_8 
REMARK    3  A    between atoms: C6_8  and  O2_9 
REMARK    4  A    between atoms: O2_9  and  C7_10 
REMARK    5  A    between atoms: N3_13  and  C9_14 
REMARK    6  A    between atoms: C13_20  and  C14_21 
ROOT
HETATM    1  C3  UNL     1      25.750   6.391  49.503  1.00  0.00     0.242 C 
HETATM    2  O1  UNL     1      25.727   7.104  50.536  1.00  0.00    -0.268 OA
HETATM    3  N1  UNL     1      24.937   5.265  49.741  1.00  0.00    -0.348 N 
HETATM    4  C4  UNL     1      24.313   5.232  51.072  1.00  0.00     0.133 C 
HETATM    5  C5  UNL     1      23.732   3.867  51.193  1.00  0.00     0.042 C 
HETATM    6  C13 UNL     1      24.507   3.065  50.213  1.00  0.00     0.119 C 
HETATM    7  C15 UNL     1      24.505   4.052  49.029  1.00  0.00     0.140 C 
ENDROOT
BRANCH   5   8
HETATM    8  C6  UNL     1      23.663   3.318  52.566  1.00  0.00     0.185 C 
BRANCH   8   9
HETATM    9  O2  UNL     1      23.204   2.013  52.653  1.00  0.00    -0.320 OA
BRANCH   9  10
HETATM   10  C7  UNL     1      23.718   0.874  53.112  1.00  0.00     0.247 A 
HETATM   11  N2  UNL     1      22.577   0.324  52.861  1.00  0.00    -0.230 NA
HETATM   12  C8  UNL     1      22.998  -0.971  53.325  1.00  0.00     0.287 A 
HETATM   13  N3  UNL     1      24.257  -0.335  53.597  1.00  0.00    -0.290 N 
BRANCH  13  14
HETATM   14  C9  UNL     1      25.607  -0.285  54.051  1.00  0.00     0.075 A 
HETATM   15  C10 UNL     1      26.436   0.184  55.080  1.00  0.00     0.170 A 
HETATM   16  N4  UNL     1      27.688  -0.199  54.777  1.00  0.00    -0.183 NA
HETATM   17  N5  UNL     1      27.663  -0.864  53.637  1.00  0.00    -0.283 N 
HETATM   18  C11 UNL     1      28.971  -1.325  53.222  1.00  0.00     0.179 C 
HETATM   19  C12 UNL     1      26.411  -0.956  53.132  1.00  0.00     0.143 A 
ENDBRANCH  13  14
ENDBRANCH   9  10
ENDBRANCH   8   9
ENDBRANCH   5   8
BRANCH   6  20
HETATM   20  C14 UNL     1      25.944   2.825  50.516  1.00  0.00     0.393 C 
HETATM   21  F1  UNL     1      26.027   1.465  50.864  1.00  0.00    -0.171 F 
HETATM   22  F2  UNL     1      26.733   2.958  49.398  1.00  0.00    -0.171 F 
HETATM   23  F3  UNL     1      26.433   3.486  51.618  1.00  0.00    -0.171 F 
ENDBRANCH   6  20
BRANCH   1  24
HETATM   24  C2  UNL     1      26.499   6.716  48.299  1.00  0.00     0.064 C 
HETATM   25  C1  UNL     1      27.780   6.615  48.010  1.00  0.00     0.017 C 
ENDBRANCH   1  24
TORSDOF 6
ENDMDL
MODEL 7
REMARK VINA RESULT:      -6.8      2.504      3.007
REMARK  6 active torsions:
REMARK  status: ('A' for Active; 'I' for Inactive)
REMARK    1  A    between atoms: C2_2  and  C3_3 
REMARK       I    between atoms: C3_3  and  N1_5 
REMARK    2  A    between atoms: C5_7  and  C6_8 
REMARK    3  A    between atoms: C6_8  and  O2_9 
REMARK    4  A    between atoms: O2_9  and  C7_10 
REMARK    5  A    between atoms: N3_13  and  C9_14 
REMARK    6  A    between atoms: C13_20  and  C14_21 
ROOT
HETATM    1  C3  UNL     1      28.773   1.037  53.725  1.00  0.00     0.242 C 
HETATM    2  O1  UNL     1      28.733   1.998  54.533  1.00  0.00    -0.268 OA
HETATM    3  N1  UNL     1      27.607   1.090  52.937  1.00  0.00    -0.348 N 
HETATM    4  C4  UNL     1      26.702   2.204  53.258  1.00  0.00     0.133 C 
HETATM    5  C5  UNL     1      25.452   1.916  52.505  1.00  0.00     0.042 C 
HETATM    6  C13 UNL     1      25.512   0.453  52.266  1.00  0.00     0.119 C 
HETATM    7  C15 UNL     1      26.988   0.332  51.839  1.00  0.00     0.140 C 
ENDROOT
BRANCH   5   8
HETATM    8  C6  UNL     1      24.202   2.420  53.118  1.00  0.00     0.185 C 
BRANCH   8   9
HETATM    9  O2  UNL     1      23.033   1.943  52.545  1.00  0.00    -0.320 OA
BRANCH   9  10
HETATM   10  C7  UNL     1      22.382   2.195  51.412  1.00  0.00     0.247 A 
HETATM   11  N2  UNL     1      22.164   0.924  51.322  1.00  0.00    -0.230 NA
HETATM   12  C8  UNL     1      21.433   1.047  50.088  1.00  0.00     0.287 A 
HETATM   13  N3  UNL     1      21.691   2.455  50.211  1.00  0.00    -0.290 N 
BRANCH  13  14
HETATM   14  C9  UNL     1      21.629   3.819  49.804  1.00  0.00     0.075 A 
HETATM   15  C10 UNL     1      21.052   5.063  50.103  1.00  0.00     0.170 A 
HETATM   16  N4  UNL     1      21.521   5.938  49.197  1.00  0.00    -0.183 NA
HETATM   17  N5  UNL     1      22.337   5.301  48.377  1.00  0.00    -0.283 N 
HETATM   18  C11 UNL     1      22.900   6.163  47.359  1.00  0.00     0.179 C 
HETATM   19  C12 UNL     1      22.451   3.991  48.692  1.00  0.00     0.143 A 
ENDBRANCH  13  14
ENDBRANCH   9  10
ENDBRANCH   8   9
ENDBRANCH   5   8
BRANCH   6  20
HETATM   20  C14 UNL     1      25.377  -0.435  53.452  1.00  0.00     0.393 C 
HETATM   21  F1  UNL     1      24.069  -0.946  53.386  1.00  0.00    -0.171 F 
HETATM   22  F2  UNL     1      26.196  -1.536  53.365  1.00  0.00    -0.171 F 
HETATM   23  F3  UNL     1      25.430   0.197  54.672  1.00  0.00    -0.171 F 
ENDBRANCH   6  20
BRANCH   1  24
HETATM   24  C2  UNL     1      29.857   0.069  53.658  1.00  0.00     0.064 C 
HETATM   25  C1  UNL     1      29.854  -1.248  53.615  1.00  0.00     0.017 C 
ENDBRANCH   1  24
TORSDOF 6
ENDMDL
MODEL 8
REMARK VINA RESULT:      -6.7      2.095      2.379
REMARK  6 active torsions:
REMARK  status: ('A' for Active; 'I' for Inactive)
REMARK    1  A    between atoms: C2_2  and  C3_3 
REMARK       I    between atoms: C3_3  and  N1_5 
REMARK    2  A    between atoms: C5_7  and  C6_8 
REMARK    3  A    between atoms: C6_8  and  O2_9 
REMARK    4  A    between atoms: O2_9  and  C7_10 
REMARK    5  A    between atoms: N3_13  and  C9_14 
REMARK    6  A    between atoms: C13_20  and  C14_21 
ROOT
HETATM    1  C3  UNL     1      28.691   1.089  53.641  1.00  0.00     0.242 C 
HETATM    2  O1  UNL     1      28.696   2.205  54.217  1.00  0.00    -0.268 OA
HETATM    3  N1  UNL     1      27.496   0.994  52.902  1.00  0.00    -0.348 N 
HETATM    4  C4  UNL     1      26.621   2.173  52.999  1.00  0.00     0.133 C 
HETATM    5  C5  UNL     1      25.338   1.755  52.372  1.00  0.00     0.042 C 
HETATM    6  C13 UNL     1      25.367   0.274  52.461  1.00  0.00     0.119 C 
HETATM    7  C15 UNL     1      26.823   0.027  52.020  1.00  0.00     0.140 C 
ENDROOT
BRANCH   5   8
HETATM    8  C6  UNL     1      24.120   2.410  52.900  1.00  0.00     0.185 C 
BRANCH   8   9
HETATM    9  O2  UNL     1      24.080   3.787  52.747  1.00  0.00    -0.320 OA
BRANCH   9  10
HETATM   10  C7  UNL     1      23.335   4.622  52.027  1.00  0.00     0.247 A 
HETATM   11  N2  UNL     1      22.317   3.886  52.331  1.00  0.00    -0.230 NA
HETATM   12  C8  UNL     1      21.393   4.703  51.590  1.00  0.00     0.287 A 
HETATM   13  N3  UNL     1      22.540   5.503  51.265  1.00  0.00    -0.290 N 
BRANCH  13  14
HETATM   14  C9  UNL     1      23.224   6.590  50.645  1.00  0.00     0.075 A 
HETATM   15  C10 UNL     1      23.946   7.764  50.903  1.00  0.00     0.170 A 
HETATM   16  N4  UNL     1      24.292   8.278  49.710  1.00  0.00    -0.183 NA
HETATM   17  N5  UNL     1      23.825   7.490  48.758  1.00  0.00    -0.283 N 
HETATM   18  C11 UNL     1      24.149   7.958  47.427  1.00  0.00     0.179 C 
HETATM   19  C12 UNL     1      23.156   6.428  49.263  1.00  0.00     0.143 A 
ENDBRANCH  13  14
ENDBRANCH   9  10
ENDBRANCH   8   9
ENDBRANCH   5   8
BRANCH   6  20
HETATM   20  C14 UNL     1      25.265  -0.328  53.817  1.00  0.00     0.393 C 
HETATM   21  F1  UNL     1      26.171  -1.403  53.815  1.00  0.00    -0.171 F 
HETATM   22  F2  UNL     1      25.723   0.525  54.794  1.00  0.00    -0.171 F 
HETATM   23  F3  UNL     1      24.055  -0.908  54.116  1.00  0.00    -0.171 F 
ENDBRANCH   6  20
BRANCH   1  24
HETATM   24  C2  UNL     1      29.756   0.105  53.752  1.00  0.00     0.064 C 
HETATM   25  C1  UNL     1      29.797  -1.179  53.460  1.00  0.00     0.017 C 
ENDBRANCH   1  24
TORSDOF 6
ENDMDL
MODEL 9
REMARK VINA RESULT:      -6.7      3.625      6.615
REMARK  6 active torsions:
REMARK  status: ('A' for Active; 'I' for Inactive)
REMARK    1  A    between atoms: C2_2  and  C3_3 
REMARK       I    between atoms: C3_3  and  N1_5 
REMARK    2  A    between atoms: C5_7  and  C6_8 
REMARK    3  A    between atoms: C6_8  and  O2_9 
REMARK    4  A    between atoms: O2_9  and  C7_10 
REMARK    5  A    between atoms: N3_13  and  C9_14 
REMARK    6  A    between atoms: C13_20  and  C14_21 
ROOT
HETATM    1  C3  UNL     1      18.487   0.747  51.486  1.00  0.00     0.242 C 
HETATM    2  O1  UNL     1      18.317   1.193  50.324  1.00  0.00    -0.268 OA
HETATM    3  N1  UNL     1      19.596   1.414  52.042  1.00  0.00    -0.348 N 
HETATM    4  C4  UNL     1      20.223   2.405  51.154  1.00  0.00     0.133 C 
HETATM    5  C5  UNL     1      21.494   2.782  51.831  1.00  0.00     0.042 C 
HETATM    6  C13 UNL     1      21.771   1.632  52.728  1.00  0.00     0.119 C 
HETATM    7  C15 UNL     1      20.356   1.419  53.302  1.00  0.00     0.140 C 
ENDROOT
BRANCH   5   8
HETATM    8  C6  UNL     1      22.602   3.185  50.937  1.00  0.00     0.185 C 
BRANCH   8   9
HETATM    9  O2  UNL     1      23.825   3.365  51.563  1.00  0.00    -0.320 OA
BRANCH   9  10
HETATM   10  C7  UNL     1      25.059   2.919  51.341  1.00  0.00     0.247 A 
HETATM   11  N2  UNL     1      25.176   3.851  50.454  1.00  0.00    -0.230 NA
HETATM   12  C8  UNL     1      26.523   3.479  50.111  1.00  0.00     0.287 A 
HETATM   13  N3  UNL     1      26.368   2.450  51.101  1.00  0.00    -0.290 N 
BRANCH  13  14
HETATM   14  C9  UNL     1      26.787   1.331  51.877  1.00  0.00     0.075 A 
HETATM   15  C10 UNL     1      26.710  -0.066  51.979  1.00  0.00     0.170 A 
HETATM   16  N4  UNL     1      27.428  -0.418  53.059  1.00  0.00    -0.183 NA
HETATM   17  N5  UNL     1      27.928   0.673  53.609  1.00  0.00    -0.283 N 
HETATM   18  C11 UNL     1      28.726   0.399  54.785  1.00  0.00     0.179 C 
HETATM   19  C12 UNL     1      27.574   1.789  52.932  1.00  0.00     0.143 A 
ENDBRANCH  13  14
ENDBRANCH   9  10
ENDBRANCH   8   9
ENDBRANCH   5   8
BRANCH   6  20
HETATM   20  C14 UNL     1      22.127   0.339  52.085  1.00  0.00     0.393 C 
HETATM   21  F1  UNL     1      23.499   0.164  52.340  1.00  0.00    -0.171 F 
HETATM   22  F2  UNL     1      21.511  -0.727  52.697  1.00  0.00    -0.171 F 
HETATM   23  F3  UNL     1      22.034   0.316  50.713  1.00  0.00    -0.171 F 
ENDBRANCH   6  20
BRANCH   1  24
HETATM   24  C2  UNL     1      17.657  -0.278  52.100  1.00  0.00     0.064 C 
HETATM   25  C1  UNL     1      17.944  -1.250  52.942  1.00  0.00     0.017 C 
ENDBRANCH   1  24
TORSDOF 6
ENDMDL
