MODEL 1
REMARK VINA RESULT:      -7.1      0.000      0.000
REMARK  6 active torsions:
REMARK  status: ('A' for Active; 'I' for Inactive)
REMARK    1  A    between atoms: C2_2  and  C3_3 
REMARK    2  A    between atoms: C12_16  and  O3_17 
REMARK    3  A    between atoms: O3_17  and  C13_18 
REMARK    4  A    between atoms: C13_18  and  C14_19 
REMARK    5  A    between atoms: C14_19  and  O4_20 
REMARK    6  A    between atoms: O4_20  and  C15_21 
ROOT
HETATM    1  C15 UNL     1      29.055  -0.305  54.287  1.00  0.00     0.291 C 
HETATM    2  C16 UNL     1      29.058   1.155  54.378  1.00  0.00     0.085 C 
HETATM    3  N3  UNL     1      29.056   2.306  54.434  1.00  0.00    -0.195 NA
ENDROOT
BRANCH   1   4
HETATM    4  O4  UNL     1      28.756  -0.769  53.008  1.00  0.00    -0.375 OA
BRANCH   4   5
HETATM    5  C14 UNL     1      27.824  -1.784  53.013  1.00  0.00     0.195 C 
BRANCH   5   6
HETATM    6  C13 UNL     1      26.418  -1.219  52.777  1.00  0.00     0.195 C 
BRANCH   6   7
HETATM    7  O3  UNL     1      26.559  -0.102  51.957  1.00  0.00    -0.372 OA
BRANCH   7   8
HETATM    8  C12 UNL     1      25.838   1.106  52.131  1.00  0.00     0.128 C 
HETATM    9  C11 UNL     1      26.813   1.666  51.411  1.00  0.00     0.191 C 
HETATM   10  O2  UNL     1      27.037   2.965  50.995  1.00  0.00    -0.378 OA
HETATM   11  C10 UNL     1      26.439   3.584  49.811  1.00  0.00     0.194 C 
HETATM   12  C9  UNL     1      25.081   3.731  50.308  1.00  0.00     0.194 C 
HETATM   13  O1  UNL     1      23.969   4.247  49.793  1.00  0.00    -0.380 OA
HETATM   14  C7  UNL     1      23.049   3.939  50.835  1.00  0.00     0.159 C 
HETATM   15  C6  UNL     1      23.418   4.441  52.186  1.00  0.00     0.182 C 
HETATM   16  C8  UNL     1      21.625   4.015  50.499  1.00  0.00     0.153 C 
HETATM   17  N1  UNL     1      23.899   3.364  53.095  1.00  0.00    -0.291 NA
HETATM   18  C5  UNL     1      23.677   2.071  52.939  1.00  0.00     0.034 C 
HETATM   19  C4  UNL     1      22.343   1.425  52.698  1.00  0.00     0.056 C 
HETATM   20  C17 UNL     1      24.602   0.926  52.918  1.00  0.00     0.103 C 
HETATM   21  C3  UNL     1      21.202   1.886  52.134  1.00  0.00     0.029 C 
HETATM   22  N2  UNL     1      20.883   3.076  51.369  1.00  0.00    -0.387 N 
HETATM   23  H10 UNL     1      19.866   3.277  51.496  1.00  0.00     0.159 HD
BRANCH  21  24
HETATM   24  C2  UNL     1      20.101   0.962  52.365  1.00  0.00     0.019 C 
HETATM   25  C1  UNL     1      19.409   0.273  51.477  1.00  0.00     0.013 C 
ENDBRANCH  21  24
ENDBRANCH   7   8
ENDBRANCH   6   7
ENDBRANCH   5   6
ENDBRANCH   4   5
ENDBRANCH   1   4
TORSDOF 6
ENDMDL
MODEL 2
REMARK VINA RESULT:      -6.8      2.642      5.028
REMARK  6 active torsions:
REMARK  status: ('A' for Active; 'I' for Inactive)
REMARK    1  A    between atoms: C2_2  and  C3_3 
REMARK    2  A    between atoms: C12_16  and  O3_17 
REMARK    3  A    between atoms: O3_17  and  C13_18 
REMARK    4  A    between atoms: C13_18  and  C14_19 
REMARK    5  A    between atoms: C14_19  and  O4_20 
REMARK    6  A    between atoms: O4_20  and  C15_21 
ROOT
HETATM    1  C15 UNL     1      29.083  -0.228  54.031  1.00  0.00     0.291 C 
HETATM    2  C16 UNL     1      29.296   1.082  54.647  1.00  0.00     0.085 C 
HETATM    3  N3  UNL     1      29.448   2.113  55.139  1.00  0.00    -0.195 NA
ENDROOT
BRANCH   1   4
HETATM    4  O4  UNL     1      27.794  -0.718  54.228  1.00  0.00    -0.375 OA
BRANCH   4   5
HETATM    5  C14 UNL     1      26.852   0.283  54.328  1.00  0.00     0.195 C 
BRANCH   5   6
HETATM    6  C13 UNL     1      26.222   0.562  52.959  1.00  0.00     0.195 C 
BRANCH   6   7
HETATM    7  O3  UNL     1      26.436   1.909  52.677  1.00  0.00    -0.372 OA
BRANCH   7   8
HETATM    8  C12 UNL     1      25.720   2.637  51.694  1.00  0.00     0.128 C 
HETATM    9  C11 UNL     1      24.755   2.720  52.612  1.00  0.00     0.191 C 
HETATM   10  O2  UNL     1      23.502   3.302  52.599  1.00  0.00    -0.378 OA
HETATM   11  C10 UNL     1      23.229   4.718  52.856  1.00  0.00     0.194 C 
HETATM   12  C9  UNL     1      23.753   5.266  51.616  1.00  0.00     0.194 C 
HETATM   13  O1  UNL     1      23.824   6.496  51.118  1.00  0.00    -0.380 OA
HETATM   14  C7  UNL     1      24.546   6.236  49.918  1.00  0.00     0.159 C 
HETATM   15  C6  UNL     1      23.944   5.217  49.016  1.00  0.00     0.182 C 
HETATM   16  C8  UNL     1      25.154   7.390  49.253  1.00  0.00     0.153 C 
HETATM   17  N1  UNL     1      24.672   3.918  49.039  1.00  0.00    -0.291 NA
HETATM   18  C5  UNL     1      25.912   3.740  49.458  1.00  0.00     0.034 C 
HETATM   19  C4  UNL     1      27.113   4.532  49.028  1.00  0.00     0.056 C 
HETATM   20  C17 UNL     1      26.477   2.796  50.436  1.00  0.00     0.103 C 
HETATM   21  C3  UNL     1      27.245   5.798  48.566  1.00  0.00     0.029 C 
HETATM   22  N2  UNL     1      26.343   6.931  48.502  1.00  0.00    -0.387 N 
HETATM   23  H10 UNL     1      26.653   7.545  47.715  1.00  0.00     0.159 HD
BRANCH  21  24
HETATM   24  C2  UNL     1      28.585   6.018  48.041  1.00  0.00     0.019 C 
HETATM   25  C1  UNL     1      29.070   7.099  47.458  1.00  0.00     0.013 C 
ENDBRANCH  21  24
ENDBRANCH   7   8
ENDBRANCH   6   7
ENDBRANCH   5   6
ENDBRANCH   4   5
ENDBRANCH   1   4
TORSDOF 6
ENDMDL
MODEL 3
REMARK VINA RESULT:      -6.7      2.379      3.547
REMARK  6 active torsions:
REMARK  status: ('A' for Active; 'I' for Inactive)
REMARK    1  A    between atoms: C2_2  and  C3_3 
REMARK    2  A    between atoms: C12_16  and  O3_17 
REMARK    3  A    between atoms: O3_17  and  C13_18 
REMARK    4  A    between atoms: C13_18  and  C14_19 
REMARK    5  A    between atoms: C14_19  and  O4_20 
REMARK    6  A    between atoms: O4_20  and  C15_21 
ROOT
HETATM    1  C15 UNL     1      27.922   0.234  53.768  1.00  0.00     0.291 C 
HETATM    2  C16 UNL     1      28.719   1.381  54.202  1.00  0.00     0.085 C 
HETATM    3  N3  UNL     1      29.343   2.282  54.560  1.00  0.00    -0.195 NA
ENDROOT
BRANCH   1   4
HETATM    4  O4  UNL     1      27.207  -0.356  54.808  1.00  0.00    -0.375 OA
BRANCH   4   5
HETATM    5  C14 UNL     1      25.858  -0.080  54.751  1.00  0.00     0.195 C 
BRANCH   5   6
HETATM    6  C13 UNL     1      25.531   0.726  53.488  1.00  0.00     0.195 C 
BRANCH   6   7
HETATM    7  O3  UNL     1      24.436   0.112  52.884  1.00  0.00    -0.372 OA
BRANCH   7   8
HETATM    8  C12 UNL     1      23.179   0.739  52.695  1.00  0.00     0.128 C 
HETATM    9  C11 UNL     1      23.775   1.390  51.694  1.00  0.00     0.191 C 
HETATM   10  O2  UNL     1      23.323   2.343  50.800  1.00  0.00    -0.378 OA
HETATM   11  C10 UNL     1      22.593   2.057  49.564  1.00  0.00     0.194 C 
HETATM   12  C9  UNL     1      21.321   1.668  50.150  1.00  0.00     0.194 C 
HETATM   13  O1  UNL     1      20.152   1.299  49.638  1.00  0.00    -0.380 OA
HETATM   14  C7  UNL     1      19.443   0.993  50.835  1.00  0.00     0.159 C 
HETATM   15  C6  UNL     1      19.380   2.088  51.840  1.00  0.00     0.182 C 
HETATM   16  C8  UNL     1      18.223   0.195  50.690  1.00  0.00     0.153 C 
HETATM   17  N1  UNL     1      20.273   1.855  53.009  1.00  0.00    -0.291 NA
HETATM   18  C5  UNL     1      20.773   0.688  53.373  1.00  0.00     0.034 C 
HETATM   19  C4  UNL     1      19.998  -0.582  53.572  1.00  0.00     0.056 C 
HETATM   20  C17 UNL     1      22.157   0.272  53.653  1.00  0.00     0.103 C 
HETATM   21  C3  UNL     1      18.836  -1.028  53.038  1.00  0.00     0.029 C 
HETATM   22  N2  UNL     1      18.009  -0.571  51.938  1.00  0.00    -0.387 N 
HETATM   23  H10 UNL     1      17.030  -0.887  52.119  1.00  0.00     0.159 HD
BRANCH  21  24
HETATM   24  C2  UNL     1      18.365  -2.212  53.742  1.00  0.00     0.019 C 
HETATM   25  C1  UNL     1      17.302  -2.951  53.483  1.00  0.00     0.013 C 
ENDBRANCH  21  24
ENDBRANCH   7   8
ENDBRANCH   6   7
ENDBRANCH   5   6
ENDBRANCH   4   5
ENDBRANCH   1   4
TORSDOF 6
ENDMDL
MODEL 4
REMARK VINA RESULT:      -6.3      2.073      3.892
REMARK  6 active torsions:
REMARK  status: ('A' for Active; 'I' for Inactive)
REMARK    1  A    between atoms: C2_2  and  C3_3 
REMARK    2  A    between atoms: C12_16  and  O3_17 
REMARK    3  A    between atoms: O3_17  and  C13_18 
REMARK    4  A    between atoms: C13_18  and  C14_19 
REMARK    5  A    between atoms: C14_19  and  O4_20 
REMARK    6  A    between atoms: O4_20  and  C15_21 
ROOT
HETATM    1  C15 UNL     1      29.522  -0.181  53.879  1.00  0.00     0.291 C 
HETATM    2  C16 UNL     1      29.180   1.208  54.182  1.00  0.00     0.085 C 
HETATM    3  N3  UNL     1      28.894   2.298  54.427  1.00  0.00    -0.195 NA
ENDROOT
BRANCH   1   4
HETATM    4  O4  UNL     1      28.446  -1.052  54.031  1.00  0.00    -0.375 OA
BRANCH   4   5
HETATM    5  C14 UNL     1      27.302  -0.415  54.459  1.00  0.00     0.195 C 
BRANCH   5   6
HETATM    6  C13 UNL     1      26.199  -0.528  53.400  1.00  0.00     0.195 C 
BRANCH   6   7
HETATM    7  O3  UNL     1      25.435   0.633  53.480  1.00  0.00    -0.372 OA
BRANCH   7   8
HETATM    8  C12 UNL     1      24.399   0.966  52.571  1.00  0.00     0.128 C 
HETATM    9  C11 UNL     1      23.676   0.059  53.231  1.00  0.00     0.191 C 
HETATM   10  O2  UNL     1      22.380  -0.396  53.072  1.00  0.00    -0.378 OA
HETATM   11  C10 UNL     1      21.186   0.264  53.603  1.00  0.00     0.194 C 
HETATM   12  C9  UNL     1      21.146   1.399  52.696  1.00  0.00     0.194 C 
HETATM   13  O1  UNL     1      20.314   2.425  52.551  1.00  0.00    -0.380 OA
HETATM   14  C7  UNL     1      20.989   3.147  51.526  1.00  0.00     0.159 C 
HETATM   15  C6  UNL     1      21.277   2.380  50.284  1.00  0.00     0.182 C 
HETATM   16  C8  UNL     1      20.585   4.542  51.330  1.00  0.00     0.153 C 
HETATM   17  N1  UNL     1      22.712   2.007  50.151  1.00  0.00    -0.291 NA
HETATM   18  C5  UNL     1      23.717   2.581  50.788  1.00  0.00     0.034 C 
HETATM   19  C4  UNL     1      23.992   4.056  50.861  1.00  0.00     0.056 C 
HETATM   20  C17 UNL     1      24.800   2.007  51.604  1.00  0.00     0.103 C 
HETATM   21  C3  UNL     1      23.178   5.134  50.773  1.00  0.00     0.029 C 
HETATM   22  N2  UNL     1      21.737   5.294  50.785  1.00  0.00    -0.387 N 
HETATM   23  H10 UNL     1      21.507   6.174  50.271  1.00  0.00     0.159 HD
BRANCH  21  24
HETATM   24  C2  UNL     1      23.956   6.359  50.646  1.00  0.00     0.019 C 
HETATM   25  C1  UNL     1      23.521   7.604  50.602  1.00  0.00     0.013 C 
ENDBRANCH  21  24
ENDBRANCH   7   8
ENDBRANCH   6   7
ENDBRANCH   5   6
ENDBRANCH   4   5
ENDBRANCH   1   4
TORSDOF 6
ENDMDL
MODEL 5
REMARK VINA RESULT:      -5.9      8.414     10.968
REMARK  6 active torsions:
REMARK  status: ('A' for Active; 'I' for Inactive)
REMARK    1  A    between atoms: C2_2  and  C3_3 
REMARK    2  A    between atoms: C12_16  and  O3_17 
REMARK    3  A    between atoms: O3_17  and  C13_18 
REMARK    4  A    between atoms: C13_18  and  C14_19 
REMARK    5  A    between atoms: C14_19  and  O4_20 
REMARK    6  A    between atoms: O4_20  and  C15_21 
ROOT
HETATM    1  C15 UNL     1      33.249   4.033  41.127  1.00  0.00     0.291 C 
HETATM    2  C16 UNL     1      32.008   4.079  40.354  1.00  0.00     0.085 C 
HETATM    3  N3  UNL     1      31.023   4.125  39.757  1.00  0.00    -0.195 NA
ENDROOT
BRANCH   1   4
HETATM    4  O4  UNL     1      33.153   4.695  42.349  1.00  0.00    -0.375 OA
BRANCH   4   5
HETATM    5  C14 UNL     1      34.379   4.888  42.948  1.00  0.00     0.195 C 
BRANCH   5   6
HETATM    6  C13 UNL     1      34.259   4.739  44.469  1.00  0.00     0.195 C 
BRANCH   6   7
HETATM    7  O3  UNL     1      33.074   5.364  44.849  1.00  0.00    -0.372 OA
BRANCH   7   8
HETATM    8  C12 UNL     1      32.843   5.911  46.136  1.00  0.00     0.128 C 
HETATM    9  C11 UNL     1      33.764   6.816  45.799  1.00  0.00     0.191 C 
HETATM   10  O2  UNL     1      34.303   7.895  46.476  1.00  0.00    -0.378 OA
HETATM   11  C10 UNL     1      33.696   9.225  46.557  1.00  0.00     0.194 C 
HETATM   12  C9  UNL     1      32.603   8.906  47.463  1.00  0.00     0.194 C 
HETATM   13  O1  UNL     1      31.637   9.629  48.019  1.00  0.00    -0.380 OA
HETATM   14  C7  UNL     1      30.917   8.601  48.693  1.00  0.00     0.159 C 
HETATM   15  C6  UNL     1      31.717   7.772  49.636  1.00  0.00     0.182 C 
HETATM   16  C8  UNL     1      29.559   8.929  49.133  1.00  0.00     0.153 C 
HETATM   17  N1  UNL     1      32.006   6.410  49.109  1.00  0.00    -0.291 NA
HETATM   18  C5  UNL     1      31.347   5.806  48.137  1.00  0.00     0.034 C 
HETATM   19  C4  UNL     1      29.857   5.644  48.046  1.00  0.00     0.056 C 
HETATM   20  C17 UNL     1      31.820   5.167  46.898  1.00  0.00     0.103 C 
HETATM   21  C3  UNL     1      28.834   6.377  48.547  1.00  0.00     0.029 C 
HETATM   22  N2  UNL     1      28.761   7.683  49.171  1.00  0.00    -0.387 N 
HETATM   23  H10 UNL     1      27.919   7.698  49.789  1.00  0.00     0.159 HD
BRANCH  21  24
HETATM   24  C2  UNL     1      27.571   5.667  48.402  1.00  0.00     0.019 C 
HETATM   25  C1  UNL     1      27.229   4.492  48.896  1.00  0.00     0.013 C 
ENDBRANCH  21  24
ENDBRANCH   7   8
ENDBRANCH   6   7
ENDBRANCH   5   6
ENDBRANCH   4   5
ENDBRANCH   1   4
TORSDOF 6
ENDMDL
MODEL 6
REMARK VINA RESULT:      -5.8      6.672     10.407
REMARK  6 active torsions:
REMARK  status: ('A' for Active; 'I' for Inactive)
REMARK    1  A    between atoms: C2_2  and  C3_3 
REMARK    2  A    between atoms: C12_16  and  O3_17 
REMARK    3  A    between atoms: O3_17  and  C13_18 
REMARK    4  A    between atoms: C13_18  and  C14_19 
REMARK    5  A    between atoms: C14_19  and  O4_20 
REMARK    6  A    between atoms: O4_20  and  C15_21 
ROOT
HETATM    1  C15 UNL     1      25.445   7.373  49.516  1.00  0.00     0.291 C 
HETATM    2  C16 UNL     1      26.272   8.473  50.009  1.00  0.00     0.085 C 
HETATM    3  N3  UNL     1      26.936   9.336  50.387  1.00  0.00    -0.195 NA
ENDROOT
BRANCH   1   4
HETATM    4  O4  UNL     1      26.073   6.622  48.524  1.00  0.00    -0.375 OA
BRANCH   4   5
HETATM    5  C14 UNL     1      26.402   5.352  48.946  1.00  0.00     0.195 C 
BRANCH   5   6
HETATM    6  C13 UNL     1      27.858   5.032  48.589  1.00  0.00     0.195 C 
BRANCH   6   7
HETATM    7  O3  UNL     1      28.536   6.247  48.511  1.00  0.00    -0.372 OA
BRANCH   7   8
HETATM    8  C12 UNL     1      29.831   6.398  47.953  1.00  0.00     0.128 C 
HETATM    9  C11 UNL     1      29.730   7.672  48.338  1.00  0.00     0.191 C 
HETATM   10  O2  UNL     1      30.585   8.753  48.222  1.00  0.00    -0.378 OA
HETATM   11  C10 UNL     1      31.693   9.049  49.132  1.00  0.00     0.194 C 
HETATM   12  C9  UNL     1      32.600   7.991  48.717  1.00  0.00     0.194 C 
HETATM   13  O1  UNL     1      33.830   7.645  49.083  1.00  0.00    -0.380 OA
HETATM   14  C7  UNL     1      33.997   6.465  48.303  1.00  0.00     0.159 C 
HETATM   15  C6  UNL     1      33.791   6.632  46.839  1.00  0.00     0.182 C 
HETATM   16  C8  UNL     1      35.088   5.569  48.692  1.00  0.00     0.153 C 
HETATM   17  N1  UNL     1      32.504   6.054  46.364  1.00  0.00    -0.291 NA
HETATM   18  C5  UNL     1      31.782   5.154  47.007  1.00  0.00     0.034 C 
HETATM   19  C4  UNL     1      32.284   3.855  47.569  1.00  0.00     0.056 C 
HETATM   20  C17 UNL     1      30.359   5.143  47.384  1.00  0.00     0.103 C 
HETATM   21  C3  UNL     1      33.507   3.469  48.004  1.00  0.00     0.029 C 
HETATM   22  N2  UNL     1      34.732   4.190  48.292  1.00  0.00    -0.387 N 
HETATM   23  H10 UNL     1      35.531   3.526  48.175  1.00  0.00     0.159 HD
BRANCH  21  24
HETATM   24  C2  UNL     1      33.549   2.029  48.216  1.00  0.00     0.019 C 
HETATM   25  C1  UNL     1      32.710   1.111  47.775  1.00  0.00     0.013 C 
ENDBRANCH  21  24
ENDBRANCH   7   8
ENDBRANCH   6   7
ENDBRANCH   5   6
ENDBRANCH   4   5
ENDBRANCH   1   4
TORSDOF 6
ENDMDL
MODEL 7
REMARK VINA RESULT:      -5.8      2.987      5.901
REMARK  6 active torsions:
REMARK  status: ('A' for Active; 'I' for Inactive)
REMARK    1  A    between atoms: C2_2  and  C3_3 
REMARK    2  A    between atoms: C12_16  and  O3_17 
REMARK    3  A    between atoms: O3_17  and  C13_18 
REMARK    4  A    between atoms: C13_18  and  C14_19 
REMARK    5  A    between atoms: C14_19  and  O4_20 
REMARK    6  A    between atoms: O4_20  and  C15_21 
ROOT
HETATM    1  C15 UNL     1      24.569   6.346  48.625  1.00  0.00     0.291 C 
HETATM    2  C16 UNL     1      25.340   7.574  48.439  1.00  0.00     0.085 C 
HETATM    3  N3  UNL     1      25.958   8.539  48.306  1.00  0.00    -0.195 NA
ENDROOT
BRANCH   1   4
HETATM    4  O4  UNL     1      24.949   5.632  49.758  1.00  0.00    -0.375 OA
BRANCH   4   5
HETATM    5  C14 UNL     1      24.002   5.676  50.759  1.00  0.00     0.195 C 
BRANCH   5   6
HETATM    6  C13 UNL     1      24.200   4.509  51.734  1.00  0.00     0.195 C 
BRANCH   6   7
HETATM    7  O3  UNL     1      24.563   3.399  50.975  1.00  0.00    -0.372 OA
BRANCH   7   8
HETATM    8  C12 UNL     1      25.070   2.194  51.523  1.00  0.00     0.128 C 
HETATM    9  C11 UNL     1      26.243   2.832  51.560  1.00  0.00     0.191 C 
HETATM   10  O2  UNL     1      27.503   2.444  51.977  1.00  0.00    -0.378 OA
HETATM   11  C10 UNL     1      27.973   2.466  53.364  1.00  0.00     0.194 C 
HETATM   12  C9  UNL     1      27.205   1.339  53.869  1.00  0.00     0.194 C 
HETATM   13  O1  UNL     1      27.132   0.739  55.052  1.00  0.00    -0.380 OA
HETATM   14  C7  UNL     1      26.103  -0.209  54.785  1.00  0.00     0.159 C 
HETATM   15  C6  UNL     1      26.347  -1.110  53.627  1.00  0.00     0.182 C 
HETATM   16  C8  UNL     1      25.463  -0.829  55.947  1.00  0.00     0.153 C 
HETATM   17  N1  UNL     1      25.523  -0.763  52.437  1.00  0.00    -0.291 NA
HETATM   18  C5  UNL     1      24.421  -0.034  52.451  1.00  0.00     0.034 C 
HETATM   19  C4  UNL     1      23.236  -0.242  53.349  1.00  0.00     0.056 C 
HETATM   20  C17 UNL     1      24.035   1.152  51.671  1.00  0.00     0.103 C 
HETATM   21  C3  UNL     1      23.117  -0.796  54.578  1.00  0.00     0.029 C 
HETATM   22  N2  UNL     1      24.081  -1.208  55.580  1.00  0.00    -0.387 N 
HETATM   23  H10 UNL     1      23.642  -1.957  56.160  1.00  0.00     0.159 HD
BRANCH  21  24
HETATM   24  C2  UNL     1      21.716  -0.996  54.921  1.00  0.00     0.019 C 
HETATM   25  C1  UNL     1      20.757  -1.518  54.180  1.00  0.00     0.013 C 
ENDBRANCH  21  24
ENDBRANCH   7   8
ENDBRANCH   6   7
ENDBRANCH   5   6
ENDBRANCH   4   5
ENDBRANCH   1   4
TORSDOF 6
ENDMDL
MODEL 8
REMARK VINA RESULT:      -5.7      3.532      6.293
REMARK  6 active torsions:
REMARK  status: ('A' for Active; 'I' for Inactive)
REMARK    1  A    between atoms: C2_2  and  C3_3 
REMARK    2  A    between atoms: C12_16  and  O3_17 
REMARK    3  A    between atoms: O3_17  and  C13_18 
REMARK    4  A    between atoms: C13_18  and  C14_19 
REMARK    5  A    between atoms: C14_19  and  O4_20 
REMARK    6  A    between atoms: O4_20  and  C15_21 
ROOT
HETATM    1  C15 UNL     1      20.112  -0.013  53.505  1.00  0.00     0.291 C 
HETATM    2  C16 UNL     1      20.929  -0.954  54.270  1.00  0.00     0.085 C 
HETATM    3  N3  UNL     1      21.562  -1.707  54.871  1.00  0.00    -0.195 NA
ENDROOT
BRANCH   1   4
HETATM    4  O4  UNL     1      18.871  -0.537  53.149  1.00  0.00    -0.375 OA
BRANCH   4   5
HETATM    5  C14 UNL     1      18.186   0.269  52.265  1.00  0.00     0.195 C 
BRANCH   5   6
HETATM    6  C13 UNL     1      18.445  -0.180  50.822  1.00  0.00     0.195 C 
BRANCH   6   7
HETATM    7  O3  UNL     1      18.550   0.972  50.047  1.00  0.00    -0.372 OA
BRANCH   7   8
HETATM    8  C12 UNL     1      19.747   1.714  49.886  1.00  0.00     0.128 C 
HETATM    9  C11 UNL     1      18.945   2.733  49.566  1.00  0.00     0.191 C 
HETATM   10  O2  UNL     1      19.200   4.041  49.200  1.00  0.00    -0.378 OA
HETATM   11  C10 UNL     1      19.456   5.141  50.132  1.00  0.00     0.194 C 
HETATM   12  C9  UNL     1      20.792   4.755  50.557  1.00  0.00     0.194 C 
HETATM   13  O1  UNL     1      21.682   5.298  51.381  1.00  0.00    -0.380 OA
HETATM   14  C7  UNL     1      22.694   4.296  51.347  1.00  0.00     0.159 C 
HETATM   15  C6  UNL     1      23.207   3.949  49.994  1.00  0.00     0.182 C 
HETATM   16  C8  UNL     1      23.697   4.338  52.414  1.00  0.00     0.153 C 
HETATM   17  N1  UNL     1      22.713   2.633  49.505  1.00  0.00    -0.291 NA
HETATM   18  C5  UNL     1      22.218   1.669  50.261  1.00  0.00     0.034 C 
HETATM   19  C4  UNL     1      22.856   1.097  51.494  1.00  0.00     0.056 C 
HETATM   20  C17 UNL     1      20.957   0.917  50.168  1.00  0.00     0.103 C 
HETATM   21  C3  UNL     1      23.723   1.621  52.392  1.00  0.00     0.029 C 
HETATM   22  N2  UNL     1      24.204   2.966  52.640  1.00  0.00    -0.387 N 
HETATM   23  H10 UNL     1      25.143   2.894  53.091  1.00  0.00     0.159 HD
BRANCH  21  24
HETATM   24  C2  UNL     1      24.247   0.585  53.270  1.00  0.00     0.019 C 
HETATM   25  C1  UNL     1      25.507   0.317  53.561  1.00  0.00     0.013 C 
ENDBRANCH  21  24
ENDBRANCH   7   8
ENDBRANCH   6   7
ENDBRANCH   5   6
ENDBRANCH   4   5
ENDBRANCH   1   4
TORSDOF 6
ENDMDL
MODEL 9
REMARK VINA RESULT:      -5.6      2.859      5.083
REMARK  6 active torsions:
REMARK  status: ('A' for Active; 'I' for Inactive)
REMARK    1  A    between atoms: C2_2  and  C3_3 
REMARK    2  A    between atoms: C12_16  and  O3_17 
REMARK    3  A    between atoms: O3_17  and  C13_18 
REMARK    4  A    between atoms: C13_18  and  C14_19 
REMARK    5  A    between atoms: C14_19  and  O4_20 
REMARK    6  A    between atoms: O4_20  and  C15_21 
ROOT
HETATM    1  C15 UNL     1      25.111  -0.530  54.543  1.00  0.00     0.291 C 
HETATM    2  C16 UNL     1      23.775  -0.778  54.002  1.00  0.00     0.085 C 
HETATM    3  N3  UNL     1      22.729  -0.981  53.563  1.00  0.00    -0.195 NA
ENDROOT
BRANCH   1   4
HETATM    4  O4  UNL     1      26.129  -0.945  53.687  1.00  0.00    -0.375 OA
BRANCH   4   5
HETATM    5  C14 UNL     1      26.926   0.096  53.262  1.00  0.00     0.195 C 
BRANCH   5   6
HETATM    6  C13 UNL     1      26.580   0.479  51.819  1.00  0.00     0.195 C 
BRANCH   6   7
HETATM    7  O3  UNL     1      26.533   1.870  51.765  1.00  0.00    -0.372 OA
BRANCH   7   8
HETATM    8  C12 UNL     1      25.576   2.603  51.019  1.00  0.00     0.128 C 
HETATM    9  C11 UNL     1      24.676   1.799  51.588  1.00  0.00     0.191 C 
HETATM   10  O2  UNL     1      23.300   1.711  51.476  1.00  0.00    -0.378 OA
HETATM   11  C10 UNL     1      22.343   2.538  52.213  1.00  0.00     0.194 C 
HETATM   12  C9  UNL     1      22.553   3.792  51.507  1.00  0.00     0.194 C 
HETATM   13  O1  UNL     1      22.007   4.999  51.605  1.00  0.00    -0.380 OA
HETATM   14  C7  UNL     1      22.797   5.705  50.653  1.00  0.00     0.159 C 
HETATM   15  C6  UNL     1      22.819   5.125  49.282  1.00  0.00     0.182 C 
HETATM   16  C8  UNL     1      22.757   7.168  50.721  1.00  0.00     0.153 C 
HETATM   17  N1  UNL     1      24.102   4.442  48.962  1.00  0.00    -0.291 NA
HETATM   18  C5  UNL     1      25.250   4.628  49.589  1.00  0.00     0.034 C 
HETATM   19  C4  UNL     1      25.898   5.952  49.873  1.00  0.00     0.056 C 
HETATM   20  C17 UNL     1      26.185   3.670  50.201  1.00  0.00     0.103 C 
HETATM   21  C3  UNL     1      25.386   7.195  50.034  1.00  0.00     0.029 C 
HETATM   22  N2  UNL     1      24.037   7.700  50.202  1.00  0.00    -0.387 N 
HETATM   23  H10 UNL     1      24.017   8.686  49.859  1.00  0.00     0.159 HD
BRANCH  21  24
HETATM   24  C2  UNL     1      26.445   8.194  50.036  1.00  0.00     0.019 C 
HETATM   25  C1  UNL     1      26.830   8.983  49.050  1.00  0.00     0.013 C 
ENDBRANCH  21  24
ENDBRANCH   7   8
ENDBRANCH   6   7
ENDBRANCH   5   6
ENDBRANCH   4   5
ENDBRANCH   1   4
TORSDOF 6
ENDMDL
