MODEL 1
REMARK VINA RESULT:      -7.7      0.000      0.000
REMARK  5 active torsions:
REMARK  status: ('A' for Active; 'I' for Inactive)
REMARK    1  A    between atoms: N1_2  and  C2_3 
REMARK    2  A    between atoms: N1_2  and  C12_16 
REMARK    3  A    between atoms: C2_3  and  O1_4 
REMARK    4  A    between atoms: O1_4  and  C3_5 
REMARK    5  A    between atoms: C5_7  and  O2_8 
ROOT
HETATM    1  C3  UNL     1      26.791   0.417  53.226  1.00  0.00     0.076 C 
HETATM    2  C4  UNL     1      26.769  -0.929  52.935  1.00  0.00     0.043 C 
HETATM    3  C5  UNL     1      27.390  -2.327  52.996  1.00  0.00     0.166 C 
HETATM    4  C6  UNL     1      28.919  -2.164  53.035  1.00  0.00     0.009 C 
HETATM    5  C7  UNL     1      29.548  -0.978  53.438  1.00  0.00     0.011 C 
HETATM    6  C8  UNL     1      28.916   0.223  54.140  1.00  0.00    -0.021 C 
HETATM    7  C9  UNL     1      28.127   0.239  55.267  1.00  0.00     0.019 C 
HETATM    8  C10 UNL     1      27.236   1.091  54.441  1.00  0.00     0.187 C 
HETATM    9  N2  UNL     1      28.277   2.169  54.245  1.00  0.00    -0.285 NA
HETATM   10  C11 UNL     1      29.079   1.546  53.396  1.00  0.00     0.122 C 
ENDROOT
BRANCH   1  11
HETATM   11  O1  UNL     1      26.295   1.065  52.128  1.00  0.00    -0.334 OA
BRANCH  11  12
HETATM   12  C2  UNL     1      25.006   1.208  51.665  1.00  0.00     0.300 C 
BRANCH  12  13
HETATM   13  N1  UNL     1      24.053   1.593  52.693  1.00  0.00    -0.363 N 
HETATM   14  C1  UNL     1      24.252   2.961  53.183  1.00  0.00     0.152 C 
BRANCH  13  15
HETATM   15  C12 UNL     1      23.010   0.791  53.224  1.00  0.00     0.031 A 
HETATM   16  C13 UNL     1      21.662   1.052  53.111  1.00  0.00     0.029 A 
HETATM   17  C14 UNL     1      20.664   0.259  53.631  1.00  0.00     0.002 A 
HETATM   18  C15 UNL     1      21.029  -0.872  54.311  1.00  0.00     0.000 A 
HETATM   19  C16 UNL     1      22.351  -1.166  54.444  1.00  0.00     0.002 A 
HETATM   20  C17 UNL     1      23.338  -0.353  53.913  1.00  0.00     0.029 A 
ENDBRANCH  13  15
ENDBRANCH  12  13
ENDBRANCH  11  12
ENDBRANCH   1  11
BRANCH   3  21
HETATM   21  O2  UNL     1      27.059  -3.034  51.887  1.00  0.00    -0.388 OA
HETATM   22  H8  UNL     1      27.696  -2.881  51.122  1.00  0.00     0.210 HD
ENDBRANCH   3  21
TORSDOF 5
ENDMDL
MODEL 2
REMARK VINA RESULT:      -7.7      1.851      6.038
REMARK  5 active torsions:
REMARK  status: ('A' for Active; 'I' for Inactive)
REMARK    1  A    between atoms: N1_2  and  C2_3 
REMARK    2  A    between atoms: N1_2  and  C12_16 
REMARK    3  A    between atoms: C2_3  and  O1_4 
REMARK    4  A    between atoms: O1_4  and  C3_5 
REMARK    5  A    between atoms: C5_7  and  O2_8 
ROOT
HETATM    1  C3  UNL     1      23.413   0.819  52.897  1.00  0.00     0.076 C 
HETATM    2  C4  UNL     1      23.336  -0.235  53.780  1.00  0.00     0.043 C 
HETATM    3  C5  UNL     1      22.544  -1.327  54.502  1.00  0.00     0.166 C 
HETATM    4  C6  UNL     1      21.099  -0.828  54.672  1.00  0.00     0.009 C 
HETATM    5  C7  UNL     1      20.546   0.186  53.879  1.00  0.00     0.011 C 
HETATM    6  C8  UNL     1      21.113   0.779  52.590  1.00  0.00    -0.021 C 
HETATM    7  C9  UNL     1      21.557   0.120  51.466  1.00  0.00     0.019 C 
HETATM    8  C10 UNL     1      22.744   0.997  51.612  1.00  0.00     0.187 C 
HETATM    9  N2  UNL     1      21.950   2.273  51.461  1.00  0.00    -0.285 NA
HETATM   10  C11 UNL     1      21.337   2.288  52.635  1.00  0.00     0.122 C 
ENDROOT
BRANCH   1  11
HETATM   11  O1  UNL     1      24.274   1.730  53.445  1.00  0.00    -0.334 OA
BRANCH  11  12
HETATM   12  C2  UNL     1      25.097   2.666  52.861  1.00  0.00     0.300 C 
BRANCH  12  13
HETATM   13  N1  UNL     1      26.226   2.091  52.147  1.00  0.00    -0.363 N 
HETATM   14  C1  UNL     1      26.346   2.576  50.769  1.00  0.00     0.152 C 
BRANCH  13  15
HETATM   15  C12 UNL     1      27.161   1.153  52.656  1.00  0.00     0.031 A 
HETATM   16  C13 UNL     1      27.055  -0.216  52.558  1.00  0.00     0.029 A 
HETATM   17  C14 UNL     1      27.976  -1.111  53.057  1.00  0.00     0.002 A 
HETATM   18  C15 UNL     1      29.077  -0.611  53.698  1.00  0.00     0.000 A 
HETATM   19  C16 UNL     1      29.219   0.736  53.816  1.00  0.00     0.002 A 
HETATM   20  C17 UNL     1      28.280   1.618  53.308  1.00  0.00     0.029 A 
ENDBRANCH  13  15
ENDBRANCH  12  13
ENDBRANCH  11  12
ENDBRANCH   1  11
BRANCH   3  21
HETATM   21  O2  UNL     1      23.070  -1.551  55.732  1.00  0.00    -0.388 OA
HETATM   22  H8  UNL     1      22.981  -2.510  56.027  1.00  0.00     0.210 HD
ENDBRANCH   3  21
TORSDOF 5
ENDMDL
MODEL 3
REMARK VINA RESULT:      -7.6      2.787      5.104
REMARK  5 active torsions:
REMARK  status: ('A' for Active; 'I' for Inactive)
REMARK    1  A    between atoms: N1_2  and  C2_3 
REMARK    2  A    between atoms: N1_2  and  C12_16 
REMARK    3  A    between atoms: C2_3  and  O1_4 
REMARK    4  A    between atoms: O1_4  and  C3_5 
REMARK    5  A    between atoms: C5_7  and  O2_8 
ROOT
HETATM    1  C3  UNL     1      26.014   1.501  52.806  1.00  0.00     0.076 C 
HETATM    2  C4  UNL     1      27.317   1.945  52.841  1.00  0.00     0.043 C 
HETATM    3  C5  UNL     1      28.803   1.728  53.142  1.00  0.00     0.166 C 
HETATM    4  C6  UNL     1      28.907   0.732  54.310  1.00  0.00     0.009 C 
HETATM    5  C7  UNL     1      27.872  -0.147  54.656  1.00  0.00     0.011 C 
HETATM    6  C8  UNL     1      26.622  -0.484  53.845  1.00  0.00    -0.021 C 
HETATM    7  C9  UNL     1      26.533  -0.872  52.528  1.00  0.00     0.019 C 
HETATM    8  C10 UNL     1      25.496   0.185  52.448  1.00  0.00     0.187 C 
HETATM    9  N2  UNL     1      24.603  -0.468  53.478  1.00  0.00    -0.285 NA
HETATM   10  C11 UNL     1      25.307  -0.210  54.570  1.00  0.00     0.122 C 
ENDROOT
BRANCH   1  11
HETATM   11  O1  UNL     1      25.229   2.558  53.182  1.00  0.00    -0.334 OA
BRANCH  11  12
HETATM   12  C2  UNL     1      24.166   3.166  52.553  1.00  0.00     0.300 C 
BRANCH  12  13
HETATM   13  N1  UNL     1      24.289   3.212  51.105  1.00  0.00    -0.363 N 
HETATM   14  C1  UNL     1      23.393   2.274  50.420  1.00  0.00     0.152 C 
BRANCH  13  15
HETATM   15  C12 UNL     1      25.159   4.044  50.354  1.00  0.00     0.031 A 
HETATM   16  C13 UNL     1      25.026   5.406  50.197  1.00  0.00     0.029 A 
HETATM   17  C14 UNL     1      25.884   6.197  49.466  1.00  0.00     0.002 A 
HETATM   18  C15 UNL     1      26.947   5.595  48.848  1.00  0.00     0.000 A 
HETATM   19  C16 UNL     1      27.113   4.251  48.979  1.00  0.00     0.002 A 
HETATM   20  C17 UNL     1      26.238   3.474  49.718  1.00  0.00     0.029 A 
ENDBRANCH  13  15
ENDBRANCH  12  13
ENDBRANCH  11  12
ENDBRANCH   1  11
BRANCH   3  21
HETATM   21  O2  UNL     1      29.378   2.896  53.518  1.00  0.00    -0.388 OA
HETATM   22  H8  UNL     1      28.834   3.702  53.256  1.00  0.00     0.210 HD
ENDBRANCH   3  21
TORSDOF 5
ENDMDL
MODEL 4
REMARK VINA RESULT:      -7.3      2.113      3.661
REMARK  5 active torsions:
REMARK  status: ('A' for Active; 'I' for Inactive)
REMARK    1  A    between atoms: N1_2  and  C2_3 
REMARK    2  A    between atoms: N1_2  and  C12_16 
REMARK    3  A    between atoms: C2_3  and  O1_4 
REMARK    4  A    between atoms: O1_4  and  C3_5 
REMARK    5  A    between atoms: C5_7  and  O2_8 
ROOT
HETATM    1  C3  UNL     1      25.144   0.447  52.829  1.00  0.00     0.076 C 
HETATM    2  C4  UNL     1      25.689   1.425  52.027  1.00  0.00     0.043 C 
HETATM    3  C5  UNL     1      26.884   2.241  51.527  1.00  0.00     0.166 C 
HETATM    4  C6  UNL     1      27.895   2.352  52.681  1.00  0.00     0.009 C 
HETATM    5  C7  UNL     1      27.916   1.463  53.763  1.00  0.00     0.011 C 
HETATM    6  C8  UNL     1      27.183   0.128  53.891  1.00  0.00    -0.021 C 
HETATM    7  C9  UNL     1      27.160  -0.925  53.005  1.00  0.00     0.019 C 
HETATM    8  C10 UNL     1      25.692  -0.854  53.199  1.00  0.00     0.187 C 
HETATM    9  N2  UNL     1      25.770  -1.130  54.683  1.00  0.00    -0.285 NA
HETATM   10  C11 UNL     1      26.251   0.032  55.096  1.00  0.00     0.122 C 
ENDROOT
BRANCH   1  11
HETATM   11  O1  UNL     1      23.928   0.914  53.248  1.00  0.00    -0.334 OA
BRANCH  11  12
HETATM   12  C2  UNL     1      22.704   0.948  52.619  1.00  0.00     0.300 C 
BRANCH  12  13
HETATM   13  N1  UNL     1      21.689   0.129  53.263  1.00  0.00    -0.363 N 
HETATM   14  C1  UNL     1      22.153  -0.491  54.508  1.00  0.00     0.152 C 
BRANCH  13  15
HETATM   15  C12 UNL     1      20.366  -0.099  52.803  1.00  0.00     0.031 A 
HETATM   16  C13 UNL     1      19.408  -0.840  53.457  1.00  0.00     0.029 A 
HETATM   17  C14 UNL     1      18.127  -1.047  52.994  1.00  0.00     0.002 A 
HETATM   18  C15 UNL     1      17.774  -0.478  51.800  1.00  0.00     0.000 A 
HETATM   19  C16 UNL     1      18.693   0.262  51.123  1.00  0.00     0.002 A 
HETATM   20  C17 UNL     1      19.975   0.457  51.606  1.00  0.00     0.029 A 
ENDBRANCH  13  15
ENDBRANCH  12  13
ENDBRANCH  11  12
ENDBRANCH   1  11
BRANCH   3  21
HETATM   21  O2  UNL     1      26.485   3.490  51.182  1.00  0.00    -0.388 OA
HETATM   22  H8  UNL     1      27.221   4.033  50.761  1.00  0.00     0.210 HD
ENDBRANCH   3  21
TORSDOF 5
ENDMDL
MODEL 5
REMARK VINA RESULT:      -7.0      3.676      6.016
REMARK  5 active torsions:
REMARK  status: ('A' for Active; 'I' for Inactive)
REMARK    1  A    between atoms: N1_2  and  C2_3 
REMARK    2  A    between atoms: N1_2  and  C12_16 
REMARK    3  A    between atoms: C2_3  and  O1_4 
REMARK    4  A    between atoms: O1_4  and  C3_5 
REMARK    5  A    between atoms: C5_7  and  O2_8 
ROOT
HETATM    1  C3  UNL     1      24.656   2.187  51.892  1.00  0.00     0.076 C 
HETATM    2  C4  UNL     1      23.517   1.602  52.399  1.00  0.00     0.043 C 
HETATM    3  C5  UNL     1      22.819   0.594  53.315  1.00  0.00     0.166 C 
HETATM    4  C6  UNL     1      23.746  -0.624  53.470  1.00  0.00     0.009 C 
HETATM    5  C7  UNL     1      25.124  -0.567  53.228  1.00  0.00     0.011 C 
HETATM    6  C8  UNL     1      25.991   0.678  53.046  1.00  0.00    -0.021 C 
HETATM    7  C9  UNL     1      26.069   1.793  53.849  1.00  0.00     0.019 C 
HETATM    8  C10 UNL     1      25.900   2.532  52.574  1.00  0.00     0.187 C 
HETATM    9  N2  UNL     1      27.160   1.967  51.959  1.00  0.00    -0.285 NA
HETATM   10  C11 UNL     1      26.751   0.730  51.723  1.00  0.00     0.122 C 
ENDROOT
BRANCH   1  11
HETATM   11  O1  UNL     1      24.424   2.411  50.562  1.00  0.00    -0.334 OA
BRANCH  11  12
HETATM   12  C2  UNL     1      23.836   3.472  49.911  1.00  0.00     0.300 C 
BRANCH  12  13
HETATM   13  N1  UNL     1      24.521   4.739  50.115  1.00  0.00    -0.363 N 
HETATM   14  C1  UNL     1      23.856   5.604  51.095  1.00  0.00     0.152 C 
BRANCH  13  15
HETATM   15  C12 UNL     1      25.710   5.172  49.473  1.00  0.00     0.031 A 
HETATM   16  C13 UNL     1      26.806   4.384  49.203  1.00  0.00     0.029 A 
HETATM   17  C14 UNL     1      27.951   4.823  48.576  1.00  0.00     0.002 A 
HETATM   18  C15 UNL     1      28.011   6.135  48.190  1.00  0.00     0.000 A 
HETATM   19  C16 UNL     1      26.949   6.947  48.439  1.00  0.00     0.002 A 
HETATM   20  C17 UNL     1      25.807   6.485  49.072  1.00  0.00     0.029 A 
ENDBRANCH  13  15
ENDBRANCH  12  13
ENDBRANCH  11  12
ENDBRANCH   1  11
BRANCH   3  21
HETATM   21  O2  UNL     1      21.655   0.182  52.754  1.00  0.00    -0.388 OA
HETATM   22  H8  UNL     1      21.726   0.051  51.758  1.00  0.00     0.210 HD
ENDBRANCH   3  21
TORSDOF 5
ENDMDL
MODEL 6
REMARK VINA RESULT:      -6.9      2.859      5.939
REMARK  5 active torsions:
REMARK  status: ('A' for Active; 'I' for Inactive)
REMARK    1  A    between atoms: N1_2  and  C2_3 
REMARK    2  A    between atoms: N1_2  and  C12_16 
REMARK    3  A    between atoms: C2_3  and  O1_4 
REMARK    4  A    between atoms: O1_4  and  C3_5 
REMARK    5  A    between atoms: C5_7  and  O2_8 
ROOT
HETATM    1  C3  UNL     1      23.173   0.764  53.046  1.00  0.00     0.076 C 
HETATM    2  C4  UNL     1      24.429   0.398  53.480  1.00  0.00     0.043 C 
HETATM    3  C5  UNL     1      25.365  -0.542  54.243  1.00  0.00     0.166 C 
HETATM    4  C6  UNL     1      24.572  -1.151  55.412  1.00  0.00     0.009 C 
HETATM    5  C7  UNL     1      23.173  -1.204  55.437  1.00  0.00     0.011 C 
HETATM    6  C8  UNL     1      22.206  -0.948  54.282  1.00  0.00    -0.021 C 
HETATM    7  C9  UNL     1      22.221  -1.488  53.016  1.00  0.00     0.019 C 
HETATM    8  C10 UNL     1      22.076  -0.078  52.580  1.00  0.00     0.187 C 
HETATM    9  N2  UNL     1      20.757   0.116  53.293  1.00  0.00    -0.285 NA
HETATM   10  C11 UNL     1      21.190   0.161  54.543  1.00  0.00     0.122 C 
ENDROOT
BRANCH   1  11
HETATM   11  O1  UNL     1      23.113   2.129  53.122  1.00  0.00    -0.334 OA
BRANCH  11  12
HETATM   12  C2  UNL     1      24.037   3.096  52.797  1.00  0.00     0.300 C 
BRANCH  12  13
HETATM   13  N1  UNL     1      23.843   3.673  51.475  1.00  0.00    -0.363 N 
HETATM   14  C1  UNL     1      22.435   3.713  51.065  1.00  0.00     0.152 C 
BRANCH  13  15
HETATM   15  C12 UNL     1      24.853   4.166  50.610  1.00  0.00     0.031 A 
HETATM   16  C13 UNL     1      24.958   5.463  50.160  1.00  0.00     0.029 A 
HETATM   17  C14 UNL     1      25.949   5.923  49.321  1.00  0.00     0.002 A 
HETATM   18  C15 UNL     1      26.901   5.034  48.901  1.00  0.00     0.000 A 
HETATM   19  C16 UNL     1      26.832   3.743  49.323  1.00  0.00     0.002 A 
HETATM   20  C17 UNL     1      25.826   3.302  50.166  1.00  0.00     0.029 A 
ENDBRANCH  13  15
ENDBRANCH  12  13
ENDBRANCH  11  12
ENDBRANCH   1  11
BRANCH   3  21
HETATM   21  O2  UNL     1      26.414   0.153  54.748  1.00  0.00    -0.388 OA
HETATM   22  H8  UNL     1      27.304  -0.247  54.499  1.00  0.00     0.210 HD
ENDBRANCH   3  21
TORSDOF 5
ENDMDL
MODEL 7
REMARK VINA RESULT:      -6.9      2.237      6.068
REMARK  5 active torsions:
REMARK  status: ('A' for Active; 'I' for Inactive)
REMARK    1  A    between atoms: N1_2  and  C2_3 
REMARK    2  A    between atoms: N1_2  and  C12_16 
REMARK    3  A    between atoms: C2_3  and  O1_4 
REMARK    4  A    between atoms: O1_4  and  C3_5 
REMARK    5  A    between atoms: C5_7  and  O2_8 
ROOT
HETATM    1  C3  UNL     1      23.765   1.931  51.985  1.00  0.00     0.076 C 
HETATM    2  C4  UNL     1      24.918   2.638  51.727  1.00  0.00     0.043 C 
HETATM    3  C5  UNL     1      25.706   3.676  50.923  1.00  0.00     0.166 C 
HETATM    4  C6  UNL     1      25.151   3.682  49.489  1.00  0.00     0.009 C 
HETATM    5  C7  UNL     1      23.876   3.203  49.164  1.00  0.00     0.011 C 
HETATM    6  C8  UNL     1      22.736   2.855  50.120  1.00  0.00    -0.021 C 
HETATM    7  C9  UNL     1      22.209   3.616  51.138  1.00  0.00     0.019 C 
HETATM    8  C10 UNL     1      22.377   2.380  51.940  1.00  0.00     0.187 C 
HETATM    9  N2  UNL     1      21.454   1.563  51.066  1.00  0.00    -0.285 NA
HETATM   10  C11 UNL     1      22.231   1.419  50.004  1.00  0.00     0.122 C 
ENDROOT
BRANCH   1  11
HETATM   11  O1  UNL     1      24.148   0.659  52.315  1.00  0.00    -0.334 OA
BRANCH  11  12
HETATM   12  C2  UNL     1      23.734  -0.180  53.324  1.00  0.00     0.300 C 
BRANCH  12  13
HETATM   13  N1  UNL     1      24.798  -0.578  54.231  1.00  0.00    -0.363 N 
HETATM   14  C1  UNL     1      24.306  -1.231  55.448  1.00  0.00     0.152 C 
BRANCH  13  15
HETATM   15  C12 UNL     1      26.191  -0.392  54.036  1.00  0.00     0.031 A 
HETATM   16  C13 UNL     1      26.948   0.620  54.583  1.00  0.00     0.029 A 
HETATM   17  C14 UNL     1      28.301   0.782  54.383  1.00  0.00     0.002 A 
HETATM   18  C15 UNL     1      28.947  -0.124  53.586  1.00  0.00     0.000 A 
HETATM   19  C16 UNL     1      28.235  -1.139  53.026  1.00  0.00     0.002 A 
HETATM   20  C17 UNL     1      26.874  -1.282  53.240  1.00  0.00     0.029 A 
ENDBRANCH  13  15
ENDBRANCH  12  13
ENDBRANCH  11  12
ENDBRANCH   1  11
BRANCH   3  21
HETATM   21  O2  UNL     1      27.018   3.332  50.877  1.00  0.00    -0.388 OA
HETATM   22  H8  UNL     1      27.617   4.108  50.645  1.00  0.00     0.210 HD
ENDBRANCH   3  21
TORSDOF 5
ENDMDL
MODEL 8
REMARK VINA RESULT:      -6.9      2.457      6.119
REMARK  5 active torsions:
REMARK  status: ('A' for Active; 'I' for Inactive)
REMARK    1  A    between atoms: N1_2  and  C2_3 
REMARK    2  A    between atoms: N1_2  and  C12_16 
REMARK    3  A    between atoms: C2_3  and  O1_4 
REMARK    4  A    between atoms: O1_4  and  C3_5 
REMARK    5  A    between atoms: C5_7  and  O2_8 
ROOT
HETATM    1  C3  UNL     1      22.869   1.631  52.293  1.00  0.00     0.076 C 
HETATM    2  C4  UNL     1      21.626   2.201  52.126  1.00  0.00     0.043 C 
HETATM    3  C5  UNL     1      20.730   3.379  51.736  1.00  0.00     0.166 C 
HETATM    4  C6  UNL     1      21.497   4.676  52.043  1.00  0.00     0.009 C 
HETATM    5  C7  UNL     1      22.891   4.725  52.170  1.00  0.00     0.011 C 
HETATM    6  C8  UNL     1      23.903   3.647  51.786  1.00  0.00    -0.021 C 
HETATM    7  C9  UNL     1      24.018   2.965  50.596  1.00  0.00     0.019 C 
HETATM    8  C10 UNL     1      24.065   1.766  51.467  1.00  0.00     0.187 C 
HETATM    9  N2  UNL     1      25.313   2.213  52.193  1.00  0.00    -0.285 NA
HETATM   10  C11 UNL     1      24.798   3.184  52.932  1.00  0.00     0.122 C 
ENDROOT
BRANCH   1  11
HETATM   11  O1  UNL     1      22.803   0.867  53.427  1.00  0.00    -0.334 OA
BRANCH  11  12
HETATM   12  C2  UNL     1      22.948  -0.489  53.616  1.00  0.00     0.300 C 
BRANCH  12  13
HETATM   13  N1  UNL     1      24.086  -0.847  54.448  1.00  0.00    -0.363 N 
HETATM   14  C1  UNL     1      23.699  -1.467  55.719  1.00  0.00     0.152 C 
BRANCH  13  15
HETATM   15  C12 UNL     1      25.456  -0.651  54.139  1.00  0.00     0.031 A 
HETATM   16  C13 UNL     1      26.096  -1.113  53.010  1.00  0.00     0.029 A 
HETATM   17  C14 UNL     1      27.428  -0.910  52.727  1.00  0.00     0.002 A 
HETATM   18  C15 UNL     1      28.177  -0.199  53.625  1.00  0.00     0.000 A 
HETATM   19  C16 UNL     1      27.582   0.275  54.753  1.00  0.00     0.002 A 
HETATM   20  C17 UNL     1      26.241   0.058  55.019  1.00  0.00     0.029 A 
ENDBRANCH  13  15
ENDBRANCH  12  13
ENDBRANCH  11  12
ENDBRANCH   1  11
BRANCH   3  21
HETATM   21  O2  UNL     1      19.593   3.364  52.475  1.00  0.00    -0.388 OA
HETATM   22  H8  UNL     1      19.769   3.437  53.464  1.00  0.00     0.210 HD
ENDBRANCH   3  21
TORSDOF 5
ENDMDL
MODEL 9
REMARK VINA RESULT:      -6.7      4.539      6.626
REMARK  5 active torsions:
REMARK  status: ('A' for Active; 'I' for Inactive)
REMARK    1  A    between atoms: N1_2  and  C2_3 
REMARK    2  A    between atoms: N1_2  and  C12_16 
REMARK    3  A    between atoms: C2_3  and  O1_4 
REMARK    4  A    between atoms: O1_4  and  C3_5 
REMARK    5  A    between atoms: C5_7  and  O2_8 
ROOT
HETATM    1  C3  UNL     1      22.104   4.494  50.809  1.00  0.00     0.076 C 
HETATM    2  C4  UNL     1      22.886   5.568  51.174  1.00  0.00     0.043 C 
HETATM    3  C5  UNL     1      24.069   6.511  50.937  1.00  0.00     0.166 C 
HETATM    4  C6  UNL     1      25.161   5.720  50.198  1.00  0.00     0.009 C 
HETATM    5  C7  UNL     1      24.896   4.553  49.470  1.00  0.00     0.011 C 
HETATM    6  C8  UNL     1      23.534   4.004  49.047  1.00  0.00    -0.021 C 
HETATM    7  C9  UNL     1      22.508   4.659  48.403  1.00  0.00     0.019 C 
HETATM    8  C10 UNL     1      21.670   4.078  49.480  1.00  0.00     0.187 C 
HETATM    9  N2  UNL     1      21.994   2.650  49.104  1.00  0.00    -0.285 NA
HETATM   10  C11 UNL     1      23.243   2.589  49.539  1.00  0.00     0.122 C 
ENDROOT
BRANCH   1  11
HETATM   11  O1  UNL     1      21.775   3.837  51.964  1.00  0.00    -0.334 OA
BRANCH  11  12
HETATM   12  C2  UNL     1      20.576   3.326  52.405  1.00  0.00     0.300 C 
BRANCH  12  13
HETATM   13  N1  UNL     1      20.487   1.877  52.316  1.00  0.00    -0.363 N 
HETATM   14  C1  UNL     1      19.437   1.418  51.401  1.00  0.00     0.152 C 
BRANCH  13  15
HETATM   15  C12 UNL     1      21.291   0.935  53.007  1.00  0.00     0.031 A 
HETATM   16  C13 UNL     1      22.565   0.554  52.649  1.00  0.00     0.029 A 
HETATM   17  C14 UNL     1      23.331  -0.362  53.336  1.00  0.00     0.002 A 
HETATM   18  C15 UNL     1      22.796  -0.938  54.456  1.00  0.00     0.000 A 
HETATM   19  C16 UNL     1      21.540  -0.588  54.844  1.00  0.00     0.002 A 
HETATM   20  C17 UNL     1      20.787   0.334  54.138  1.00  0.00     0.029 A 
ENDBRANCH  13  15
ENDBRANCH  12  13
ENDBRANCH  11  12
ENDBRANCH   1  11
BRANCH   3  21
HETATM   21  O2  UNL     1      24.571   6.936  52.123  1.00  0.00    -0.388 OA
HETATM   22  H8  UNL     1      25.181   6.259  52.554  1.00  0.00     0.210 HD
ENDBRANCH   3  21
TORSDOF 5
ENDMDL
