MODEL 1
REMARK VINA RESULT:      -7.7      0.000      0.000
REMARK  6 active torsions:
REMARK  status: ('A' for Active; 'I' for Inactive)
REMARK    1  A    between atoms: C2_2  and  O1_4 
REMARK    2  A    between atoms: O1_4  and  C4_5 
REMARK    3  A    between atoms: C7_8  and  S1_9 
REMARK    4  A    between atoms: S1_9  and  O2_10 
REMARK    5  A    between atoms: C10_15  and  N3_16 
REMARK    6  A    between atoms: N3_16  and  C11_17 
ROOT
HETATM    1  C4  UNL     1      22.891   0.745  52.390  1.00  0.00     0.085 A 
HETATM    2  C5  UNL     1      21.722   0.324  51.795  1.00  0.00     0.039 A 
HETATM    3  C6  UNL     1      21.263   0.702  50.551  1.00  0.00     0.026 A 
HETATM    4  C7  UNL     1      22.027   1.584  49.813  1.00  0.00     0.058 A 
HETATM    5  C8  UNL     1      23.206   2.036  50.364  1.00  0.00     0.093 A 
HETATM    6  N1  UNL     1      23.903   2.885  49.609  1.00  0.00    -0.240 NA
HETATM    7  C9  UNL     1      25.062   3.369  50.081  1.00  0.00     0.236 A 
HETATM    8  N2  UNL     1      25.502   2.999  51.288  1.00  0.00    -0.223 NA
HETATM    9  C10 UNL     1      24.800   2.145  52.046  1.00  0.00     0.144 A 
HETATM   10  C17 UNL     1      23.606   1.618  51.615  1.00  0.00     0.073 A 
ENDROOT
BRANCH   9  11
HETATM   11  N3  UNL     1      25.372   1.834  53.307  1.00  0.00    -0.340 N 
HETATM   12  H12 UNL     1      25.185   1.878  54.325  1.00  0.00     0.167 HD
BRANCH  11  13
HETATM   13  C11 UNL     1      26.668   1.234  53.382  1.00  0.00     0.033 A 
HETATM   14  C12 UNL     1      27.878   1.799  53.756  1.00  0.00     0.032 A 
HETATM   15  C13 UNL     1      29.075   1.128  53.815  1.00  0.00     0.044 A 
HETATM   16  C14 UNL     1      29.106  -0.208  53.482  1.00  0.00     0.116 A 
HETATM   17  F1  UNL     1      30.316  -0.809  53.561  1.00  0.00    -0.206 F 
HETATM   18  C15 UNL     1      27.921  -0.839  53.096  1.00  0.00     0.044 A 
HETATM   19  C16 UNL     1      26.728  -0.114  53.052  1.00  0.00     0.032 A 
ENDBRANCH  11  13
ENDBRANCH   9  11
BRANCH   1  20
HETATM   20  O1  UNL     1      23.341   0.370  53.621  1.00  0.00    -0.346 OA
BRANCH  20  21
HETATM   21  C2  UNL     1      23.024  -0.853  54.215  1.00  0.00     0.120 C 
HETATM   22  C1  UNL     1      21.679  -0.800  54.938  1.00  0.00     0.040 C 
HETATM   23  C3  UNL     1      24.053  -1.195  55.306  1.00  0.00     0.040 C 
ENDBRANCH  20  21
ENDBRANCH   1  20
BRANCH   4  24
HETATM   24  S1  UNL     1      21.483   2.108  48.196  1.00  0.00     0.028 SA
BRANCH  24  25
HETATM   25  O2  UNL     1      22.758   1.889  47.060  1.00  0.00    -0.325 OA
HETATM   26  H10 UNL     1      23.556   1.452  47.465  1.00  0.00     0.228 HD
ENDBRANCH  24  25
ENDBRANCH   4  24
TORSDOF 6
ENDMDL
MODEL 2
REMARK VINA RESULT:      -7.5      2.112      2.279
REMARK  6 active torsions:
REMARK  status: ('A' for Active; 'I' for Inactive)
REMARK    1  A    between atoms: C2_2  and  O1_4 
REMARK    2  A    between atoms: O1_4  and  C4_5 
REMARK    3  A    between atoms: C7_8  and  S1_9 
REMARK    4  A    between atoms: S1_9  and  O2_10 
REMARK    5  A    between atoms: C10_15  and  N3_16 
REMARK    6  A    between atoms: N3_16  and  C11_17 
ROOT
HETATM    1  C4  UNL     1      21.973   1.111  52.793  1.00  0.00     0.085 A 
HETATM    2  C5  UNL     1      20.736   1.718  52.767  1.00  0.00     0.039 A 
HETATM    3  C6  UNL     1      20.455   2.962  52.242  1.00  0.00     0.026 A 
HETATM    4  C7  UNL     1      21.489   3.686  51.685  1.00  0.00     0.058 A 
HETATM    5  C8  UNL     1      22.747   3.123  51.687  1.00  0.00     0.093 A 
HETATM    6  N1  UNL     1      23.709   3.865  51.137  1.00  0.00    -0.240 NA
HETATM    7  C9  UNL     1      24.960   3.382  51.104  1.00  0.00     0.236 A 
HETATM    8  N2  UNL     1      25.227   2.176  51.615  1.00  0.00    -0.223 NA
HETATM    9  C10 UNL     1      24.260   1.431  52.167  1.00  0.00     0.144 A 
HETATM   10  C17 UNL     1      22.960   1.873  52.229  1.00  0.00     0.073 A 
ENDROOT
BRANCH   9  11
HETATM   11  N3  UNL     1      24.672   0.171  52.676  1.00  0.00    -0.340 N 
HETATM   12  H12 UNL     1      24.338  -0.796  52.839  1.00  0.00     0.167 HD
BRANCH  11  13
HETATM   13  C11 UNL     1      25.999  -0.002  53.182  1.00  0.00     0.033 A 
HETATM   14  C12 UNL     1      26.602   0.584  54.285  1.00  0.00     0.032 A 
HETATM   15  C13 UNL     1      27.886   0.336  54.703  1.00  0.00     0.044 A 
HETATM   16  C14 UNL     1      28.656  -0.558  53.994  1.00  0.00     0.116 A 
HETATM   17  F1  UNL     1      29.912  -0.757  54.460  1.00  0.00    -0.206 F 
HETATM   18  C15 UNL     1      28.109  -1.185  52.872  1.00  0.00     0.044 A 
HETATM   19  C16 UNL     1      26.797  -0.900  52.485  1.00  0.00     0.032 A 
ENDBRANCH  11  13
ENDBRANCH   9  11
BRANCH   1  20
HETATM   20  O1  UNL     1      22.248  -0.119  53.313  1.00  0.00    -0.346 OA
BRANCH  20  21
HETATM   21  C2  UNL     1      21.759  -0.559  54.545  1.00  0.00     0.120 C 
HETATM   22  C1  UNL     1      22.843  -1.250  55.371  1.00  0.00     0.040 C 
HETATM   23  C3  UNL     1      20.673  -1.628  54.332  1.00  0.00     0.040 C 
ENDBRANCH  20  21
ENDBRANCH   1  20
BRANCH   4  24
HETATM   24  S1  UNL     1      21.184   5.301  50.991  1.00  0.00     0.028 SA
BRANCH  24  25
HETATM   25  O2  UNL     1      22.262   6.445  51.696  1.00  0.00    -0.325 OA
HETATM   26  H10 UNL     1      21.800   7.059  52.329  1.00  0.00     0.228 HD
ENDBRANCH  24  25
ENDBRANCH   4  24
TORSDOF 6
ENDMDL
MODEL 3
REMARK VINA RESULT:      -7.5      2.666      4.523
REMARK  6 active torsions:
REMARK  status: ('A' for Active; 'I' for Inactive)
REMARK    1  A    between atoms: C2_2  and  O1_4 
REMARK    2  A    between atoms: O1_4  and  C4_5 
REMARK    3  A    between atoms: C7_8  and  S1_9 
REMARK    4  A    between atoms: S1_9  and  O2_10 
REMARK    5  A    between atoms: C10_15  and  N3_16 
REMARK    6  A    between atoms: N3_16  and  C11_17 
ROOT
HETATM    1  C4  UNL     1      22.195   0.742  52.077  1.00  0.00     0.085 A 
HETATM    2  C5  UNL     1      20.909   0.695  51.586  1.00  0.00     0.039 A 
HETATM    3  C6  UNL     1      19.875  -0.065  52.091  1.00  0.00     0.026 A 
HETATM    4  C7  UNL     1      20.126  -0.863  53.189  1.00  0.00     0.058 A 
HETATM    5  C8  UNL     1      21.398  -0.853  53.719  1.00  0.00     0.093 A 
HETATM    6  N1  UNL     1      21.585  -1.641  54.777  1.00  0.00    -0.240 NA
HETATM    7  C9  UNL     1      22.800  -1.684  55.346  1.00  0.00     0.236 A 
HETATM    8  N2  UNL     1      23.798  -0.945  54.852  1.00  0.00    -0.223 NA
HETATM    9  C10 UNL     1      23.609  -0.153  53.788  1.00  0.00     0.144 A 
HETATM   10  C17 UNL     1      22.387  -0.068  53.164  1.00  0.00     0.073 A 
ENDROOT
BRANCH   9  11
HETATM   11  N3  UNL     1      24.748   0.579  53.359  1.00  0.00    -0.340 N 
HETATM   12  H12 UNL     1      25.035   1.497  52.976  1.00  0.00     0.167 HD
BRANCH  11  13
HETATM   13  C11 UNL     1      26.047  -0.017  53.409  1.00  0.00     0.033 A 
HETATM   14  C12 UNL     1      26.568  -1.054  52.651  1.00  0.00     0.032 A 
HETATM   15  C13 UNL     1      27.846  -1.545  52.763  1.00  0.00     0.044 A 
HETATM   16  C14 UNL     1      28.695  -0.984  53.690  1.00  0.00     0.116 A 
HETATM   17  F1  UNL     1      29.940  -1.515  53.749  1.00  0.00    -0.206 F 
HETATM   18  C15 UNL     1      28.233   0.066  54.487  1.00  0.00     0.044 A 
HETATM   19  C16 UNL     1      26.925   0.531  54.336  1.00  0.00     0.032 A 
ENDBRANCH  11  13
ENDBRANCH   9  11
BRANCH   1  20
HETATM   20  O1  UNL     1      23.215   1.495  51.576  1.00  0.00    -0.346 OA
BRANCH  20  21
HETATM   21  C2  UNL     1      23.028   2.747  50.988  1.00  0.00     0.120 C 
HETATM   22  C1  UNL     1      23.253   2.704  49.477  1.00  0.00     0.040 C 
HETATM   23  C3  UNL     1      24.073   3.743  51.521  1.00  0.00     0.040 C 
ENDBRANCH  20  21
ENDBRANCH   1  20
BRANCH   4  24
HETATM   24  S1  UNL     1      18.827  -1.868  53.885  1.00  0.00     0.028 SA
BRANCH  24  25
HETATM   25  O2  UNL     1      17.340  -1.000  53.843  1.00  0.00    -0.325 OA
HETATM   26  H10 UNL     1      16.601  -1.535  53.443  1.00  0.00     0.228 HD
ENDBRANCH  24  25
ENDBRANCH   4  24
TORSDOF 6
ENDMDL
MODEL 4
REMARK VINA RESULT:      -7.4      3.933      6.164
REMARK  6 active torsions:
REMARK  status: ('A' for Active; 'I' for Inactive)
REMARK    1  A    between atoms: C2_2  and  O1_4 
REMARK    2  A    between atoms: O1_4  and  C4_5 
REMARK    3  A    between atoms: C7_8  and  S1_9 
REMARK    4  A    between atoms: S1_9  and  O2_10 
REMARK    5  A    between atoms: C10_15  and  N3_16 
REMARK    6  A    between atoms: N3_16  and  C11_17 
ROOT
HETATM    1  C4  UNL     1      24.520   0.120  53.441  1.00  0.00     0.085 A 
HETATM    2  C5  UNL     1      25.245  -0.483  54.446  1.00  0.00     0.039 A 
HETATM    3  C6  UNL     1      26.586  -0.294  54.704  1.00  0.00     0.026 A 
HETATM    4  C7  UNL     1      27.291   0.574  53.896  1.00  0.00     0.058 A 
HETATM    5  C8  UNL     1      26.612   1.203  52.874  1.00  0.00     0.093 A 
HETATM    6  N1  UNL     1      27.342   2.029  52.124  1.00  0.00    -0.240 NA
HETATM    7  C9  UNL     1      26.748   2.676  51.110  1.00  0.00     0.236 A 
HETATM    8  N2  UNL     1      25.448   2.489  50.864  1.00  0.00    -0.223 NA
HETATM    9  C10 UNL     1      24.716   1.658  51.618  1.00  0.00     0.144 A 
HETATM   10  C17 UNL     1      25.270   0.968  52.671  1.00  0.00     0.073 A 
ENDROOT
BRANCH   9  11
HETATM   11  N3  UNL     1      23.349   1.543  51.253  1.00  0.00    -0.340 N 
HETATM   12  H12 UNL     1      22.595   0.848  51.109  1.00  0.00     0.167 HD
BRANCH  11  13
HETATM   13  C11 UNL     1      22.585   2.713  50.945  1.00  0.00     0.033 A 
HETATM   14  C12 UNL     1      22.084   3.139  49.724  1.00  0.00     0.032 A 
HETATM   15  C13 UNL     1      21.339   4.276  49.533  1.00  0.00     0.044 A 
HETATM   16  C14 UNL     1      21.053   5.074  50.619  1.00  0.00     0.116 A 
HETATM   17  F1  UNL     1      20.315   6.180  50.362  1.00  0.00    -0.206 F 
HETATM   18  C15 UNL     1      21.527   4.702  51.879  1.00  0.00     0.044 A 
HETATM   19  C16 UNL     1      22.281   3.534  52.023  1.00  0.00     0.032 A 
ENDBRANCH  11  13
ENDBRANCH   9  11
BRANCH   1  20
HETATM   20  O1  UNL     1      23.194  -0.070  53.188  1.00  0.00    -0.346 OA
BRANCH  20  21
HETATM   21  C2  UNL     1      22.234  -0.219  54.191  1.00  0.00     0.120 C 
HETATM   22  C1  UNL     1      21.787  -1.673  54.335  1.00  0.00     0.040 C 
HETATM   23  C3  UNL     1      20.958   0.559  53.823  1.00  0.00     0.040 C 
ENDBRANCH  20  21
ENDBRANCH   1  20
BRANCH   4  24
HETATM   24  S1  UNL     1      29.029   0.858  54.182  1.00  0.00     0.028 SA
BRANCH  24  25
HETATM   25  O2  UNL     1      29.317   2.547  54.359  1.00  0.00    -0.325 OA
HETATM   26  H10 UNL     1      28.521   3.031  54.714  1.00  0.00     0.228 HD
ENDBRANCH  24  25
ENDBRANCH   4  24
TORSDOF 6
ENDMDL
MODEL 5
REMARK VINA RESULT:      -7.3      3.165      4.662
REMARK  6 active torsions:
REMARK  status: ('A' for Active; 'I' for Inactive)
REMARK    1  A    between atoms: C2_2  and  O1_4 
REMARK    2  A    between atoms: O1_4  and  C4_5 
REMARK    3  A    between atoms: C7_8  and  S1_9 
REMARK    4  A    between atoms: S1_9  and  O2_10 
REMARK    5  A    between atoms: C10_15  and  N3_16 
REMARK    6  A    between atoms: N3_16  and  C11_17 
ROOT
HETATM    1  C4  UNL     1      23.063   0.315  53.400  1.00  0.00     0.085 A 
HETATM    2  C5  UNL     1      22.445  -0.882  53.690  1.00  0.00     0.039 A 
HETATM    3  C6  UNL     1      21.109  -1.170  53.510  1.00  0.00     0.026 A 
HETATM    4  C7  UNL     1      20.292  -0.186  52.990  1.00  0.00     0.058 A 
HETATM    5  C8  UNL     1      20.862   1.032  52.683  1.00  0.00     0.093 A 
HETATM    6  N1  UNL     1      20.028   1.945  52.186  1.00  0.00    -0.240 NA
HETATM    7  C9  UNL     1      20.511   3.155  51.864  1.00  0.00     0.236 A 
HETATM    8  N2  UNL     1      21.808   3.429  52.042  1.00  0.00    -0.223 NA
HETATM    9  C10 UNL     1      22.645   2.509  52.542  1.00  0.00     0.144 A 
HETATM   10  C17 UNL     1      22.207   1.253  52.890  1.00  0.00     0.073 A 
ENDROOT
BRANCH   9  11
HETATM   11  N3  UNL     1      23.995   2.924  52.685  1.00  0.00    -0.340 N 
HETATM   12  H12 UNL     1      24.762   2.990  53.377  1.00  0.00     0.167 HD
BRANCH  11  13
HETATM   13  C11 UNL     1      24.704   3.465  51.567  1.00  0.00     0.033 A 
HETATM   14  C12 UNL     1      24.546   4.689  50.936  1.00  0.00     0.032 A 
HETATM   15  C13 UNL     1      25.297   5.128  49.873  1.00  0.00     0.044 A 
HETATM   16  C14 UNL     1      26.289   4.312  49.377  1.00  0.00     0.116 A 
HETATM   17  F1  UNL     1      26.991   4.805  48.329  1.00  0.00    -0.206 F 
HETATM   18  C15 UNL     1      26.502   3.064  49.968  1.00  0.00     0.044 A 
HETATM   19  C16 UNL     1      25.712   2.662  51.048  1.00  0.00     0.032 A 
ENDBRANCH  11  13
ENDBRANCH   9  11
BRANCH   1  20
HETATM   20  O1  UNL     1      24.385   0.597  53.580  1.00  0.00    -0.346 OA
BRANCH  20  21
HETATM   21  C2  UNL     1      25.348  -0.377  53.850  1.00  0.00     0.120 C 
HETATM   22  C1  UNL     1      26.301   0.061  54.961  1.00  0.00     0.040 C 
HETATM   23  C3  UNL     1      26.242  -0.594  52.617  1.00  0.00     0.040 C 
ENDBRANCH  20  21
ENDBRANCH   1  20
BRANCH   4  24
HETATM   24  S1  UNL     1      18.555  -0.501  52.734  1.00  0.00     0.028 SA
BRANCH  24  25
HETATM   25  O2  UNL     1      17.896  -1.267  54.129  1.00  0.00    -0.325 OA
HETATM   26  H10 UNL     1      17.093  -1.816  53.916  1.00  0.00     0.228 HD
ENDBRANCH  24  25
ENDBRANCH   4  24
TORSDOF 6
ENDMDL
MODEL 6
REMARK VINA RESULT:      -7.1      3.718      6.028
REMARK  6 active torsions:
REMARK  status: ('A' for Active; 'I' for Inactive)
REMARK    1  A    between atoms: C2_2  and  O1_4 
REMARK    2  A    between atoms: O1_4  and  C4_5 
REMARK    3  A    between atoms: C7_8  and  S1_9 
REMARK    4  A    between atoms: S1_9  and  O2_10 
REMARK    5  A    between atoms: C10_15  and  N3_16 
REMARK    6  A    between atoms: N3_16  and  C11_17 
ROOT
HETATM    1  C4  UNL     1      23.920   0.724  53.013  1.00  0.00     0.085 A 
HETATM    2  C5  UNL     1      24.432  -0.267  53.821  1.00  0.00     0.039 A 
HETATM    3  C6  UNL     1      25.767  -0.570  53.987  1.00  0.00     0.026 A 
HETATM    4  C7  UNL     1      26.698   0.174  53.290  1.00  0.00     0.058 A 
HETATM    5  C8  UNL     1      26.237   1.178  52.466  1.00  0.00     0.093 A 
HETATM    6  N1  UNL     1      27.179   1.864  51.817  1.00  0.00    -0.240 NA
HETATM    7  C9  UNL     1      26.805   2.856  50.995  1.00  0.00     0.236 A 
HETATM    8  N2  UNL     1      25.509   3.145  50.838  1.00  0.00    -0.223 NA
HETATM    9  C10 UNL     1      24.564   2.456  51.491  1.00  0.00     0.144 A 
HETATM   10  C17 UNL     1      24.887   1.428  52.346  1.00  0.00     0.073 A 
ENDROOT
BRANCH   9  11
HETATM   11  N3  UNL     1      23.227   2.857  51.237  1.00  0.00    -0.340 N 
HETATM   12  H12 UNL     1      22.336   3.088  51.712  1.00  0.00     0.167 HD
BRANCH  11  13
HETATM   13  C11 UNL     1      22.782   3.070  49.894  1.00  0.00     0.033 A 
HETATM   14  C12 UNL     1      22.593   4.261  49.209  1.00  0.00     0.032 A 
HETATM   15  C13 UNL     1      22.178   4.360  47.904  1.00  0.00     0.044 A 
HETATM   16  C14 UNL     1      21.923   3.206  47.197  1.00  0.00     0.116 A 
HETATM   17  F1  UNL     1      21.517   3.374  45.916  1.00  0.00    -0.206 F 
HETATM   18  C15 UNL     1      22.094   1.971  47.828  1.00  0.00     0.044 A 
HETATM   19  C16 UNL     1      22.518   1.922  49.158  1.00  0.00     0.032 A 
ENDBRANCH  11  13
ENDBRANCH   9  11
BRANCH   1  20
HETATM   20  O1  UNL     1      22.600   1.021  52.850  1.00  0.00    -0.346 OA
BRANCH  20  21
HETATM   21  C2  UNL     1      21.583   0.068  52.932  1.00  0.00     0.120 C 
HETATM   22  C1  UNL     1      20.554   0.240  51.815  1.00  0.00     0.040 C 
HETATM   23  C3  UNL     1      20.791   0.250  54.238  1.00  0.00     0.040 C 
ENDBRANCH  20  21
ENDBRANCH   1  20
BRANCH   4  24
HETATM   24  S1  UNL     1      28.439  -0.173  53.466  1.00  0.00     0.028 SA
BRANCH  24  25
HETATM   25  O2  UNL     1      29.304   1.303  53.666  1.00  0.00    -0.325 OA
HETATM   26  H10 UNL     1      28.747   2.014  54.086  1.00  0.00     0.228 HD
ENDBRANCH  24  25
ENDBRANCH   4  24
TORSDOF 6
ENDMDL
MODEL 7
REMARK VINA RESULT:      -6.9      3.992      7.069
REMARK  6 active torsions:
REMARK  status: ('A' for Active; 'I' for Inactive)
REMARK    1  A    between atoms: C2_2  and  O1_4 
REMARK    2  A    between atoms: O1_4  and  C4_5 
REMARK    3  A    between atoms: C7_8  and  S1_9 
REMARK    4  A    between atoms: S1_9  and  O2_10 
REMARK    5  A    between atoms: C10_15  and  N3_16 
REMARK    6  A    between atoms: N3_16  and  C11_17 
ROOT
HETATM    1  C4  UNL     1      24.404   2.107  51.626  1.00  0.00     0.085 A 
HETATM    2  C5  UNL     1      25.708   2.268  51.212  1.00  0.00     0.039 A 
HETATM    3  C6  UNL     1      26.792   1.533  51.641  1.00  0.00     0.026 A 
HETATM    4  C7  UNL     1      26.579   0.536  52.572  1.00  0.00     0.058 A 
HETATM    5  C8  UNL     1      25.291   0.334  53.020  1.00  0.00     0.093 A 
HETATM    6  N1  UNL     1      25.143  -0.640  53.918  1.00  0.00    -0.240 NA
HETATM    7  C9  UNL     1      23.917  -0.893  54.401  1.00  0.00     0.236 A 
HETATM    8  N2  UNL     1      22.869  -0.176  53.981  1.00  0.00    -0.223 NA
HETATM    9  C10 UNL     1      23.020   0.802  53.078  1.00  0.00     0.144 A 
HETATM   10  C17 UNL     1      24.252   1.107  52.549  1.00  0.00     0.073 A 
ENDROOT
BRANCH   9  11
HETATM   11  N3  UNL     1      21.832   1.491  52.717  1.00  0.00    -0.340 N 
HETATM   12  H12 UNL     1      21.462   2.438  52.519  1.00  0.00     0.167 HD
BRANCH  11  13
HETATM   13  C11 UNL     1      20.616   0.768  52.508  1.00  0.00     0.033 A 
HETATM   14  C12 UNL     1      19.938  -0.079  53.372  1.00  0.00     0.032 A 
HETATM   15  C13 UNL     1      18.757  -0.716  53.083  1.00  0.00     0.044 A 
HETATM   16  C14 UNL     1      18.178  -0.517  51.849  1.00  0.00     0.116 A 
HETATM   17  F1  UNL     1      17.015  -1.174  51.628  1.00  0.00    -0.206 F 
HETATM   18  C15 UNL     1      18.809   0.326  50.931  1.00  0.00     0.044 A 
HETATM   19  C16 UNL     1      20.010   0.952  51.272  1.00  0.00     0.032 A 
ENDBRANCH  11  13
ENDBRANCH   9  11
BRANCH   1  20
HETATM   20  O1  UNL     1      23.334   2.837  51.200  1.00  0.00    -0.346 OA
BRANCH  20  21
HETATM   21  C2  UNL     1      23.271   3.446  49.946  1.00  0.00     0.120 C 
HETATM   22  C1  UNL     1      22.341   4.658  49.951  1.00  0.00     0.040 C 
HETATM   23  C3  UNL     1      22.661   2.478  48.917  1.00  0.00     0.040 C 
ENDBRANCH  20  21
ENDBRANCH   1  20
BRANCH   4  24
HETATM   24  S1  UNL     1      27.944  -0.448  53.164  1.00  0.00     0.028 SA
BRANCH  24  25
HETATM   25  O2  UNL     1      27.907  -0.510  54.885  1.00  0.00    -0.325 OA
HETATM   26  H10 UNL     1      27.077  -0.107  55.260  1.00  0.00     0.228 HD
ENDBRANCH  24  25
ENDBRANCH   4  24
TORSDOF 6
ENDMDL
MODEL 8
REMARK VINA RESULT:      -6.8      3.959      6.967
REMARK  6 active torsions:
REMARK  status: ('A' for Active; 'I' for Inactive)
REMARK    1  A    between atoms: C2_2  and  O1_4 
REMARK    2  A    between atoms: O1_4  and  C4_5 
REMARK    3  A    between atoms: C7_8  and  S1_9 
REMARK    4  A    between atoms: S1_9  and  O2_10 
REMARK    5  A    between atoms: C10_15  and  N3_16 
REMARK    6  A    between atoms: N3_16  and  C11_17 
ROOT
HETATM    1  C4  UNL     1      25.277   1.901  51.710  1.00  0.00     0.085 A 
HETATM    2  C5  UNL     1      26.528   2.466  51.588  1.00  0.00     0.039 A 
HETATM    3  C6  UNL     1      27.624   2.187  52.377  1.00  0.00     0.026 A 
HETATM    4  C7  UNL     1      27.482   1.260  53.389  1.00  0.00     0.058 A 
HETATM    5  C8  UNL     1      26.250   0.666  53.554  1.00  0.00     0.093 A 
HETATM    6  N1  UNL     1      26.169  -0.221  54.547  1.00  0.00    -0.240 NA
HETATM    7  C9  UNL     1      24.999  -0.839  54.767  1.00  0.00     0.236 A 
HETATM    8  N2  UNL     1      23.939  -0.565  54.000  1.00  0.00    -0.223 NA
HETATM    9  C10 UNL     1      24.022   0.326  53.003  1.00  0.00     0.144 A 
HETATM   10  C17 UNL     1      25.194   0.991  52.729  1.00  0.00     0.073 A 
ENDROOT
BRANCH   9  11
HETATM   11  N3  UNL     1      22.827   0.531  52.264  1.00  0.00    -0.340 N 
HETATM   12  H12 UNL     1      22.456   1.007  51.422  1.00  0.00     0.167 HD
BRANCH  11  13
HETATM   13  C11 UNL     1      21.602  -0.068  52.695  1.00  0.00     0.033 A 
HETATM   14  C12 UNL     1      21.385  -0.995  53.703  1.00  0.00     0.032 A 
HETATM   15  C13 UNL     1      20.157  -1.498  54.057  1.00  0.00     0.044 A 
HETATM   16  C14 UNL     1      19.040  -1.068  53.376  1.00  0.00     0.116 A 
HETATM   17  F1  UNL     1      17.862  -1.604  53.774  1.00  0.00    -0.206 F 
HETATM   18  C15 UNL     1      19.189  -0.133  52.348  1.00  0.00     0.044 A 
HETATM   19  C16 UNL     1      20.459   0.350  52.025  1.00  0.00     0.032 A 
ENDBRANCH  11  13
ENDBRANCH   9  11
BRANCH   1  20
HETATM   20  O1  UNL     1      24.195   2.179  50.929  1.00  0.00    -0.346 OA
BRANCH  20  21
HETATM   21  C2  UNL     1      24.151   3.246  50.030  1.00  0.00     0.120 C 
HETATM   22  C1  UNL     1      23.541   4.496  50.663  1.00  0.00     0.040 C 
HETATM   23  C3  UNL     1      23.227   2.904  48.847  1.00  0.00     0.040 C 
ENDBRANCH  20  21
ENDBRANCH   1  20
BRANCH   4  24
HETATM   24  S1  UNL     1      28.866   0.859  54.441  1.00  0.00     0.028 SA
BRANCH  24  25
HETATM   25  O2  UNL     1      29.721   2.300  54.844  1.00  0.00    -0.325 OA
HETATM   26  H10 UNL     1      30.018   2.309  55.795  1.00  0.00     0.228 HD
ENDBRANCH  24  25
ENDBRANCH   4  24
TORSDOF 6
ENDMDL
MODEL 9
REMARK VINA RESULT:      -6.6      3.125      4.993
REMARK  6 active torsions:
REMARK  status: ('A' for Active; 'I' for Inactive)
REMARK    1  A    between atoms: C2_2  and  O1_4 
REMARK    2  A    between atoms: O1_4  and  C4_5 
REMARK    3  A    between atoms: C7_8  and  S1_9 
REMARK    4  A    between atoms: S1_9  and  O2_10 
REMARK    5  A    between atoms: C10_15  and  N3_16 
REMARK    6  A    between atoms: N3_16  and  C11_17 
ROOT
HETATM    1  C4  UNL     1      24.322   1.307  52.356  1.00  0.00     0.085 A 
HETATM    2  C5  UNL     1      23.576   0.517  53.202  1.00  0.00     0.039 A 
HETATM    3  C6  UNL     1      22.239   0.213  53.058  1.00  0.00     0.026 A 
HETATM    4  C7  UNL     1      21.561   0.735  51.975  1.00  0.00     0.058 A 
HETATM    5  C8  UNL     1      22.263   1.534  51.098  1.00  0.00     0.093 A 
HETATM    6  N1  UNL     1      21.561   2.012  50.070  1.00  0.00    -0.240 NA
HETATM    7  C9  UNL     1      22.178   2.798  49.175  1.00  0.00     0.236 A 
HETATM    8  N2  UNL     1      23.474   3.090  49.320  1.00  0.00    -0.223 NA
HETATM    9  C10 UNL     1      24.179   2.609  50.352  1.00  0.00     0.144 A 
HETATM   10  C17 UNL     1      23.601   1.799  51.301  1.00  0.00     0.073 A 
ENDROOT
BRANCH   9  11
HETATM   11  N3  UNL     1      25.545   2.994  50.395  1.00  0.00    -0.340 N 
HETATM   12  H12 UNL     1      26.480   2.665  50.696  1.00  0.00     0.167 HD
BRANCH  11  13
HETATM   13  C11 UNL     1      25.953   4.261  49.870  1.00  0.00     0.033 A 
HETATM   14  C12 UNL     1      25.385   5.512  50.057  1.00  0.00     0.032 A 
HETATM   15  C13 UNL     1      25.866   6.682  49.522  1.00  0.00     0.044 A 
HETATM   16  C14 UNL     1      26.997   6.638  48.737  1.00  0.00     0.116 A 
HETATM   17  F1  UNL     1      27.419   7.825  48.241  1.00  0.00    -0.206 F 
HETATM   18  C15 UNL     1      27.619   5.408  48.509  1.00  0.00     0.044 A 
HETATM   19  C16 UNL     1      27.092   4.246  49.076  1.00  0.00     0.032 A 
ENDBRANCH  11  13
ENDBRANCH   9  11
BRANCH   1  20
HETATM   20  O1  UNL     1      25.644   1.607  52.500  1.00  0.00    -0.346 OA
BRANCH  20  21
HETATM   21  C2  UNL     1      26.565   0.747  53.102  1.00  0.00     0.120 C 
HETATM   22  C1  UNL     1      27.920   1.422  53.307  1.00  0.00     0.040 C 
HETATM   23  C3  UNL     1      26.849  -0.453  52.182  1.00  0.00     0.040 C 
ENDBRANCH  20  21
ENDBRANCH   1  20
BRANCH   4  24
HETATM   24  S1  UNL     1      19.830   0.376  51.738  1.00  0.00     0.028 SA
BRANCH  24  25
HETATM   25  O2  UNL     1      18.943   1.849  51.640  1.00  0.00    -0.325 OA
HETATM   26  H10 UNL     1      19.486   2.593  51.261  1.00  0.00     0.228 HD
ENDBRANCH  24  25
ENDBRANCH   4  24
TORSDOF 6
ENDMDL
