MODEL 1
REMARK VINA RESULT:      -8.1      0.000      0.000
REMARK  8 active torsions:
REMARK  status: ('A' for Active; 'I' for Inactive)
REMARK    1  A    between atoms: O1_2  and  C2_3 
REMARK    2  A    between atoms: C6_9  and  N3_10 
REMARK    3  A    between atoms: N3_10  and  C7_11 
REMARK    4  A    between atoms: C7_11  and  C8_12 
REMARK    5  A    between atoms: C9_13  and  C10_14 
REMARK    6  A    between atoms: C11_15  and  C12_16 
REMARK    7  A    between atoms: C15_20  and  N4_21 
REMARK    8  A    between atoms: N4_21  and  C16_22 
ROOT
HETATM    1  C2  UNL     1      23.550   0.907  53.066  1.00  0.00     0.096 A 
HETATM    2  C3  UNL     1      22.372   1.311  52.454  1.00  0.00     0.071 A 
HETATM    3  C4  UNL     1      22.180   2.620  52.066  1.00  0.00     0.075 A 
HETATM    4  N1  UNL     1      21.019   2.971  51.474  1.00  0.00    -0.241 NA
HETATM    5  C5  UNL     1      20.843   4.258  51.097  1.00  0.00     0.235 A 
HETATM    6  N2  UNL     1      21.826   5.138  51.323  1.00  0.00    -0.224 NA
HETATM    7  C6  UNL     1      23.001   4.846  51.907  1.00  0.00     0.137 A 
HETATM    8  C13 UNL     1      23.183   3.536  52.293  1.00  0.00     0.041 A 
HETATM    9  C14 UNL     1      24.327   3.121  52.892  1.00  0.00     0.049 A 
HETATM   10  C15 UNL     1      24.574   1.826  53.302  1.00  0.00     0.063 A 
ENDROOT
BRANCH   7  11
HETATM   11  N3  UNL     1      23.983   5.854  52.105  1.00  0.00    -0.371 N 
HETATM   12  H6  UNL     1      24.514   6.040  52.951  1.00  0.00     0.161 HD
BRANCH  11  13
HETATM   13  C7  UNL     1      24.297   6.736  51.009  1.00  0.00     0.148 C 
BRANCH  13  14
HETATM   14  C8  UNL     1      25.464   6.345  50.216  1.00  0.00    -0.007 C 
HETATM   15  C9  UNL     1      25.725   5.356  49.391  1.00  0.00    -0.003 C 
BRANCH  15  16
HETATM   16  C10 UNL     1      27.031   5.236  48.733  1.00  0.00    -0.002 C 
HETATM   17  C11 UNL     1      27.751   6.306  48.524  1.00  0.00     0.004 C 
BRANCH  17  18
HETATM   18  C12 UNL     1      29.070   6.181  47.859  1.00  0.00     0.249 C 
HETATM   19  F1  UNL     1      29.469   4.840  47.790  1.00  0.00    -0.251 F 
ENDBRANCH  17  18
ENDBRANCH  15  16
ENDBRANCH  13  14
ENDBRANCH  11  13
ENDBRANCH   7  11
BRANCH  10  20
HETATM   20  N4  UNL     1      25.782   1.495  53.921  1.00  0.00    -0.374 N 
HETATM   21  H16 UNL     1      25.841   1.524  54.962  1.00  0.00     0.160 HD
BRANCH  20  22
HETATM   22  C16 UNL     1      27.018   1.097  53.304  1.00  0.00     0.183 C 
HETATM   23  C17 UNL     1      26.908   0.045  52.260  1.00  0.00     0.062 C 
HETATM   24  C18 UNL     1      27.502  -1.178  52.923  1.00  0.00     0.181 C 
HETATM   25  O2  UNL     1      27.799  -0.758  54.240  1.00  0.00    -0.320 OA
HETATM   26  C19 UNL     1      28.041   0.627  54.229  1.00  0.00     0.281 C 
HETATM   27  O3  UNL     1      28.904   1.325  54.837  1.00  0.00    -0.263 OA
ENDBRANCH  20  22
ENDBRANCH  10  20
BRANCH   1  28
HETATM   28  O1  UNL     1      23.708  -0.418  53.441  1.00  0.00    -0.354 OA
HETATM   29  C1  UNL     1      22.971  -0.927  54.528  1.00  0.00     0.210 C 
ENDBRANCH   1  28
TORSDOF 8
ENDMDL
MODEL 2
REMARK VINA RESULT:      -7.9      1.734      2.544
REMARK  8 active torsions:
REMARK  status: ('A' for Active; 'I' for Inactive)
REMARK    1  A    between atoms: O1_2  and  C2_3 
REMARK    2  A    between atoms: C6_9  and  N3_10 
REMARK    3  A    between atoms: N3_10  and  C7_11 
REMARK    4  A    between atoms: C7_11  and  C8_12 
REMARK    5  A    between atoms: C9_13  and  C10_14 
REMARK    6  A    between atoms: C11_15  and  C12_16 
REMARK    7  A    between atoms: C15_20  and  N4_21 
REMARK    8  A    between atoms: N4_21  and  C16_22 
ROOT
HETATM    1  C2  UNL     1      24.332   0.342  53.031  1.00  0.00     0.096 A 
HETATM    2  C3  UNL     1      23.381   1.342  52.885  1.00  0.00     0.071 A 
HETATM    3  C4  UNL     1      23.665   2.505  52.201  1.00  0.00     0.075 A 
HETATM    4  N1  UNL     1      22.711   3.452  52.081  1.00  0.00    -0.241 NA
HETATM    5  C5  UNL     1      23.001   4.589  51.409  1.00  0.00     0.235 A 
HETATM    6  N2  UNL     1      24.225   4.736  50.885  1.00  0.00    -0.224 NA
HETATM    7  C6  UNL     1      25.213   3.828  50.973  1.00  0.00     0.137 A 
HETATM    8  C13 UNL     1      24.920   2.669  51.658  1.00  0.00     0.041 A 
HETATM    9  C14 UNL     1      25.835   1.680  51.812  1.00  0.00     0.049 A 
HETATM   10  C15 UNL     1      25.607   0.497  52.485  1.00  0.00     0.063 A 
ENDROOT
BRANCH   7  11
HETATM   11  N3  UNL     1      26.481   4.077  50.383  1.00  0.00    -0.371 N 
HETATM   12  H6  UNL     1      27.395   3.945  50.807  1.00  0.00     0.161 HD
BRANCH  11  13
HETATM   13  C7  UNL     1      26.528   4.573  49.030  1.00  0.00     0.148 C 
BRANCH  13  14
HETATM   14  C8  UNL     1      27.844   5.036  48.587  1.00  0.00    -0.007 C 
HETATM   15  C9  UNL     1      28.329   6.196  48.203  1.00  0.00    -0.003 C 
BRANCH  15  16
HETATM   16  C10 UNL     1      29.733   6.342  47.807  1.00  0.00    -0.002 C 
HETATM   17  C11 UNL     1      30.527   5.304  47.840  1.00  0.00     0.004 C 
BRANCH  17  18
HETATM   18  C12 UNL     1      31.946   5.456  47.440  1.00  0.00     0.249 C 
HETATM   19  F1  UNL     1      32.801   5.152  48.506  1.00  0.00    -0.251 F 
ENDBRANCH  17  18
ENDBRANCH  15  16
ENDBRANCH  13  14
ENDBRANCH  11  13
ENDBRANCH   7  11
BRANCH  10  20
HETATM   20  N4  UNL     1      26.618  -0.461  52.602  1.00  0.00    -0.374 N 
HETATM   21  H16 UNL     1      26.831  -1.073  51.785  1.00  0.00     0.160 HD
BRANCH  20  22
HETATM   22  C16 UNL     1      27.452  -0.740  53.739  1.00  0.00     0.183 C 
HETATM   23  C17 UNL     1      27.717   0.410  54.642  1.00  0.00     0.062 C 
HETATM   24  C18 UNL     1      29.167   0.747  54.375  1.00  0.00     0.181 C 
HETATM   25  O2  UNL     1      29.551  -0.135  53.338  1.00  0.00    -0.320 OA
HETATM   26  C19 UNL     1      28.761  -1.295  53.418  1.00  0.00     0.281 C 
HETATM   27  O3  UNL     1      29.059  -2.516  53.263  1.00  0.00    -0.263 OA
ENDBRANCH  20  22
ENDBRANCH  10  20
BRANCH   1  28
HETATM   28  O1  UNL     1      24.009  -0.814  53.723  1.00  0.00    -0.354 OA
HETATM   29  C1  UNL     1      22.732  -0.947  54.302  1.00  0.00     0.210 C 
ENDBRANCH   1  28
TORSDOF 8
ENDMDL
MODEL 3
REMARK VINA RESULT:      -7.6      1.411      1.838
REMARK  8 active torsions:
REMARK  status: ('A' for Active; 'I' for Inactive)
REMARK    1  A    between atoms: O1_2  and  C2_3 
REMARK    2  A    between atoms: C6_9  and  N3_10 
REMARK    3  A    between atoms: N3_10  and  C7_11 
REMARK    4  A    between atoms: C7_11  and  C8_12 
REMARK    5  A    between atoms: C9_13  and  C10_14 
REMARK    6  A    between atoms: C11_15  and  C12_16 
REMARK    7  A    between atoms: C15_20  and  N4_21 
REMARK    8  A    between atoms: N4_21  and  C16_22 
ROOT
HETATM    1  C2  UNL     1      24.172  -0.157  53.713  1.00  0.00     0.096 A 
HETATM    2  C3  UNL     1      22.934  -0.436  53.152  1.00  0.00     0.071 A 
HETATM    3  C4  UNL     1      22.351   0.422  52.243  1.00  0.00     0.075 A 
HETATM    4  N1  UNL     1      21.146   0.113  51.721  1.00  0.00    -0.241 NA
HETATM    5  C5  UNL     1      20.584   0.962  50.831  1.00  0.00     0.235 A 
HETATM    6  N2  UNL     1      21.243   2.079  50.498  1.00  0.00    -0.224 NA
HETATM    7  C6  UNL     1      22.444   2.437  50.985  1.00  0.00     0.137 A 
HETATM    8  C13 UNL     1      23.019   1.575  51.893  1.00  0.00     0.041 A 
HETATM    9  C14 UNL     1      24.227   1.828  52.452  1.00  0.00     0.049 A 
HETATM   10  C15 UNL     1      24.858   1.008  53.365  1.00  0.00     0.063 A 
ENDROOT
BRANCH   7  11
HETATM   11  N3  UNL     1      23.063   3.647  50.570  1.00  0.00    -0.371 N 
HETATM   12  H6  UNL     1      23.205   4.489  51.122  1.00  0.00     0.161 HD
BRANCH  11  13
HETATM   13  C7  UNL     1      23.564   3.739  49.221  1.00  0.00     0.148 C 
BRANCH  13  14
HETATM   14  C8  UNL     1      24.835   4.453  49.081  1.00  0.00    -0.007 C 
HETATM   15  C9  UNL     1      25.180   5.721  49.071  1.00  0.00    -0.003 C 
BRANCH  15  16
HETATM   16  C10 UNL     1      26.578   6.129  48.907  1.00  0.00    -0.002 C 
HETATM   17  C11 UNL     1      27.467   5.254  48.518  1.00  0.00     0.004 C 
BRANCH  17  18
HETATM   18  C12 UNL     1      28.880   5.670  48.354  1.00  0.00     0.249 C 
HETATM   19  F1  UNL     1      29.640   4.645  47.778  1.00  0.00    -0.251 F 
ENDBRANCH  17  18
ENDBRANCH  15  16
ENDBRANCH  13  14
ENDBRANCH  11  13
ENDBRANCH   7  11
BRANCH  10  20
HETATM   20  N4  UNL     1      26.102   1.359  53.897  1.00  0.00    -0.374 N 
HETATM   21  H16 UNL     1      26.136   1.898  54.789  1.00  0.00     0.160 HD
BRANCH  20  22
HETATM   22  C16 UNL     1      27.407   1.072  53.368  1.00  0.00     0.183 C 
HETATM   23  C17 UNL     1      27.481  -0.065  52.415  1.00  0.00     0.062 C 
HETATM   24  C18 UNL     1      28.184  -1.148  53.204  1.00  0.00     0.181 C 
HETATM   25  O2  UNL     1      28.358  -0.590  54.492  1.00  0.00    -0.320 OA
HETATM   26  C19 UNL     1      28.431   0.808  54.373  1.00  0.00     0.281 C 
HETATM   27  O3  UNL     1      29.169   1.656  54.955  1.00  0.00    -0.263 OA
ENDBRANCH  20  22
ENDBRANCH  10  20
BRANCH   1  28
HETATM   28  O1  UNL     1      24.728  -1.045  54.621  1.00  0.00    -0.354 OA
HETATM   29  C1  UNL     1      24.067  -1.301  55.838  1.00  0.00     0.210 C 
ENDBRANCH   1  28
TORSDOF 8
ENDMDL
MODEL 4
REMARK VINA RESULT:      -7.6      3.913      7.983
REMARK  8 active torsions:
REMARK  status: ('A' for Active; 'I' for Inactive)
REMARK    1  A    between atoms: O1_2  and  C2_3 
REMARK    2  A    between atoms: C6_9  and  N3_10 
REMARK    3  A    between atoms: N3_10  and  C7_11 
REMARK    4  A    between atoms: C7_11  and  C8_12 
REMARK    5  A    between atoms: C9_13  and  C10_14 
REMARK    6  A    between atoms: C11_15  and  C12_16 
REMARK    7  A    between atoms: C15_20  and  N4_21 
REMARK    8  A    between atoms: N4_21  and  C16_22 
ROOT
HETATM    1  C2  UNL     1      25.852   2.618  51.386  1.00  0.00     0.096 A 
HETATM    2  C3  UNL     1      27.023   2.529  52.124  1.00  0.00     0.071 A 
HETATM    3  C4  UNL     1      27.196   1.547  53.077  1.00  0.00     0.075 A 
HETATM    4  N1  UNL     1      28.351   1.496  53.772  1.00  0.00    -0.241 NA
HETATM    5  C5  UNL     1      28.509   0.528  54.704  1.00  0.00     0.235 A 
HETATM    6  N2  UNL     1      27.514  -0.345  54.903  1.00  0.00    -0.224 NA
HETATM    7  C6  UNL     1      26.344  -0.343  54.241  1.00  0.00     0.137 A 
HETATM    8  C13 UNL     1      26.180   0.642  53.292  1.00  0.00     0.041 A 
HETATM    9  C14 UNL     1      25.043   0.746  52.560  1.00  0.00     0.049 A 
HETATM   10  C15 UNL     1      24.815   1.707  51.596  1.00  0.00     0.063 A 
ENDROOT
BRANCH   7  11
HETATM   11  N3  UNL     1      25.347  -1.315  54.526  1.00  0.00    -0.371 N 
HETATM   12  H6  UNL     1      25.197  -2.202  54.052  1.00  0.00     0.161 HD
BRANCH  11  13
HETATM   13  C7  UNL     1      24.421  -1.060  55.601  1.00  0.00     0.148 C 
BRANCH  13  14
HETATM   14  C8  UNL     1      23.015  -1.308  55.277  1.00  0.00    -0.007 C 
HETATM   15  C9  UNL     1      22.291  -1.198  54.186  1.00  0.00    -0.003 C 
BRANCH  15  16
HETATM   16  C10 UNL     1      20.863  -1.532  54.182  1.00  0.00    -0.002 C 
HETATM   17  C11 UNL     1      20.024  -0.782  53.518  1.00  0.00     0.004 C 
BRANCH  17  18
HETATM   18  C12 UNL     1      18.581  -1.123  53.517  1.00  0.00     0.249 C 
HETATM   19  F1  UNL     1      18.056  -1.066  52.220  1.00  0.00    -0.251 F 
ENDBRANCH  17  18
ENDBRANCH  15  16
ENDBRANCH  13  14
ENDBRANCH  11  13
ENDBRANCH   7  11
BRANCH  10  20
HETATM   20  N4  UNL     1      23.604   1.741  50.898  1.00  0.00    -0.374 N 
HETATM   21  H16 UNL     1      23.614   1.965  49.880  1.00  0.00     0.160 HD
BRANCH  20  22
HETATM   22  C16 UNL     1      22.280   1.500  51.403  1.00  0.00     0.183 C 
HETATM   23  C17 UNL     1      21.477   0.498  50.655  1.00  0.00     0.062 C 
HETATM   24  C18 UNL     1      20.440   1.335  49.940  1.00  0.00     0.181 C 
HETATM   25  O2  UNL     1      20.781   2.670  50.257  1.00  0.00    -0.320 OA
HETATM   26  C19 UNL     1      21.436   2.685  51.500  1.00  0.00     0.281 C 
HETATM   27  O3  UNL     1      21.351   3.487  52.476  1.00  0.00    -0.263 OA
ENDBRANCH  20  22
ENDBRANCH  10  20
BRANCH   1  28
HETATM   28  O1  UNL     1      25.715   3.618  50.436  1.00  0.00    -0.354 OA
HETATM   29  C1  UNL     1      26.729   3.811  49.477  1.00  0.00     0.210 C 
ENDBRANCH   1  28
TORSDOF 8
ENDMDL
MODEL 5
REMARK VINA RESULT:      -7.5      2.654      5.158
REMARK  8 active torsions:
REMARK  status: ('A' for Active; 'I' for Inactive)
REMARK    1  A    between atoms: O1_2  and  C2_3 
REMARK    2  A    between atoms: C6_9  and  N3_10 
REMARK    3  A    between atoms: N3_10  and  C7_11 
REMARK    4  A    between atoms: C7_11  and  C8_12 
REMARK    5  A    between atoms: C9_13  and  C10_14 
REMARK    6  A    between atoms: C11_15  and  C12_16 
REMARK    7  A    between atoms: C15_20  and  N4_21 
REMARK    8  A    between atoms: N4_21  and  C16_22 
ROOT
HETATM    1  C2  UNL     1      23.798  -0.342  53.399  1.00  0.00     0.096 A 
HETATM    2  C3  UNL     1      25.133  -0.349  53.778  1.00  0.00     0.071 A 
HETATM    3  C4  UNL     1      26.025   0.571  53.269  1.00  0.00     0.075 A 
HETATM    4  N1  UNL     1      27.315   0.530  53.664  1.00  0.00    -0.241 NA
HETATM    5  C5  UNL     1      28.181   1.437  53.157  1.00  0.00     0.235 A 
HETATM    6  N2  UNL     1      27.729   2.344  52.282  1.00  0.00    -0.224 NA
HETATM    7  C6  UNL     1      26.458   2.433  51.854  1.00  0.00     0.137 A 
HETATM    8  C13 UNL     1      25.573   1.510  52.367  1.00  0.00     0.041 A 
HETATM    9  C14 UNL     1      24.265   1.499  52.010  1.00  0.00     0.049 A 
HETATM   10  C15 UNL     1      23.329   0.604  52.486  1.00  0.00     0.063 A 
ENDROOT
BRANCH   7  11
HETATM   11  N3  UNL     1      26.075   3.433  50.920  1.00  0.00    -0.371 N 
HETATM   12  H6  UNL     1      25.540   4.278  51.106  1.00  0.00     0.161 HD
BRANCH  11  13
HETATM   13  C7  UNL     1      26.467   3.278  49.542  1.00  0.00     0.148 C 
BRANCH  13  14
HETATM   14  C8  UNL     1      27.176   4.423  48.968  1.00  0.00    -0.007 C 
HETATM   15  C9  UNL     1      26.879   5.690  48.786  1.00  0.00    -0.003 C 
BRANCH  15  16
HETATM   16  C10 UNL     1      27.832   6.615  48.164  1.00  0.00    -0.002 C 
HETATM   17  C11 UNL     1      29.050   6.216  47.910  1.00  0.00     0.004 C 
BRANCH  17  18
HETATM   18  C12 UNL     1      30.010   7.153  47.281  1.00  0.00     0.249 C 
HETATM   19  F1  UNL     1      30.536   8.041  48.228  1.00  0.00    -0.251 F 
ENDBRANCH  17  18
ENDBRANCH  15  16
ENDBRANCH  13  14
ENDBRANCH  11  13
ENDBRANCH   7  11
BRANCH  10  20
HETATM   20  N4  UNL     1      22.002   0.664  52.051  1.00  0.00    -0.374 N 
HETATM   21  H16 UNL     1      21.790   0.473  51.048  1.00  0.00     0.160 HD
BRANCH  20  22
HETATM   22  C16 UNL     1      20.826   0.966  52.821  1.00  0.00     0.183 C 
HETATM   23  C17 UNL     1      19.811  -0.116  52.899  1.00  0.00     0.062 C 
HETATM   24  C18 UNL     1      18.681   0.392  52.029  1.00  0.00     0.181 C 
HETATM   25  O2  UNL     1      19.165   1.609  51.496  1.00  0.00    -0.320 OA
HETATM   26  C19 UNL     1      20.100   2.155  52.392  1.00  0.00     0.281 C 
HETATM   27  O3  UNL     1      20.298   3.349  52.762  1.00  0.00    -0.263 OA
ENDBRANCH  20  22
ENDBRANCH  10  20
BRANCH   1  28
HETATM   28  O1  UNL     1      22.930  -1.281  53.933  1.00  0.00    -0.354 OA
HETATM   29  C1  UNL     1      22.677  -1.287  55.319  1.00  0.00     0.210 C 
ENDBRANCH   1  28
TORSDOF 8
ENDMDL
MODEL 6
REMARK VINA RESULT:      -7.4      3.212      5.912
REMARK  8 active torsions:
REMARK  status: ('A' for Active; 'I' for Inactive)
REMARK    1  A    between atoms: O1_2  and  C2_3 
REMARK    2  A    between atoms: C6_9  and  N3_10 
REMARK    3  A    between atoms: N3_10  and  C7_11 
REMARK    4  A    between atoms: C7_11  and  C8_12 
REMARK    5  A    between atoms: C9_13  and  C10_14 
REMARK    6  A    between atoms: C11_15  and  C12_16 
REMARK    7  A    between atoms: C15_20  and  N4_21 
REMARK    8  A    between atoms: N4_21  and  C16_22 
ROOT
HETATM    1  C2  UNL     1      27.049   1.168  53.316  1.00  0.00     0.096 A 
HETATM    2  C3  UNL     1      26.658   0.170  54.196  1.00  0.00     0.071 A 
HETATM    3  C4  UNL     1      25.332  -0.182  54.336  1.00  0.00     0.075 A 
HETATM    4  N1  UNL     1      24.993  -1.159  55.203  1.00  0.00    -0.241 NA
HETATM    5  C5  UNL     1      23.689  -1.495  55.330  1.00  0.00     0.235 A 
HETATM    6  N2  UNL     1      22.780  -0.847  54.592  1.00  0.00    -0.224 NA
HETATM    7  C6  UNL     1      23.058   0.132  53.714  1.00  0.00     0.137 A 
HETATM    8  C13 UNL     1      24.385   0.477  53.582  1.00  0.00     0.041 A 
HETATM    9  C14 UNL     1      24.789   1.450  52.728  1.00  0.00     0.049 A 
HETATM   10  C15 UNL     1      26.099   1.843  52.548  1.00  0.00     0.063 A 
ENDROOT
BRANCH   7  11
HETATM   11  N3  UNL     1      22.019   0.761  52.975  1.00  0.00    -0.371 N 
HETATM   12  H6  UNL     1      21.691   1.719  53.065  1.00  0.00     0.161 HD
BRANCH  11  13
HETATM   13  C7  UNL     1      21.322  -0.006  51.973  1.00  0.00     0.148 C 
BRANCH  13  14
HETATM   14  C8  UNL     1      21.241   0.628  50.656  1.00  0.00    -0.007 C 
HETATM   15  C9  UNL     1      22.091   1.286  49.899  1.00  0.00    -0.003 C 
BRANCH  15  16
HETATM   16  C10 UNL     1      21.695   1.814  48.590  1.00  0.00    -0.002 C 
HETATM   17  C11 UNL     1      22.451   2.696  47.991  1.00  0.00     0.004 C 
BRANCH  17  18
HETATM   18  C12 UNL     1      22.048   3.227  46.668  1.00  0.00     0.249 C 
HETATM   19  F1  UNL     1      21.471   4.497  46.794  1.00  0.00    -0.251 F 
ENDBRANCH  17  18
ENDBRANCH  15  16
ENDBRANCH  13  14
ENDBRANCH  11  13
ENDBRANCH   7  11
BRANCH  10  20
HETATM   20  N4  UNL     1      26.418   2.866  51.650  1.00  0.00    -0.374 N 
HETATM   21  H16 UNL     1      27.240   3.475  51.849  1.00  0.00     0.160 HD
BRANCH  20  22
HETATM   22  C16 UNL     1      25.745   3.218  50.429  1.00  0.00     0.183 C 
HETATM   23  C17 UNL     1      26.626   3.501  49.266  1.00  0.00     0.062 C 
HETATM   24  C18 UNL     1      26.520   5.000  49.093  1.00  0.00     0.181 C 
HETATM   25  O2  UNL     1      25.703   5.423  50.168  1.00  0.00    -0.320 OA
HETATM   26  C19 UNL     1      24.851   4.365  50.531  1.00  0.00     0.281 C 
HETATM   27  O3  UNL     1      23.630   4.358  50.864  1.00  0.00    -0.263 OA
ENDBRANCH  20  22
ENDBRANCH  10  20
BRANCH   1  28
HETATM   28  O1  UNL     1      28.392   1.493  53.202  1.00  0.00    -0.354 OA
HETATM   29  C1  UNL     1      29.355   0.722  53.881  1.00  0.00     0.210 C 
ENDBRANCH   1  28
TORSDOF 8
ENDMDL
MODEL 7
REMARK VINA RESULT:      -7.3      2.192      3.136
REMARK  8 active torsions:
REMARK  status: ('A' for Active; 'I' for Inactive)
REMARK    1  A    between atoms: O1_2  and  C2_3 
REMARK    2  A    between atoms: C6_9  and  N3_10 
REMARK    3  A    between atoms: N3_10  and  C7_11 
REMARK    4  A    between atoms: C7_11  and  C8_12 
REMARK    5  A    between atoms: C9_13  and  C10_14 
REMARK    6  A    between atoms: C11_15  and  C12_16 
REMARK    7  A    between atoms: C15_20  and  N4_21 
REMARK    8  A    between atoms: N4_21  and  C16_22 
ROOT
HETATM    1  C2  UNL     1      24.732   1.506  52.305  1.00  0.00     0.096 A 
HETATM    2  C3  UNL     1      23.821   2.448  51.849  1.00  0.00     0.071 A 
HETATM    3  C4  UNL     1      24.198   3.436  50.965  1.00  0.00     0.075 A 
HETATM    4  N1  UNL     1      23.281   4.333  50.545  1.00  0.00    -0.241 NA
HETATM    5  C5  UNL     1      23.662   5.298  49.678  1.00  0.00     0.235 A 
HETATM    6  N2  UNL     1      24.936   5.330  49.265  1.00  0.00    -0.224 NA
HETATM    7  C6  UNL     1      25.890   4.465  49.648  1.00  0.00     0.137 A 
HETATM    8  C13 UNL     1      25.505   3.481  50.532  1.00  0.00     0.041 A 
HETATM    9  C14 UNL     1      26.379   2.550  50.990  1.00  0.00     0.049 A 
HETATM   10  C15 UNL     1      26.059   1.541  51.875  1.00  0.00     0.063 A 
ENDROOT
BRANCH   7  11
HETATM   11  N3  UNL     1      27.217   4.582  49.153  1.00  0.00    -0.371 N 
HETATM   12  H6  UNL     1      27.958   3.888  49.202  1.00  0.00     0.161 HD
BRANCH  11  13
HETATM   13  C7  UNL     1      27.604   5.807  48.499  1.00  0.00     0.148 C 
BRANCH  13  14
HETATM   14  C8  UNL     1      28.994   5.851  48.043  1.00  0.00    -0.007 C 
HETATM   15  C9  UNL     1      29.774   6.794  47.562  1.00  0.00    -0.003 C 
BRANCH  15  16
HETATM   16  C10 UNL     1      31.163   6.516  47.184  1.00  0.00    -0.002 C 
HETATM   17  C11 UNL     1      31.637   5.304  47.307  1.00  0.00     0.004 C 
BRANCH  17  18
HETATM   18  C12 UNL     1      33.042   5.026  46.924  1.00  0.00     0.249 C 
HETATM   19  F1  UNL     1      33.099   4.134  45.846  1.00  0.00    -0.251 F 
ENDBRANCH  17  18
ENDBRANCH  15  16
ENDBRANCH  13  14
ENDBRANCH  11  13
ENDBRANCH   7  11
BRANCH  10  20
HETATM   20  N4  UNL     1      27.033   0.632  52.299  1.00  0.00    -0.374 N 
HETATM   21  H16 UNL     1      27.258  -0.186  51.694  1.00  0.00     0.160 HD
BRANCH  20  22
HETATM   22  C16 UNL     1      27.810   0.662  53.508  1.00  0.00     0.183 C 
HETATM   23  C17 UNL     1      29.285   0.658  53.328  1.00  0.00     0.062 C 
HETATM   24  C18 UNL     1      29.694  -0.730  53.769  1.00  0.00     0.181 C 
HETATM   25  O2  UNL     1      28.474  -1.383  54.062  1.00  0.00    -0.320 OA
HETATM   26  C19 UNL     1      27.527  -0.418  54.446  1.00  0.00     0.281 C 
HETATM   27  O3  UNL     1      26.645  -0.433  55.354  1.00  0.00    -0.263 OA
ENDBRANCH  20  22
ENDBRANCH  10  20
BRANCH   1  28
HETATM   28  O1  UNL     1      24.316   0.525  53.193  1.00  0.00    -0.354 OA
HETATM   29  C1  UNL     1      23.072  -0.107  53.000  1.00  0.00     0.210 C 
ENDBRANCH   1  28
TORSDOF 8
ENDMDL
MODEL 8
REMARK VINA RESULT:      -7.2      4.246      7.102
REMARK  8 active torsions:
REMARK  status: ('A' for Active; 'I' for Inactive)
REMARK    1  A    between atoms: O1_2  and  C2_3 
REMARK    2  A    between atoms: C6_9  and  N3_10 
REMARK    3  A    between atoms: N3_10  and  C7_11 
REMARK    4  A    between atoms: C7_11  and  C8_12 
REMARK    5  A    between atoms: C9_13  and  C10_14 
REMARK    6  A    between atoms: C11_15  and  C12_16 
REMARK    7  A    between atoms: C15_20  and  N4_21 
REMARK    8  A    between atoms: N4_21  and  C16_22 
ROOT
HETATM    1  C2  UNL     1      25.416   3.226  50.249  1.00  0.00     0.096 A 
HETATM    2  C3  UNL     1      24.343   3.206  49.370  1.00  0.00     0.071 A 
HETATM    3  C4  UNL     1      23.101   2.758  49.768  1.00  0.00     0.075 A 
HETATM    4  N1  UNL     1      22.083   2.755  48.881  1.00  0.00    -0.241 NA
HETATM    5  C5  UNL     1      20.870   2.313  49.283  1.00  0.00     0.235 A 
HETATM    6  N2  UNL     1      20.720   1.896  50.546  1.00  0.00    -0.224 NA
HETATM    7  C6  UNL     1      21.695   1.877  51.471  1.00  0.00     0.137 A 
HETATM    8  C13 UNL     1      22.933   2.325  51.065  1.00  0.00     0.041 A 
HETATM    9  C14 UNL     1      23.994   2.354  51.908  1.00  0.00     0.049 A 
HETATM   10  C15 UNL     1      25.258   2.790  51.565  1.00  0.00     0.063 A 
ENDROOT
BRANCH   7  11
HETATM   11  N3  UNL     1      21.436   1.413  52.789  1.00  0.00    -0.371 N 
HETATM   12  H6  UNL     1      21.175   1.969  53.599  1.00  0.00     0.161 HD
BRANCH  11  13
HETATM   13  C7  UNL     1      21.542   0.000  53.057  1.00  0.00     0.148 C 
BRANCH  13  14
HETATM   14  C8  UNL     1      20.277  -0.735  53.005  1.00  0.00    -0.007 C 
HETATM   15  C9  UNL     1      19.020  -0.417  53.221  1.00  0.00    -0.003 C 
BRANCH  15  16
HETATM   16  C10 UNL     1      17.948  -1.408  53.083  1.00  0.00    -0.002 C 
HETATM   17  C11 UNL     1      18.079  -2.584  53.637  1.00  0.00     0.004 C 
BRANCH  17  18
HETATM   18  C12 UNL     1      16.993  -3.584  53.495  1.00  0.00     0.249 C 
HETATM   19  F1  UNL     1      17.512  -4.839  53.155  1.00  0.00    -0.251 F 
ENDBRANCH  17  18
ENDBRANCH  15  16
ENDBRANCH  13  14
ENDBRANCH  11  13
ENDBRANCH   7  11
BRANCH  10  20
HETATM   20  N4  UNL     1      26.295   2.772  52.502  1.00  0.00    -0.374 N 
HETATM   21  H16 UNL     1      26.338   3.525  53.223  1.00  0.00     0.160 HD
BRANCH  20  22
HETATM   22  C16 UNL     1      27.364   1.820  52.627  1.00  0.00     0.183 C 
HETATM   23  C17 UNL     1      26.989   0.397  52.421  1.00  0.00     0.062 C 
HETATM   24  C18 UNL     1      27.058  -0.195  53.812  1.00  0.00     0.181 C 
HETATM   25  O2  UNL     1      27.364   0.903  54.649  1.00  0.00    -0.320 OA
HETATM   26  C19 UNL     1      28.074   1.858  53.900  1.00  0.00     0.281 C 
HETATM   27  O3  UNL     1      29.067   2.581  54.202  1.00  0.00    -0.263 OA
ENDBRANCH  20  22
ENDBRANCH  10  20
BRANCH   1  28
HETATM   28  O1  UNL     1      26.649   3.685  49.813  1.00  0.00    -0.354 OA
HETATM   29  C1  UNL     1      26.718   4.832  48.998  1.00  0.00     0.210 C 
ENDBRANCH   1  28
TORSDOF 8
ENDMDL
MODEL 9
REMARK VINA RESULT:      -7.1      3.441      6.002
REMARK  8 active torsions:
REMARK  status: ('A' for Active; 'I' for Inactive)
REMARK    1  A    between atoms: O1_2  and  C2_3 
REMARK    2  A    between atoms: C6_9  and  N3_10 
REMARK    3  A    between atoms: N3_10  and  C7_11 
REMARK    4  A    between atoms: C7_11  and  C8_12 
REMARK    5  A    between atoms: C9_13  and  C10_14 
REMARK    6  A    between atoms: C11_15  and  C12_16 
REMARK    7  A    between atoms: C15_20  and  N4_21 
REMARK    8  A    between atoms: N4_21  and  C16_22 
ROOT
HETATM    1  C2  UNL     1      26.011   0.745  52.594  1.00  0.00     0.096 A 
HETATM    2  C3  UNL     1      26.717   1.446  51.627  1.00  0.00     0.071 A 
HETATM    3  C4  UNL     1      26.170   2.543  50.995  1.00  0.00     0.075 A 
HETATM    4  N1  UNL     1      26.890   3.197  50.060  1.00  0.00    -0.241 NA
HETATM    5  C5  UNL     1      26.342   4.271  49.448  1.00  0.00     0.235 A 
HETATM    6  N2  UNL     1      25.104   4.648  49.790  1.00  0.00    -0.224 NA
HETATM    7  C6  UNL     1      24.341   4.036  50.712  1.00  0.00     0.137 A 
HETATM    8  C13 UNL     1      24.896   2.942  51.337  1.00  0.00     0.041 A 
HETATM    9  C14 UNL     1      24.223   2.243  52.285  1.00  0.00     0.049 A 
HETATM   10  C15 UNL     1      24.720   1.140  52.948  1.00  0.00     0.063 A 
ENDROOT
BRANCH   7  11
HETATM   11  N3  UNL     1      23.035   4.514  51.005  1.00  0.00    -0.371 N 
HETATM   12  H6  UNL     1      22.711   4.931  51.873  1.00  0.00     0.161 HD
BRANCH  11  13
HETATM   13  C7  UNL     1      22.020   4.418  49.986  1.00  0.00     0.148 C 
BRANCH  13  14
HETATM   14  C8  UNL     1      21.209   3.200  50.035  1.00  0.00    -0.007 C 
HETATM   15  C9  UNL     1      21.281   2.024  49.452  1.00  0.00    -0.003 C 
BRANCH  15  16
HETATM   16  C10 UNL     1      20.284   0.981  49.715  1.00  0.00    -0.002 C 
HETATM   17  C11 UNL     1      19.217   1.266  50.413  1.00  0.00     0.004 C 
BRANCH  17  18
HETATM   18  C12 UNL     1      18.212   0.209  50.677  1.00  0.00     0.249 C 
HETATM   19  F1  UNL     1      17.756   0.272  51.999  1.00  0.00    -0.251 F 
ENDBRANCH  17  18
ENDBRANCH  15  16
ENDBRANCH  13  14
ENDBRANCH  11  13
ENDBRANCH   7  11
BRANCH  10  20
HETATM   20  N4  UNL     1      23.945   0.477  53.905  1.00  0.00    -0.374 N 
HETATM   21  H16 UNL     1      24.046   0.742  54.908  1.00  0.00     0.160 HD
BRANCH  20  22
HETATM   22  C16 UNL     1      22.982  -0.570  53.698  1.00  0.00     0.183 C 
HETATM   23  C17 UNL     1      21.901  -0.268  52.724  1.00  0.00     0.062 C 
HETATM   24  C18 UNL     1      20.677  -0.086  53.593  1.00  0.00     0.181 C 
HETATM   25  O2  UNL     1      21.161  -0.207  54.917  1.00  0.00    -0.320 OA
HETATM   26  C19 UNL     1      22.304  -1.025  54.906  1.00  0.00     0.281 C 
HETATM   27  O3  UNL     1      22.687  -1.930  55.704  1.00  0.00    -0.263 OA
ENDBRANCH  20  22
ENDBRANCH  10  20
BRANCH   1  28
HETATM   28  O1  UNL     1      26.595  -0.351  53.209  1.00  0.00    -0.354 OA
HETATM   29  C1  UNL     1      27.635  -0.156  54.139  1.00  0.00     0.210 C 
ENDBRANCH   1  28
TORSDOF 8
ENDMDL
