MODEL 1
REMARK VINA RESULT:      -8.2      0.000      0.000
REMARK  5 active torsions:
REMARK  status: ('A' for Active; 'I' for Inactive)
REMARK    1  A    between atoms: C2_2  and  S1_3 
REMARK    2  A    between atoms: C13_15  and  C14_16 
REMARK    3  A    between atoms: C14_16  and  C15_17 
REMARK    4  A    between atoms: C14_16  and  N2_24 
REMARK    5  A    between atoms: C15_17  and  C16_18 
ROOT
HETATM    1  S1  UNL     1      24.966   0.124  53.235  1.00  0.00    -0.257 SA
HETATM    2  C3  UNL     1      26.062  -0.773  52.186  1.00  0.00     0.086 C 
HETATM    3  C4  UNL     1      27.389  -1.102  52.736  1.00  0.00    -0.034 A 
HETATM    4  C5  UNL     1      27.791  -2.460  52.679  1.00  0.00     0.009 A 
HETATM    5  C6  UNL     1      28.997  -2.615  53.212  1.00  0.00     0.001 A 
HETATM    6  C7  UNL     1      29.918  -1.796  53.793  1.00  0.00     0.001 A 
HETATM    7  C8  UNL     1      29.477  -0.487  53.824  1.00  0.00     0.019 A 
HETATM    8  C9  UNL     1      28.247  -0.135  53.311  1.00  0.00     0.008 A 
HETATM    9  S2  UNL     1      28.064   1.652  53.553  1.00  0.00    -0.112 SA
HETATM   10  C10 UNL     1      26.650   2.270  52.640  1.00  0.00     0.070 A 
HETATM   11  C11 UNL     1      26.009   2.463  51.557  1.00  0.00    -0.007 A 
HETATM   12  C12 UNL     1      24.998   1.849  52.456  1.00  0.00     0.040 A 
HETATM   13  C13 UNL     1      23.920   1.484  52.705  1.00  0.00     0.036 A 
HETATM   14  C22 UNL     1      24.217   3.054  53.052  1.00  0.00     0.024 C 
HETATM   15  O1  UNL     1      25.615   2.938  53.483  1.00  0.00     0.000 OA
HETATM   16  H6  UNL     1      26.450   0.555  54.665  1.00  0.00     0.075 HD
ENDROOT
BRANCH  13  17
HETATM   17  C14 UNL     1      22.551   1.243  53.073  1.00  0.00     0.243 C 
BRANCH  17  18
HETATM   18  C15 UNL     1      21.770   2.301  52.242  1.00  0.00     0.096 C 
BRANCH  18  19
HETATM   19  C16 UNL     1      21.835   2.041  50.802  1.00  0.00     0.036 A 
HETATM   20  C17 UNL     1      22.530   2.927  50.035  1.00  0.00     0.027 A 
HETATM   21  C18 UNL     1      22.852   3.025  48.667  1.00  0.00     0.003 A 
HETATM   22  C19 UNL     1      22.260   1.893  48.074  1.00  0.00     0.019 A 
HETATM   23  C20 UNL     1      21.537   0.925  48.716  1.00  0.00     0.117 A 
HETATM   24  N1  UNL     1      21.367   1.050  50.034  1.00  0.00    -0.266 NA
ENDBRANCH  18  19
ENDBRANCH  17  18
BRANCH  17  25
HETATM   25  N2  UNL     1      21.963   0.031  52.538  1.00  0.00     0.085 N 
HETATM   26  C21 UNL     1      20.832  -0.467  53.205  1.00  0.00     0.307 C 
HETATM   27  H21 UNL     1      22.756  -0.640  52.451  1.00  0.00     0.315 HD
ENDBRANCH  17  25
ENDBRANCH  13  17
BRANCH   1  28
HETATM   28  C2  UNL     1      24.110  -0.673  54.278  1.00  0.00     0.042 C 
HETATM   29  C1  UNL     1      24.818  -1.118  55.555  1.00  0.00     0.014 C 
ENDBRANCH   1  28
TORSDOF 5
ENDMDL
MODEL 2
REMARK VINA RESULT:      -8.1      3.104      5.546
REMARK  5 active torsions:
REMARK  status: ('A' for Active; 'I' for Inactive)
REMARK    1  A    between atoms: C2_2  and  S1_3 
REMARK    2  A    between atoms: C13_15  and  C14_16 
REMARK    3  A    between atoms: C14_16  and  C15_17 
REMARK    4  A    between atoms: C14_16  and  N2_24 
REMARK    5  A    between atoms: C15_17  and  C16_18 
ROOT
HETATM    1  S1  UNL     1      24.167   1.991  52.096  1.00  0.00    -0.257 SA
HETATM    2  C3  UNL     1      23.252   0.520  51.774  1.00  0.00     0.086 C 
HETATM    3  C4  UNL     1      22.733  -0.211  52.943  1.00  0.00    -0.034 A 
HETATM    4  C5  UNL     1      21.350  -0.520  52.949  1.00  0.00     0.009 A 
HETATM    5  C6  UNL     1      21.018  -1.170  54.058  1.00  0.00     0.001 A 
HETATM    6  C7  UNL     1      21.678  -1.597  55.171  1.00  0.00     0.001 A 
HETATM    7  C8  UNL     1      23.020  -1.271  55.115  1.00  0.00     0.019 A 
HETATM    8  C9  UNL     1      23.547  -0.597  54.035  1.00  0.00     0.008 A 
HETATM    9  S2  UNL     1      25.315  -0.371  54.363  1.00  0.00    -0.112 SA
HETATM   10  C10 UNL     1      26.160   0.205  52.890  1.00  0.00     0.070 A 
HETATM   11  C11 UNL     1      26.517   0.072  51.675  1.00  0.00    -0.007 A 
HETATM   12  C12 UNL     1      25.940   1.441  51.724  1.00  0.00     0.040 A 
HETATM   13  C13 UNL     1      25.674   2.470  51.245  1.00  0.00     0.036 A 
HETATM   14  C22 UNL     1      27.166   2.379  51.908  1.00  0.00     0.024 C 
HETATM   15  O1  UNL     1      26.861   1.513  53.053  1.00  0.00     0.000 OA
HETATM   16  H6  UNL     1      24.307   1.626  54.165  1.00  0.00     0.075 HD
ENDROOT
BRANCH  13  17
HETATM   17  C14 UNL     1      25.552   3.799  50.710  1.00  0.00     0.243 C 
BRANCH  17  18
HETATM   18  C15 UNL     1      26.468   3.758  49.452  1.00  0.00     0.096 C 
BRANCH  18  19
HETATM   19  C16 UNL     1      26.935   5.090  49.058  1.00  0.00     0.036 A 
HETATM   20  C17 UNL     1      28.164   5.176  48.476  1.00  0.00     0.027 A 
HETATM   21  C18 UNL     1      28.943   6.220  47.940  1.00  0.00     0.003 A 
HETATM   22  C19 UNL     1      28.160   7.380  48.110  1.00  0.00     0.019 A 
HETATM   23  C20 UNL     1      26.917   7.443  48.675  1.00  0.00     0.117 A 
HETATM   24  N1  UNL     1      26.375   6.304  49.113  1.00  0.00    -0.266 NA
ENDBRANCH  18  19
ENDBRANCH  17  18
BRANCH  17  25
HETATM   25  N2  UNL     1      24.285   4.105  50.078  1.00  0.00     0.085 N 
HETATM   26  C21 UNL     1      24.010   3.447  48.867  1.00  0.00     0.307 C 
HETATM   27  H21 UNL     1      24.249   5.146  50.032  1.00  0.00     0.315 HD
ENDBRANCH  17  25
ENDBRANCH  13  17
BRANCH   1  28
HETATM   28  C2  UNL     1      23.380   3.326  52.325  1.00  0.00     0.042 C 
HETATM   29  C1  UNL     1      21.857   3.246  52.271  1.00  0.00     0.014 C 
ENDBRANCH   1  28
TORSDOF 5
ENDMDL
MODEL 3
REMARK VINA RESULT:      -7.9      3.187      5.727
REMARK  5 active torsions:
REMARK  status: ('A' for Active; 'I' for Inactive)
REMARK    1  A    between atoms: C2_2  and  S1_3 
REMARK    2  A    between atoms: C13_15  and  C14_16 
REMARK    3  A    between atoms: C14_16  and  C15_17 
REMARK    4  A    between atoms: C14_16  and  N2_24 
REMARK    5  A    between atoms: C15_17  and  C16_18 
ROOT
HETATM    1  S1  UNL     1      23.015   3.168  50.591  1.00  0.00    -0.257 SA
HETATM    2  C3  UNL     1      23.805   4.732  50.777  1.00  0.00     0.086 C 
HETATM    3  C4  UNL     1      25.034   4.954  49.997  1.00  0.00    -0.034 A 
HETATM    4  C5  UNL     1      25.088   6.121  49.195  1.00  0.00     0.009 A 
HETATM    5  C6  UNL     1      26.243   6.192  48.545  1.00  0.00     0.001 A 
HETATM    6  C7  UNL     1      27.364   5.421  48.464  1.00  0.00     0.001 A 
HETATM    7  C8  UNL     1      27.261   4.299  49.263  1.00  0.00     0.019 A 
HETATM    8  C9  UNL     1      26.131   4.059  50.016  1.00  0.00     0.008 A 
HETATM    9  S2  UNL     1      26.404   2.501  50.901  1.00  0.00    -0.112 SA
HETATM   10  C10 UNL     1      25.143   2.257  52.151  1.00  0.00     0.070 A 
HETATM   11  C11 UNL     1      24.517   2.614  53.201  1.00  0.00    -0.007 A 
HETATM   12  C12 UNL     1      23.432   2.318  52.231  1.00  0.00     0.040 A 
HETATM   13  C13 UNL     1      22.310   2.207  51.935  1.00  0.00     0.036 A 
HETATM   14  C22 UNL     1      23.001   0.860  52.554  1.00  0.00     0.024 C 
HETATM   15  O1  UNL     1      24.347   1.005  51.987  1.00  0.00     0.000 OA
HETATM   16  H6  UNL     1      24.627   2.313  49.541  1.00  0.00     0.075 HD
ENDROOT
BRANCH  13  17
HETATM   17  C14 UNL     1      20.944   1.863  51.648  1.00  0.00     0.243 C 
BRANCH  17  18
HETATM   18  C15 UNL     1      20.759   0.507  52.388  1.00  0.00     0.096 C 
BRANCH  18  19
HETATM   19  C16 UNL     1      19.409  -0.040  52.225  1.00  0.00     0.036 A 
HETATM   20  C17 UNL     1      18.947  -0.871  53.201  1.00  0.00     0.027 A 
HETATM   21  C18 UNL     1      17.739  -1.558  53.437  1.00  0.00     0.003 A 
HETATM   22  C19 UNL     1      16.915  -1.227  52.343  1.00  0.00     0.019 A 
HETATM   23  C20 UNL     1      17.244  -0.410  51.297  1.00  0.00     0.117 A 
HETATM   24  N1  UNL     1      18.463   0.136  51.295  1.00  0.00    -0.266 NA
ENDBRANCH  18  19
ENDBRANCH  17  18
BRANCH  17  25
HETATM   25  N2  UNL     1      19.942   2.653  52.336  1.00  0.00     0.085 N 
HETATM   26  C21 UNL     1      19.317   3.665  51.588  1.00  0.00     0.307 C 
HETATM   27  H21 UNL     1      20.405   2.975  53.212  1.00  0.00     0.315 HD
ENDBRANCH  17  25
ENDBRANCH  13  17
BRANCH   1  28
HETATM   28  C2  UNL     1      22.041   2.961  49.381  1.00  0.00     0.042 C 
HETATM   29  C1  UNL     1      22.664   2.501  48.066  1.00  0.00     0.014 C 
ENDBRANCH   1  28
TORSDOF 5
ENDMDL
MODEL 4
REMARK VINA RESULT:      -7.9      1.661      2.283
REMARK  5 active torsions:
REMARK  status: ('A' for Active; 'I' for Inactive)
REMARK    1  A    between atoms: C2_2  and  S1_3 
REMARK    2  A    between atoms: C13_15  and  C14_16 
REMARK    3  A    between atoms: C14_16  and  C15_17 
REMARK    4  A    between atoms: C14_16  and  N2_24 
REMARK    5  A    between atoms: C15_17  and  C16_18 
ROOT
HETATM    1  S1  UNL     1      24.900  -0.122  53.258  1.00  0.00    -0.257 SA
HETATM    2  C3  UNL     1      26.165  -0.887  52.300  1.00  0.00     0.086 C 
HETATM    3  C4  UNL     1      27.537  -0.816  52.832  1.00  0.00    -0.034 A 
HETATM    4  C5  UNL     1      28.247  -2.037  52.950  1.00  0.00     0.009 A 
HETATM    5  C6  UNL     1      29.461  -1.829  53.446  1.00  0.00     0.001 A 
HETATM    6  C7  UNL     1      30.169  -0.743  53.863  1.00  0.00     0.001 A 
HETATM    7  C8  UNL     1      29.434   0.419  53.727  1.00  0.00     0.019 A 
HETATM    8  C9  UNL     1      28.150   0.398  53.225  1.00  0.00     0.008 A 
HETATM    9  S2  UNL     1      27.555   2.110  53.219  1.00  0.00    -0.112 SA
HETATM   10  C10 UNL     1      26.027   2.242  52.290  1.00  0.00     0.070 A 
HETATM   11  C11 UNL     1      25.348   2.120  51.220  1.00  0.00    -0.007 A 
HETATM   12  C12 UNL     1      24.518   1.429  52.242  1.00  0.00     0.040 A 
HETATM   13  C13 UNL     1      23.559   0.867  52.587  1.00  0.00     0.036 A 
HETATM   14  C22 UNL     1      23.483   2.496  52.694  1.00  0.00     0.024 C 
HETATM   15  O1  UNL     1      24.873   2.771  53.075  1.00  0.00     0.000 OA
HETATM   16  H6  UNL     1      26.256   0.848  54.545  1.00  0.00     0.075 HD
ENDROOT
BRANCH  13  17
HETATM   17  C14 UNL     1      22.289   0.374  53.047  1.00  0.00     0.243 C 
BRANCH  17  18
HETATM   18  C15 UNL     1      21.508   0.123  51.724  1.00  0.00     0.096 C 
BRANCH  18  19
HETATM   19  C16 UNL     1      20.278   0.916  51.641  1.00  0.00     0.036 A 
HETATM   20  C17 UNL     1      19.112   0.245  51.430  1.00  0.00     0.027 A 
HETATM   21  C18 UNL     1      17.756   0.610  51.324  1.00  0.00     0.003 A 
HETATM   22  C19 UNL     1      17.744   2.010  51.488  1.00  0.00     0.019 A 
HETATM   23  C20 UNL     1      18.831   2.810  51.705  1.00  0.00     0.117 A 
HETATM   24  N1  UNL     1      20.029   2.225  51.771  1.00  0.00    -0.266 NA
ENDBRANCH  18  19
ENDBRANCH  17  18
BRANCH  17  25
HETATM   25  N2  UNL     1      22.296  -0.973  53.582  1.00  0.00     0.085 N 
HETATM   26  C21 UNL     1      21.104  -1.420  54.177  1.00  0.00     0.307 C 
HETATM   27  H21 UNL     1      23.138  -1.016  54.196  1.00  0.00     0.315 HD
ENDBRANCH  17  25
ENDBRANCH  13  17
BRANCH   1  28
HETATM   28  C2  UNL     1      24.265  -0.931  54.441  1.00  0.00     0.042 C 
HETATM   29  C1  UNL     1      25.076  -1.016  55.731  1.00  0.00     0.014 C 
ENDBRANCH   1  28
TORSDOF 5
ENDMDL
MODEL 5
REMARK VINA RESULT:      -7.7      2.568      7.283
REMARK  5 active torsions:
REMARK  status: ('A' for Active; 'I' for Inactive)
REMARK    1  A    between atoms: C2_2  and  S1_3 
REMARK    2  A    between atoms: C13_15  and  C14_16 
REMARK    3  A    between atoms: C14_16  and  C15_17 
REMARK    4  A    between atoms: C14_16  and  N2_24 
REMARK    5  A    between atoms: C15_17  and  C16_18 
ROOT
HETATM    1  S1  UNL     1      22.792   1.190  52.210  1.00  0.00    -0.257 SA
HETATM    2  C3  UNL     1      21.924   0.567  50.808  1.00  0.00     0.086 C 
HETATM    3  C4  UNL     1      20.474   0.824  50.755  1.00  0.00    -0.034 A 
HETATM    4  C5  UNL     1      19.969   1.424  49.574  1.00  0.00     0.009 A 
HETATM    5  C6  UNL     1      18.656   1.604  49.664  1.00  0.00     0.001 A 
HETATM    6  C7  UNL     1      17.702   1.358  50.604  1.00  0.00     0.001 A 
HETATM    7  C8  UNL     1      18.246   0.775  51.732  1.00  0.00     0.019 A 
HETATM    8  C9  UNL     1      19.595   0.508  51.818  1.00  0.00     0.008 A 
HETATM    9  S2  UNL     1      19.884  -0.244  53.442  1.00  0.00    -0.112 SA
HETATM   10  C10 UNL     1      21.540  -0.924  53.536  1.00  0.00     0.070 A 
HETATM   11  C11 UNL     1      22.457  -1.711  53.132  1.00  0.00    -0.007 A 
HETATM   12  C12 UNL     1      23.133  -0.389  53.197  1.00  0.00     0.040 A 
HETATM   13  C13 UNL     1      24.068   0.300  53.107  1.00  0.00     0.036 A 
HETATM   14  C22 UNL     1      23.847  -0.379  54.577  1.00  0.00     0.024 C 
HETATM   15  O1  UNL     1      22.380  -0.352  54.629  1.00  0.00     0.000 OA
HETATM   16  H6  UNL     1      21.037   1.675  53.267  1.00  0.00     0.075 HD
ENDROOT
BRANCH  13  17
HETATM   17  C14 UNL     1      25.263   1.093  53.205  1.00  0.00     0.243 C 
BRANCH  17  18
HETATM   18  C15 UNL     1      26.048   0.407  54.361  1.00  0.00     0.096 C 
BRANCH  18  19
HETATM   19  C16 UNL     1      27.096  -0.492  53.869  1.00  0.00     0.036 A 
HETATM   20  C17 UNL     1      28.388  -0.153  54.134  1.00  0.00     0.027 A 
HETATM   21  C18 UNL     1      29.645  -0.737  53.879  1.00  0.00     0.003 A 
HETATM   22  C19 UNL     1      29.356  -1.930  53.187  1.00  0.00     0.019 A 
HETATM   23  C20 UNL     1      28.114  -2.394  52.853  1.00  0.00     0.117 A 
HETATM   24  N1  UNL     1      27.060  -1.657  53.210  1.00  0.00    -0.266 NA
ENDBRANCH  18  19
ENDBRANCH  17  18
BRANCH  17  25
HETATM   25  N2  UNL     1      26.219   0.923  52.129  1.00  0.00     0.085 N 
HETATM   26  C21 UNL     1      26.747   2.096  51.565  1.00  0.00     0.307 C 
HETATM   27  H21 UNL     1      25.754   0.280  51.453  1.00  0.00     0.315 HD
ENDBRANCH  17  25
ENDBRANCH  13  17
BRANCH   1  28
HETATM   28  C2  UNL     1      23.265   2.684  52.193  1.00  0.00     0.042 C 
HETATM   29  C1  UNL     1      22.175   3.752  52.228  1.00  0.00     0.014 C 
ENDBRANCH   1  28
TORSDOF 5
ENDMDL
MODEL 6
REMARK VINA RESULT:      -7.4      2.789      7.619
REMARK  5 active torsions:
REMARK  status: ('A' for Active; 'I' for Inactive)
REMARK    1  A    between atoms: C2_2  and  S1_3 
REMARK    2  A    between atoms: C13_15  and  C14_16 
REMARK    3  A    between atoms: C14_16  and  C15_17 
REMARK    4  A    between atoms: C14_16  and  N2_24 
REMARK    5  A    between atoms: C15_17  and  C16_18 
ROOT
HETATM    1  S1  UNL     1      23.006   2.641  51.564  1.00  0.00    -0.257 SA
HETATM    2  C3  UNL     1      22.257   2.849  49.983  1.00  0.00     0.086 C 
HETATM    3  C4  UNL     1      21.037   3.673  49.929  1.00  0.00    -0.034 A 
HETATM    4  C5  UNL     1      21.018   4.736  48.990  1.00  0.00     0.009 A 
HETATM    5  C6  UNL     1      19.868   5.396  49.052  1.00  0.00     0.001 A 
HETATM    6  C7  UNL     1      18.728   5.299  49.792  1.00  0.00     0.001 A 
HETATM    7  C8  UNL     1      18.797   4.249  50.688  1.00  0.00     0.019 A 
HETATM    8  C9  UNL     1      19.917   3.449  50.764  1.00  0.00     0.008 A 
HETATM    9  S2  UNL     1      19.599   2.214  52.053  1.00  0.00    -0.112 SA
HETATM   10  C10 UNL     1      20.847   0.929  52.016  1.00  0.00     0.070 A 
HETATM   11  C11 UNL     1      21.478  -0.010  51.429  1.00  0.00    -0.007 A 
HETATM   12  C12 UNL     1      22.560   0.848  51.979  1.00  0.00     0.040 A 
HETATM   13  C13 UNL     1      23.679   1.096  52.187  1.00  0.00     0.036 A 
HETATM   14  C22 UNL     1      22.950   0.175  53.324  1.00  0.00     0.024 C 
HETATM   15  O1  UNL     1      21.611   0.775  53.289  1.00  0.00     0.000 OA
HETATM   16  H6  UNL     1      21.376   3.468  52.610  1.00  0.00     0.075 HD
ENDROOT
BRANCH  13  17
HETATM   17  C14 UNL     1      25.037   1.275  52.623  1.00  0.00     0.243 C 
BRANCH  17  18
HETATM   18  C15 UNL     1      25.384  -0.097  53.270  1.00  0.00     0.096 C 
BRANCH  18  19
HETATM   19  C16 UNL     1      26.801  -0.204  53.629  1.00  0.00     0.036 A 
HETATM   20  C17 UNL     1      27.510  -1.231  53.085  1.00  0.00     0.027 A 
HETATM   21  C18 UNL     1      28.851  -1.658  53.143  1.00  0.00     0.003 A 
HETATM   22  C19 UNL     1      29.491  -0.729  53.987  1.00  0.00     0.019 A 
HETATM   23  C20 UNL     1      28.908   0.345  54.601  1.00  0.00     0.117 A 
HETATM   24  N1  UNL     1      27.605   0.549  54.389  1.00  0.00    -0.266 NA
ENDBRANCH  18  19
ENDBRANCH  17  18
BRANCH  17  25
HETATM   25  N2  UNL     1      26.034   1.307  51.572  1.00  0.00     0.085 N 
HETATM   26  C21 UNL     1      26.795   2.482  51.461  1.00  0.00     0.307 C 
HETATM   27  H21 UNL     1      25.524   1.029  50.706  1.00  0.00     0.315 HD
ENDBRANCH  17  25
ENDBRANCH  13  17
BRANCH   1  28
HETATM   28  C2  UNL     1      23.980   3.754  52.083  1.00  0.00     0.042 C 
HETATM   29  C1  UNL     1      23.341   4.987  52.716  1.00  0.00     0.014 C 
ENDBRANCH   1  28
TORSDOF 5
ENDMDL
MODEL 7
REMARK VINA RESULT:      -7.3      3.489      8.157
REMARK  5 active torsions:
REMARK  status: ('A' for Active; 'I' for Inactive)
REMARK    1  A    between atoms: C2_2  and  S1_3 
REMARK    2  A    between atoms: C13_15  and  C14_16 
REMARK    3  A    between atoms: C14_16  and  C15_17 
REMARK    4  A    between atoms: C14_16  and  N2_24 
REMARK    5  A    between atoms: C15_17  and  C16_18 
ROOT
HETATM    1  S1  UNL     1      23.316   4.308  50.561  1.00  0.00    -0.257 SA
HETATM    2  C3  UNL     1      22.756   4.853  48.982  1.00  0.00     0.086 C 
HETATM    3  C4  UNL     1      21.431   5.496  48.931  1.00  0.00    -0.034 A 
HETATM    4  C5  UNL     1      21.356   6.767  48.308  1.00  0.00     0.009 A 
HETATM    5  C6  UNL     1      20.112   7.231  48.338  1.00  0.00     0.001 A 
HETATM    6  C7  UNL     1      18.918   6.785  48.819  1.00  0.00     0.001 A 
HETATM    7  C8  UNL     1      19.047   5.545  49.414  1.00  0.00     0.019 A 
HETATM    8  C9  UNL     1      20.266   4.905  49.475  1.00  0.00     0.008 A 
HETATM    9  S2  UNL     1      19.996   3.329  50.329  1.00  0.00    -0.112 SA
HETATM   10  C10 UNL     1      21.439   2.276  50.179  1.00  0.00     0.070 A 
HETATM   11  C11 UNL     1      22.291   1.628  49.489  1.00  0.00    -0.007 A 
HETATM   12  C12 UNL     1      23.129   2.429  50.419  1.00  0.00     0.040 A 
HETATM   13  C13 UNL     1      24.153   2.750  50.873  1.00  0.00     0.036 A 
HETATM   14  C22 UNL     1      23.449   1.462  51.593  1.00  0.00     0.024 C 
HETATM   15  O1  UNL     1      22.044   1.871  51.482  1.00  0.00     0.000 OA
HETATM   16  H6  UNL     1      21.446   4.594  51.487  1.00  0.00     0.075 HD
ENDROOT
BRANCH  13  17
HETATM   17  C14 UNL     1      25.392   2.972  51.568  1.00  0.00     0.243 C 
BRANCH  17  18
HETATM   18  C15 UNL     1      26.054   1.564  51.568  1.00  0.00     0.096 C 
BRANCH  18  19
HETATM   19  C16 UNL     1      27.099   1.437  52.588  1.00  0.00     0.036 A 
HETATM   20  C17 UNL     1      27.043   0.355  53.413  1.00  0.00     0.027 A 
HETATM   21  C18 UNL     1      27.839  -0.142  54.463  1.00  0.00     0.003 A 
HETATM   22  C19 UNL     1      28.894   0.784  54.587  1.00  0.00     0.019 A 
HETATM   23  C20 UNL     1      29.078   1.910  53.832  1.00  0.00     0.117 A 
HETATM   24  N1  UNL     1      28.178   2.172  52.880  1.00  0.00    -0.266 NA
ENDBRANCH  18  19
ENDBRANCH  17  18
BRANCH  17  25
HETATM   25  N2  UNL     1      26.398   3.713  50.834  1.00  0.00     0.085 N 
HETATM   26  C21 UNL     1      26.601   3.343  49.495  1.00  0.00     0.307 C 
HETATM   27  H21 UNL     1      27.250   3.681  51.435  1.00  0.00     0.315 HD
ENDBRANCH  17  25
ENDBRANCH  13  17
BRANCH   1  28
HETATM   28  C2  UNL     1      24.009   5.346  51.508  1.00  0.00     0.042 C 
HETATM   29  C1  UNL     1      24.204   6.757  50.959  1.00  0.00     0.014 C 
ENDBRANCH   1  28
TORSDOF 5
ENDMDL
MODEL 8
REMARK VINA RESULT:      -7.3      3.120      7.539
REMARK  5 active torsions:
REMARK  status: ('A' for Active; 'I' for Inactive)
REMARK    1  A    between atoms: C2_2  and  S1_3 
REMARK    2  A    between atoms: C13_15  and  C14_16 
REMARK    3  A    between atoms: C14_16  and  C15_17 
REMARK    4  A    between atoms: C14_16  and  N2_24 
REMARK    5  A    between atoms: C15_17  and  C16_18 
ROOT
HETATM    1  S1  UNL     1      23.891   3.722  50.065  1.00  0.00    -0.257 SA
HETATM    2  C3  UNL     1      22.514   3.697  48.966  1.00  0.00     0.086 C 
HETATM    3  C4  UNL     1      22.316   4.888  48.121  1.00  0.00    -0.034 A 
HETATM    4  C5  UNL     1      22.185   4.674  46.726  1.00  0.00     0.009 A 
HETATM    5  C6  UNL     1      22.018   5.827  46.088  1.00  0.00     0.001 A 
HETATM    6  C7  UNL     1      21.950   7.139  46.449  1.00  0.00     0.001 A 
HETATM    7  C8  UNL     1      22.082   7.291  47.816  1.00  0.00     0.019 A 
HETATM    8  C9  UNL     1      22.260   6.203  48.642  1.00  0.00     0.008 A 
HETATM    9  S2  UNL     1      22.391   6.838  50.335  1.00  0.00    -0.112 SA
HETATM   10  C10 UNL     1      22.301   5.496  51.520  1.00  0.00     0.070 A 
HETATM   11  C11 UNL     1      21.702   4.509  52.056  1.00  0.00    -0.007 A 
HETATM   12  C12 UNL     1      23.052   3.971  51.743  1.00  0.00     0.040 A 
HETATM   13  C13 UNL     1      23.862   3.134  51.762  1.00  0.00     0.036 A 
HETATM   14  C22 UNL     1      23.850   4.117  53.069  1.00  0.00     0.024 C 
HETATM   15  O1  UNL     1      23.493   5.379  52.410  1.00  0.00     0.000 OA
HETATM   16  H6  UNL     1      24.282   5.770  49.765  1.00  0.00     0.075 HD
ENDROOT
BRANCH  13  17
HETATM   17  C14 UNL     1      24.914   2.180  51.985  1.00  0.00     0.243 C 
BRANCH  17  18
HETATM   18  C15 UNL     1      25.248   2.369  53.493  1.00  0.00     0.096 C 
BRANCH  18  19
HETATM   19  C16 UNL     1      26.507   1.721  53.872  1.00  0.00     0.036 A 
HETATM   20  C17 UNL     1      27.663   2.386  53.595  1.00  0.00     0.027 A 
HETATM   21  C18 UNL     1      29.032   2.140  53.815  1.00  0.00     0.003 A 
HETATM   22  C19 UNL     1      29.076   0.896  54.475  1.00  0.00     0.019 A 
HETATM   23  C20 UNL     1      28.002   0.121  54.815  1.00  0.00     0.117 A 
HETATM   24  N1  UNL     1      26.785   0.572  54.500  1.00  0.00    -0.266 NA
ENDBRANCH  18  19
ENDBRANCH  17  18
BRANCH  17  25
HETATM   25  N2  UNL     1      24.506   0.790  51.998  1.00  0.00     0.085 N 
HETATM   26  C21 UNL     1      23.354   0.479  52.739  1.00  0.00     0.307 C 
HETATM   27  H21 UNL     1      25.362   0.259  52.270  1.00  0.00     0.315 HD
ENDBRANCH  17  25
ENDBRANCH  13  17
BRANCH   1  28
HETATM   28  C2  UNL     1      25.299   3.312  49.510  1.00  0.00     0.042 C 
HETATM   29  C1  UNL     1      26.330   4.427  49.358  1.00  0.00     0.014 C 
ENDBRANCH   1  28
TORSDOF 5
ENDMDL
MODEL 9
REMARK VINA RESULT:      -7.3      3.519      6.417
REMARK  5 active torsions:
REMARK  status: ('A' for Active; 'I' for Inactive)
REMARK    1  A    between atoms: C2_2  and  S1_3 
REMARK    2  A    between atoms: C13_15  and  C14_16 
REMARK    3  A    between atoms: C14_16  and  C15_17 
REMARK    4  A    between atoms: C14_16  and  N2_24 
REMARK    5  A    between atoms: C15_17  and  C16_18 
ROOT
HETATM    1  S1  UNL     1      24.181   4.135  50.433  1.00  0.00    -0.257 SA
HETATM    2  C3  UNL     1      24.812   4.862  48.956  1.00  0.00     0.086 C 
HETATM    3  C4  UNL     1      25.675   6.046  49.113  1.00  0.00    -0.034 A 
HETATM    4  C5  UNL     1      26.938   6.012  48.471  1.00  0.00     0.009 A 
HETATM    5  C6  UNL     1      27.611   7.133  48.700  1.00  0.00     0.001 A 
HETATM    6  C7  UNL     1      27.381   8.283  49.394  1.00  0.00     0.001 A 
HETATM    7  C8  UNL     1      26.139   8.265  49.998  1.00  0.00     0.019 A 
HETATM    8  C9  UNL     1      25.297   7.181  49.869  1.00  0.00     0.008 A 
HETATM    9  S2  UNL     1      23.794   7.562  50.808  1.00  0.00    -0.112 SA
HETATM   10  C10 UNL     1      22.506   6.369  50.446  1.00  0.00     0.070 A 
HETATM   11  C11 UNL     1      21.718   5.774  49.641  1.00  0.00    -0.007 A 
HETATM   12  C12 UNL     1      22.363   4.661  50.386  1.00  0.00     0.040 A 
HETATM   13  C13 UNL     1      22.502   3.534  50.646  1.00  0.00     0.036 A 
HETATM   14  C22 UNL     1      21.358   4.310  51.518  1.00  0.00     0.024 C 
HETATM   15  O1  UNL     1      22.005   5.623  51.638  1.00  0.00     0.000 OA
HETATM   16  H6  UNL     1      24.790   5.737  51.656  1.00  0.00     0.075 HD
ENDROOT
BRANCH  13  17
HETATM   17  C14 UNL     1      22.508   2.173  51.110  1.00  0.00     0.243 C 
BRANCH  17  18
HETATM   18  C15 UNL     1      21.685   2.246  52.429  1.00  0.00     0.096 C 
BRANCH  18  19
HETATM   19  C16 UNL     1      21.467   0.926  53.026  1.00  0.00     0.036 A 
HETATM   20  C17 UNL     1      22.533   0.326  53.626  1.00  0.00     0.027 A 
HETATM   21  C18 UNL     1      22.736  -0.882  54.322  1.00  0.00     0.003 A 
HETATM   22  C19 UNL     1      21.477  -1.515  54.324  1.00  0.00     0.019 A 
HETATM   23  C20 UNL     1      20.326  -1.033  53.764  1.00  0.00     0.117 A 
HETATM   24  N1  UNL     1      20.383   0.152  53.152  1.00  0.00    -0.266 NA
ENDBRANCH  18  19
ENDBRANCH  17  18
BRANCH  17  25
HETATM   25  N2  UNL     1      21.679   1.252  50.358  1.00  0.00     0.085 N 
HETATM   26  C21 UNL     1      21.773   1.320  48.958  1.00  0.00     0.307 C 
HETATM   27  H21 UNL     1      20.718   1.376  50.742  1.00  0.00     0.315 HD
ENDBRANCH  17  25
ENDBRANCH  13  17
BRANCH   1  28
HETATM   28  C2  UNL     1      25.086   3.120  51.211  1.00  0.00     0.042 C 
HETATM   29  C1  UNL     1      26.409   2.733  50.557  1.00  0.00     0.014 C 
ENDBRANCH   1  28
TORSDOF 5
ENDMDL
