MODEL 1
REMARK VINA RESULT:      -8.2      0.000      0.000
REMARK  6 active torsions:
REMARK  status: ('A' for Active; 'I' for Inactive)
REMARK    1  A    between atoms: C2_2  and  O1_3 
REMARK    2  A    between atoms: O1_3  and  C3_4 
REMARK    3  A    between atoms: N3_13  and  C10_14 
REMARK    4  A    between atoms: C14_18  and  O2_19 
REMARK    5  A    between atoms: O2_19  and  C15_20 
REMARK    6  A    between atoms: C15_20  and  C16_21 
ROOT
HETATM    1  C3  UNL     1      26.780   0.200  52.301  1.00  0.00     0.049 C 
HETATM    2  C4  UNL     1      25.644  -0.229  52.990  1.00  0.00     0.051 C 
HETATM    3  C5  UNL     1      24.458  -0.745  53.777  1.00  0.00     0.113 C 
HETATM    4  N1  UNL     1      23.120  -0.447  53.742  1.00  0.00    -0.292 NA
HETATM    5  C6  UNL     1      22.841   0.570  52.715  1.00  0.00     0.209 C 
HETATM    6  C7  UNL     1      23.096   1.857  52.338  1.00  0.00     0.065 C 
HETATM    7  C8  UNL     1      22.334   1.849  51.188  1.00  0.00    -0.011 C 
HETATM    8  N2  UNL     1      21.652   1.865  50.136  1.00  0.00    -0.101 N 
HETATM    9  C9  UNL     1      23.715   3.215  52.567  1.00  0.00     0.144 C 
HETATM   10  N3  UNL     1      24.822   3.315  51.583  1.00  0.00    -0.379 N 
HETATM   11  C22 UNL     1      25.596   2.283  52.153  1.00  0.00     0.129 C 
HETATM   12  C23 UNL     1      26.464   1.358  51.327  1.00  0.00     0.084 C 
ENDROOT
BRANCH  10  13
HETATM   13  C10 UNL     1      24.888   4.264  50.543  1.00  0.00     0.032 A 
HETATM   14  C11 UNL     1      26.189   4.286  50.033  1.00  0.00     0.039 A 
HETATM   15  C12 UNL     1      26.522   5.235  49.048  1.00  0.00    -0.025 A 
HETATM   16  C13 UNL     1      27.908   5.251  48.526  1.00  0.00     0.051 C 
HETATM   17  C14 UNL     1      25.482   6.069  48.683  1.00  0.00     0.097 A 
HETATM   18  C20 UNL     1      24.221   6.022  49.191  1.00  0.00     0.070 A 
HETATM   19 CL1  UNL     1      23.063   7.185  48.589  1.00  0.00    -0.081 Cl
HETATM   20  C21 UNL     1      23.896   5.099  50.149  1.00  0.00     0.056 A 
BRANCH  17  21
HETATM   21  O2  UNL     1      25.972   7.003  47.688  1.00  0.00    -0.344 OA
BRANCH  21  22
HETATM   22  C15 UNL     1      25.765   8.340  48.216  1.00  0.00     0.214 C 
BRANCH  22  23
HETATM   23  C16 UNL     1      26.893   8.793  49.010  1.00  0.00    -0.034 A 
HETATM   24  C17 UNL     1      27.414   9.239  50.131  1.00  0.00     0.009 A 
HETATM   25  C18 UNL     1      28.728   9.281  49.512  1.00  0.00     0.001 A 
HETATM   26  C19 UNL     1      28.236   8.836  48.366  1.00  0.00     0.009 A 
ENDBRANCH  22  23
ENDBRANCH  21  22
ENDBRANCH  17  21
ENDBRANCH  10  13
BRANCH   1  27
HETATM   27  O1  UNL     1      27.827  -0.506  52.682  1.00  0.00    -0.356 OA
BRANCH  27  28
HETATM   28  C2  UNL     1      28.591  -0.245  53.822  1.00  0.00     0.170 C 
HETATM   29  C1  UNL     1      29.949  -0.906  53.724  1.00  0.00     0.034 C 
ENDBRANCH  27  28
ENDBRANCH   1  27
TORSDOF 6
ENDMDL
MODEL 2
REMARK VINA RESULT:      -7.9      1.432      2.080
REMARK  6 active torsions:
REMARK  status: ('A' for Active; 'I' for Inactive)
REMARK    1  A    between atoms: C2_2  and  O1_3 
REMARK    2  A    between atoms: O1_3  and  C3_4 
REMARK    3  A    between atoms: N3_13  and  C10_14 
REMARK    4  A    between atoms: C14_18  and  O2_19 
REMARK    5  A    between atoms: O2_19  and  C15_20 
REMARK    6  A    between atoms: C15_20  and  C16_21 
ROOT
HETATM    1  C3  UNL     1      25.830   0.099  53.657  1.00  0.00     0.049 C 
HETATM    2  C4  UNL     1      24.513  -0.331  53.833  1.00  0.00     0.051 C 
HETATM    3  C5  UNL     1      23.111  -0.845  54.083  1.00  0.00     0.113 C 
HETATM    4  N1  UNL     1      21.912  -0.610  53.462  1.00  0.00    -0.292 NA
HETATM    5  C6  UNL     1      22.085   0.320  52.334  1.00  0.00     0.209 C 
HETATM    6  C7  UNL     1      22.461   1.589  51.997  1.00  0.00     0.065 C 
HETATM    7  C8  UNL     1      22.261   1.468  50.638  1.00  0.00    -0.011 C 
HETATM    8  N2  UNL     1      22.091   1.381  49.399  1.00  0.00    -0.101 N 
HETATM    9  C9  UNL     1      22.909   2.986  52.356  1.00  0.00     0.144 C 
HETATM   10  N3  UNL     1      24.328   3.067  51.928  1.00  0.00    -0.379 N 
HETATM   11  C22 UNL     1      24.797   2.112  52.854  1.00  0.00     0.129 C 
HETATM   12  C23 UNL     1      25.945   1.173  52.550  1.00  0.00     0.084 C 
ENDROOT
BRANCH  10  13
HETATM   13  C10 UNL     1      24.819   3.945  50.941  1.00  0.00     0.032 A 
HETATM   14  C11 UNL     1      23.806   4.844  50.591  1.00  0.00     0.039 A 
HETATM   15  C12 UNL     1      24.034   5.757  49.546  1.00  0.00    -0.025 A 
HETATM   16  C13 UNL     1      22.946   6.694  49.181  1.00  0.00     0.051 C 
HETATM   17  C14 UNL     1      25.282   5.659  48.962  1.00  0.00     0.097 A 
HETATM   18  C20 UNL     1      26.254   4.779  49.326  1.00  0.00     0.070 A 
HETATM   19 CL1  UNL     1      27.759   4.823  48.439  1.00  0.00    -0.081 Cl
HETATM   20  C21 UNL     1      26.033   3.890  50.344  1.00  0.00     0.056 A 
BRANCH  17  21
HETATM   21  O2  UNL     1      25.366   6.635  47.893  1.00  0.00    -0.344 OA
BRANCH  21  22
HETATM   22  C15 UNL     1      26.068   7.792  48.424  1.00  0.00     0.214 C 
BRANCH  22  23
HETATM   23  C16 UNL     1      27.316   8.040  47.725  1.00  0.00    -0.034 A 
HETATM   24  C17 UNL     1      28.034   8.105  46.626  1.00  0.00     0.009 A 
HETATM   25  C18 UNL     1      29.198   8.499  47.401  1.00  0.00     0.001 A 
HETATM   26  C19 UNL     1      28.506   8.440  48.528  1.00  0.00     0.009 A 
ENDBRANCH  22  23
ENDBRANCH  21  22
ENDBRANCH  17  21
ENDBRANCH  10  13
BRANCH   1  27
HETATM   27  O1  UNL     1      26.623  -0.532  54.501  1.00  0.00    -0.356 OA
BRANCH  27  28
HETATM   28  C2  UNL     1      27.929  -0.142  54.809  1.00  0.00     0.170 C 
HETATM   29  C1  UNL     1      28.904  -0.655  53.770  1.00  0.00     0.034 C 
ENDBRANCH  27  28
ENDBRANCH   1  27
TORSDOF 6
ENDMDL
MODEL 3
REMARK VINA RESULT:      -7.9      3.926      7.924
REMARK  6 active torsions:
REMARK  status: ('A' for Active; 'I' for Inactive)
REMARK    1  A    between atoms: C2_2  and  O1_3 
REMARK    2  A    between atoms: O1_3  and  C3_4 
REMARK    3  A    between atoms: N3_13  and  C10_14 
REMARK    4  A    between atoms: C14_18  and  O2_19 
REMARK    5  A    between atoms: O2_19  and  C15_20 
REMARK    6  A    between atoms: C15_20  and  C16_21 
ROOT
HETATM    1  C3  UNL     1      20.281   5.155  50.176  1.00  0.00     0.049 C 
HETATM    2  C4  UNL     1      19.273   4.419  49.551  1.00  0.00     0.051 C 
HETATM    3  C5  UNL     1      18.155   3.687  48.838  1.00  0.00     0.113 C 
HETATM    4  N1  UNL     1      17.729   2.384  48.871  1.00  0.00    -0.292 NA
HETATM    5  C6  UNL     1      18.546   1.594  49.807  1.00  0.00     0.209 C 
HETATM    6  C7  UNL     1      19.810   1.144  50.060  1.00  0.00     0.065 C 
HETATM    7  C8  UNL     1      19.515   0.460  51.220  1.00  0.00    -0.011 C 
HETATM    8  N2  UNL     1      19.273  -0.165  52.279  1.00  0.00    -0.101 N 
HETATM    9  C9  UNL     1      21.268   0.989  49.696  1.00  0.00     0.144 C 
HETATM   10  N3  UNL     1      22.006   1.860  50.645  1.00  0.00    -0.379 N 
HETATM   11  C22 UNL     1      21.469   3.069  50.156  1.00  0.00     0.129 C 
HETATM   12  C23 UNL     1      21.195   4.263  51.046  1.00  0.00     0.084 C 
ENDROOT
BRANCH  10  13
HETATM   13  C10 UNL     1      22.943   1.401  51.592  1.00  0.00     0.032 A 
HETATM   14  C11 UNL     1      24.207   1.891  51.251  1.00  0.00     0.039 A 
HETATM   15  C12 UNL     1      25.325   1.479  52.000  1.00  0.00    -0.025 A 
HETATM   16  C13 UNL     1      26.658   2.000  51.618  1.00  0.00     0.051 C 
HETATM   17  C14 UNL     1      25.034   0.603  53.028  1.00  0.00     0.097 A 
HETATM   18  C20 UNL     1      23.792   0.146  53.344  1.00  0.00     0.070 A 
HETATM   19 CL1  UNL     1      23.656  -0.969  54.683  1.00  0.00    -0.081 Cl
HETATM   20  C21 UNL     1      22.703   0.547  52.616  1.00  0.00     0.056 A 
BRANCH  17  21
HETATM   21  O2  UNL     1      26.272   0.248  53.692  1.00  0.00    -0.344 OA
BRANCH  21  22
HETATM   22  C15 UNL     1      26.726  -1.006  53.113  1.00  0.00     0.214 C 
BRANCH  22  23
HETATM   23  C16 UNL     1      28.156  -1.193  53.270  1.00  0.00    -0.034 A 
HETATM   24  C17 UNL     1      29.252  -1.905  53.132  1.00  0.00     0.009 A 
HETATM   25  C18 UNL     1      30.029  -0.842  53.746  1.00  0.00     0.001 A 
HETATM   26  C19 UNL     1      28.945  -0.100  53.904  1.00  0.00     0.009 A 
ENDBRANCH  22  23
ENDBRANCH  21  22
ENDBRANCH  17  21
ENDBRANCH  10  13
BRANCH   1  27
HETATM   27  O1  UNL     1      20.179   6.427  49.840  1.00  0.00    -0.356 OA
BRANCH  27  28
HETATM   28  C2  UNL     1      21.222   7.200  49.326  1.00  0.00     0.170 C 
HETATM   29  C1  UNL     1      22.094   6.381  48.399  1.00  0.00     0.034 C 
ENDBRANCH  27  28
ENDBRANCH   1  27
TORSDOF 6
ENDMDL
MODEL 4
REMARK VINA RESULT:      -7.9      3.910      8.114
REMARK  6 active torsions:
REMARK  status: ('A' for Active; 'I' for Inactive)
REMARK    1  A    between atoms: C2_2  and  O1_3 
REMARK    2  A    between atoms: O1_3  and  C3_4 
REMARK    3  A    between atoms: N3_13  and  C10_14 
REMARK    4  A    between atoms: C14_18  and  O2_19 
REMARK    5  A    between atoms: O2_19  and  C15_20 
REMARK    6  A    between atoms: C15_20  and  C16_21 
ROOT
HETATM    1  C3  UNL     1      20.370   3.567  47.708  1.00  0.00     0.049 C 
HETATM    2  C4  UNL     1      19.972   4.792  48.247  1.00  0.00     0.051 C 
HETATM    3  C5  UNL     1      19.486   6.126  48.774  1.00  0.00     0.113 C 
HETATM    4  N1  UNL     1      19.909   6.928  49.802  1.00  0.00    -0.292 NA
HETATM    5  C6  UNL     1      21.070   6.331  50.483  1.00  0.00     0.209 C 
HETATM    6  C7  UNL     1      21.491   5.251  51.205  1.00  0.00     0.065 C 
HETATM    7  C8  UNL     1      22.796   5.662  51.375  1.00  0.00    -0.011 C 
HETATM    8  N2  UNL     1      23.989   6.012  51.539  1.00  0.00    -0.101 N 
HETATM    9  C9  UNL     1      21.241   3.940  51.911  1.00  0.00     0.144 C 
HETATM   10  N3  UNL     1      21.896   2.908  51.068  1.00  0.00    -0.379 N 
HETATM   11  C22 UNL     1      21.038   3.080  49.962  1.00  0.00     0.129 C 
HETATM   12  C23 UNL     1      21.504   2.913  48.532  1.00  0.00     0.084 C 
ENDROOT
BRANCH  10  13
HETATM   13  C10 UNL     1      22.968   2.095  51.486  1.00  0.00     0.032 A 
HETATM   14  C11 UNL     1      22.489   1.145  52.393  1.00  0.00     0.039 A 
HETATM   15  C12 UNL     1      23.402   0.282  53.026  1.00  0.00    -0.025 A 
HETATM   16  C13 UNL     1      22.879  -0.711  53.992  1.00  0.00     0.051 C 
HETATM   17  C14 UNL     1      24.721   0.478  52.663  1.00  0.00     0.097 A 
HETATM   18  C20 UNL     1      25.161   1.406  51.770  1.00  0.00     0.070 A 
HETATM   19 CL1  UNL     1      26.881   1.486  51.468  1.00  0.00    -0.081 Cl
HETATM   20  C21 UNL     1      24.273   2.246  51.154  1.00  0.00     0.056 A 
BRANCH  17  21
HETATM   21  O2  UNL     1      25.545  -0.457  53.404  1.00  0.00    -0.344 OA
BRANCH  21  22
HETATM   22  C15 UNL     1      26.208   0.296  54.455  1.00  0.00     0.214 C 
BRANCH  22  23
HETATM   23  C16 UNL     1      27.651   0.159  54.397  1.00  0.00    -0.034 A 
HETATM   24  C17 UNL     1      28.864   0.537  54.734  1.00  0.00     0.009 A 
HETATM   25  C18 UNL     1      29.429  -0.527  53.922  1.00  0.00     0.001 A 
HETATM   26  C19 UNL     1      28.223  -0.932  53.559  1.00  0.00     0.009 A 
ENDBRANCH  22  23
ENDBRANCH  21  22
ENDBRANCH  17  21
ENDBRANCH  10  13
BRANCH   1  27
HETATM   27  O1  UNL     1      19.653   3.297  46.635  1.00  0.00    -0.356 OA
BRANCH  27  28
HETATM   28  C2  UNL     1      19.921   3.788  45.355  1.00  0.00     0.170 C 
HETATM   29  C1  UNL     1      21.411   3.937  45.135  1.00  0.00     0.034 C 
ENDBRANCH  27  28
ENDBRANCH   1  27
TORSDOF 6
ENDMDL
MODEL 5
REMARK VINA RESULT:      -7.5      1.983      3.076
REMARK  6 active torsions:
REMARK  status: ('A' for Active; 'I' for Inactive)
REMARK    1  A    between atoms: C2_2  and  O1_3 
REMARK    2  A    between atoms: O1_3  and  C3_4 
REMARK    3  A    between atoms: N3_13  and  C10_14 
REMARK    4  A    between atoms: C14_18  and  O2_19 
REMARK    5  A    between atoms: O2_19  and  C15_20 
REMARK    6  A    between atoms: C15_20  and  C16_21 
ROOT
HETATM    1  C3  UNL     1      25.842   0.523  53.620  1.00  0.00     0.049 C 
HETATM    2  C4  UNL     1      24.586  -0.087  53.621  1.00  0.00     0.051 C 
HETATM    3  C5  UNL     1      23.251  -0.798  53.679  1.00  0.00     0.113 C 
HETATM    4  N1  UNL     1      22.088  -0.649  52.968  1.00  0.00    -0.292 NA
HETATM    5  C6  UNL     1      22.228   0.416  51.962  1.00  0.00     0.209 C 
HETATM    6  C7  UNL     1      22.455   1.752  51.791  1.00  0.00     0.065 C 
HETATM    7  C8  UNL     1      22.390   1.759  50.414  1.00  0.00    -0.011 C 
HETATM    8  N2  UNL     1      22.339   1.790  49.162  1.00  0.00    -0.101 N 
HETATM    9  C9  UNL     1      22.676   3.145  52.330  1.00  0.00     0.144 C 
HETATM   10  N3  UNL     1      24.103   3.452  52.055  1.00  0.00    -0.379 N 
HETATM   11  C22 UNL     1      24.617   2.467  52.923  1.00  0.00     0.129 C 
HETATM   12  C23 UNL     1      25.903   1.720  52.643  1.00  0.00     0.084 C 
ENDROOT
BRANCH  10  13
HETATM   13  C10 UNL     1      24.552   4.490  51.214  1.00  0.00     0.032 A 
HETATM   14  C11 UNL     1      23.650   5.556  51.291  1.00  0.00     0.039 A 
HETATM   15  C12 UNL     1      23.839   6.673  50.456  1.00  0.00    -0.025 A 
HETATM   16  C13 UNL     1      22.868   7.788  50.542  1.00  0.00     0.051 C 
HETATM   17  C14 UNL     1      24.937   6.584  49.622  1.00  0.00     0.097 A 
HETATM   18  C20 UNL     1      25.804   5.537  49.572  1.00  0.00     0.070 A 
HETATM   19 CL1  UNL     1      27.124   5.634  48.430  1.00  0.00    -0.081 Cl
HETATM   20  C21 UNL     1      25.622   4.451  50.385  1.00  0.00     0.056 A 
BRANCH  17  21
HETATM   21  O2  UNL     1      24.993   7.783  48.809  1.00  0.00    -0.344 OA
BRANCH  21  22
HETATM   22  C15 UNL     1      24.867   7.368  47.422  1.00  0.00     0.214 C 
BRANCH  22  23
HETATM   23  C16 UNL     1      23.498   7.038  47.073  1.00  0.00    -0.034 A 
HETATM   24  C17 UNL     1      22.545   6.168  46.821  1.00  0.00     0.009 A 
HETATM   25  C18 UNL     1      21.603   7.253  46.603  1.00  0.00     0.001 A 
HETATM   26  C19 UNL     1      22.539   8.156  46.849  1.00  0.00     0.009 A 
ENDBRANCH  22  23
ENDBRANCH  21  22
ENDBRANCH  17  21
ENDBRANCH  10  13
BRANCH   1  27
HETATM   27  O1  UNL     1      26.639  -0.093  54.471  1.00  0.00    -0.356 OA
BRANCH  27  28
HETATM   28  C2  UNL     1      27.996   0.192  54.640  1.00  0.00     0.170 C 
HETATM   29  C1  UNL     1      28.846  -0.680  53.740  1.00  0.00     0.034 C 
ENDBRANCH  27  28
ENDBRANCH   1  27
TORSDOF 6
ENDMDL
MODEL 6
REMARK VINA RESULT:      -7.5      2.531      7.695
REMARK  6 active torsions:
REMARK  status: ('A' for Active; 'I' for Inactive)
REMARK    1  A    between atoms: C2_2  and  O1_3 
REMARK    2  A    between atoms: O1_3  and  C3_4 
REMARK    3  A    between atoms: N3_13  and  C10_14 
REMARK    4  A    between atoms: C14_18  and  O2_19 
REMARK    5  A    between atoms: O2_19  and  C15_20 
REMARK    6  A    between atoms: C15_20  and  C16_21 
ROOT
HETATM    1  C3  UNL     1      25.409   7.046  49.001  1.00  0.00     0.049 C 
HETATM    2  C4  UNL     1      24.235   7.109  48.248  1.00  0.00     0.051 C 
HETATM    3  C5  UNL     1      22.993   7.237  47.391  1.00  0.00     0.113 C 
HETATM    4  N1  UNL     1      21.794   6.573  47.389  1.00  0.00    -0.292 NA
HETATM    5  C6  UNL     1      21.762   5.555  48.452  1.00  0.00     0.209 C 
HETATM    6  C7  UNL     1      22.350   4.408  48.902  1.00  0.00     0.065 C 
HETATM    7  C8  UNL     1      21.560   4.240  50.019  1.00  0.00    -0.011 C 
HETATM    8  N2  UNL     1      20.858   4.069  51.043  1.00  0.00    -0.101 N 
HETATM    9  C9  UNL     1      23.339   3.275  48.763  1.00  0.00     0.144 C 
HETATM   10  N3  UNL     1      24.377   3.530  49.793  1.00  0.00    -0.379 N 
HETATM   11  C22 UNL     1      24.856   4.718  49.203  1.00  0.00     0.129 C 
HETATM   12  C23 UNL     1      25.384   5.881  50.017  1.00  0.00     0.084 C 
ENDROOT
BRANCH  10  13
HETATM   13  C10 UNL     1      24.656   2.676  50.879  1.00  0.00     0.032 A 
HETATM   14  C11 UNL     1      25.977   2.882  51.289  1.00  0.00     0.039 A 
HETATM   15  C12 UNL     1      26.514   2.064  52.300  1.00  0.00    -0.025 A 
HETATM   16  C13 UNL     1      27.919   2.289  52.714  1.00  0.00     0.051 C 
HETATM   17  C14 UNL     1      25.640   1.114  52.792  1.00  0.00     0.097 A 
HETATM   18  C20 UNL     1      24.355   0.939  52.381  1.00  0.00     0.070 A 
HETATM   19 CL1  UNL     1      23.430  -0.336  53.138  1.00  0.00    -0.081 Cl
HETATM   20  C21 UNL     1      23.831   1.735  51.398  1.00  0.00     0.056 A 
BRANCH  17  21
HETATM   21  O2  UNL     1      26.331   0.335  53.801  1.00  0.00    -0.344 OA
BRANCH  21  22
HETATM   22  C15 UNL     1      26.645  -0.953  53.208  1.00  0.00     0.214 C 
BRANCH  22  23
HETATM   23  C16 UNL     1      28.057  -1.272  53.311  1.00  0.00    -0.034 A 
HETATM   24  C17 UNL     1      29.101  -2.013  53.015  1.00  0.00     0.009 A 
HETATM   25  C18 UNL     1      29.947  -1.164  53.836  1.00  0.00     0.001 A 
HETATM   26  C19 UNL     1      28.917  -0.398  54.158  1.00  0.00     0.009 A 
ENDBRANCH  22  23
ENDBRANCH  21  22
ENDBRANCH  17  21
ENDBRANCH  10  13
BRANCH   1  27
HETATM   27  O1  UNL     1      26.231   8.007  48.627  1.00  0.00    -0.356 OA
BRANCH  27  28
HETATM   28  C2  UNL     1      27.538   7.805  48.177  1.00  0.00     0.170 C 
HETATM   29  C1  UNL     1      27.649   8.093  46.695  1.00  0.00     0.034 C 
ENDBRANCH  27  28
ENDBRANCH   1  27
TORSDOF 6
ENDMDL
MODEL 7
REMARK VINA RESULT:      -7.4      2.824      4.931
REMARK  6 active torsions:
REMARK  status: ('A' for Active; 'I' for Inactive)
REMARK    1  A    between atoms: C2_2  and  O1_3 
REMARK    2  A    between atoms: O1_3  and  C3_4 
REMARK    3  A    between atoms: N3_13  and  C10_14 
REMARK    4  A    between atoms: C14_18  and  O2_19 
REMARK    5  A    between atoms: O2_19  and  C15_20 
REMARK    6  A    between atoms: C15_20  and  C16_21 
ROOT
HETATM    1  C3  UNL     1      19.937   3.181  52.256  1.00  0.00     0.049 C 
HETATM    2  C4  UNL     1      20.373   1.932  52.705  1.00  0.00     0.051 C 
HETATM    3  C5  UNL     1      20.771   0.559  53.203  1.00  0.00     0.113 C 
HETATM    4  N1  UNL     1      21.988  -0.033  53.420  1.00  0.00    -0.292 NA
HETATM    5  C6  UNL     1      23.083   0.897  53.100  1.00  0.00     0.209 C 
HETATM    6  C7  UNL     1      23.659   1.619  52.095  1.00  0.00     0.065 C 
HETATM    7  C8  UNL     1      24.667   2.182  52.850  1.00  0.00    -0.011 C 
HETATM    8  N2  UNL     1      25.588   2.710  53.516  1.00  0.00    -0.101 N 
HETATM    9  C9  UNL     1      23.768   2.040  50.649  1.00  0.00     0.144 C 
HETATM   10  N3  UNL     1      23.295   3.447  50.612  1.00  0.00    -0.379 N 
HETATM   11  C22 UNL     1      21.965   3.146  50.972  1.00  0.00     0.129 C 
HETATM   12  C23 UNL     1      21.113   4.078  51.807  1.00  0.00     0.084 C 
ENDROOT
BRANCH  10  13
HETATM   13  C10 UNL     1      24.088   4.550  50.236  1.00  0.00     0.032 A 
HETATM   14  C11 UNL     1      25.278   4.079  49.672  1.00  0.00     0.039 A 
HETATM   15  C12 UNL     1      26.276   5.003  49.312  1.00  0.00    -0.025 A 
HETATM   16  C13 UNL     1      27.535   4.487  48.726  1.00  0.00     0.051 C 
HETATM   17  C14 UNL     1      25.953   6.323  49.567  1.00  0.00     0.097 A 
HETATM   18  C20 UNL     1      24.783   6.755  50.110  1.00  0.00     0.070 A 
HETATM   19 CL1  UNL     1      24.592   8.475  50.354  1.00  0.00    -0.081 Cl
HETATM   20  C21 UNL     1      23.811   5.857  50.460  1.00  0.00     0.056 A 
BRANCH  17  21
HETATM   21  O2  UNL     1      27.074   7.153  49.172  1.00  0.00    -0.344 OA
BRANCH  21  22
HETATM   22  C15 UNL     1      26.808   7.618  47.821  1.00  0.00     0.214 C 
BRANCH  22  23
HETATM   23  C16 UNL     1      28.026   7.769  47.047  1.00  0.00    -0.034 A 
HETATM   24  C17 UNL     1      28.663   8.089  45.943  1.00  0.00     0.009 A 
HETATM   25  C18 UNL     1      29.931   7.755  46.569  1.00  0.00     0.001 A 
HETATM   26  C19 UNL     1      29.321   7.421  47.695  1.00  0.00     0.009 A 
ENDBRANCH  22  23
ENDBRANCH  21  22
ENDBRANCH  17  21
ENDBRANCH  10  13
BRANCH   1  27
HETATM   27  O1  UNL     1      18.622   3.248  52.332  1.00  0.00    -0.356 OA
BRANCH  27  28
HETATM   28  C2  UNL     1      17.754   3.105  51.247  1.00  0.00     0.170 C 
HETATM   29  C1  UNL     1      16.313   3.267  51.684  1.00  0.00     0.034 C 
ENDBRANCH  27  28
ENDBRANCH   1  27
TORSDOF 6
ENDMDL
MODEL 8
REMARK VINA RESULT:      -7.4      5.045      8.450
REMARK  6 active torsions:
REMARK  status: ('A' for Active; 'I' for Inactive)
REMARK    1  A    between atoms: C2_2  and  O1_3 
REMARK    2  A    between atoms: O1_3  and  C3_4 
REMARK    3  A    between atoms: N3_13  and  C10_14 
REMARK    4  A    between atoms: C14_18  and  O2_19 
REMARK    5  A    between atoms: O2_19  and  C15_20 
REMARK    6  A    between atoms: C15_20  and  C16_21 
ROOT
HETATM    1  C3  UNL     1      17.435   1.262  51.438  1.00  0.00     0.049 C 
HETATM    2  C4  UNL     1      17.521   2.310  50.518  1.00  0.00     0.051 C 
HETATM    3  C5  UNL     1      17.536   3.449  49.521  1.00  0.00     0.113 C 
HETATM    4  N1  UNL     1      18.551   4.088  48.857  1.00  0.00    -0.292 NA
HETATM    5  C6  UNL     1      19.854   3.504  49.214  1.00  0.00     0.209 C 
HETATM    6  C7  UNL     1      20.721   3.288  50.247  1.00  0.00     0.065 C 
HETATM    7  C8  UNL     1      21.693   2.638  49.516  1.00  0.00    -0.011 C 
HETATM    8  N2  UNL     1      22.589   2.040  48.874  1.00  0.00    -0.101 N 
HETATM    9  C9  UNL     1      21.142   3.443  51.689  1.00  0.00     0.144 C 
HETATM   10  N3  UNL     1      20.989   2.095  52.291  1.00  0.00    -0.379 N 
HETATM   11  C22 UNL     1      19.586   2.051  52.156  1.00  0.00     0.129 C 
HETATM   12  C23 UNL     1      18.829   0.768  51.885  1.00  0.00     0.084 C 
ENDROOT
BRANCH  10  13
HETATM   13  C10 UNL     1      22.046   1.330  52.823  1.00  0.00     0.032 A 
HETATM   14  C11 UNL     1      23.224   1.650  52.140  1.00  0.00     0.039 A 
HETATM   15  C12 UNL     1      24.399   0.934  52.431  1.00  0.00    -0.025 A 
HETATM   16  C13 UNL     1      25.635   1.278  51.690  1.00  0.00     0.051 C 
HETATM   17  C14 UNL     1      24.250  -0.041  53.399  1.00  0.00     0.097 A 
HETATM   18  C20 UNL     1      23.093  -0.328  54.055  1.00  0.00     0.070 A 
HETATM   19 CL1  UNL     1      23.132  -1.614  55.238  1.00  0.00    -0.081 Cl
HETATM   20  C21 UNL     1      21.949   0.369  53.772  1.00  0.00     0.056 A 
BRANCH  17  21
HETATM   21  O2  UNL     1      25.525  -0.708  53.577  1.00  0.00    -0.344 OA
BRANCH  21  22
HETATM   22  C15 UNL     1      26.217  -0.029  54.660  1.00  0.00     0.214 C 
BRANCH  22  23
HETATM   23  C16 UNL     1      27.650   0.028  54.440  1.00  0.00    -0.034 A 
HETATM   24  C17 UNL     1      28.848   0.482  54.732  1.00  0.00     0.009 A 
HETATM   25  C18 UNL     1      29.422  -0.330  53.673  1.00  0.00     0.001 A 
HETATM   26  C19 UNL     1      28.230  -0.806  53.350  1.00  0.00     0.009 A 
ENDBRANCH  22  23
ENDBRANCH  21  22
ENDBRANCH  17  21
ENDBRANCH  10  13
BRANCH   1  27
HETATM   27  O1  UNL     1      16.168   0.986  51.682  1.00  0.00    -0.356 OA
BRANCH  27  28
HETATM   28  C2  UNL     1      15.239   0.595  50.716  1.00  0.00     0.170 C 
HETATM   29  C1  UNL     1      15.386  -0.877  50.390  1.00  0.00     0.034 C 
ENDBRANCH  27  28
ENDBRANCH   1  27
TORSDOF 6
ENDMDL
MODEL 9
REMARK VINA RESULT:      -7.4      4.290      8.930
REMARK  6 active torsions:
REMARK  status: ('A' for Active; 'I' for Inactive)
REMARK    1  A    between atoms: C2_2  and  O1_3 
REMARK    2  A    between atoms: O1_3  and  C3_4 
REMARK    3  A    between atoms: N3_13  and  C10_14 
REMARK    4  A    between atoms: C14_18  and  O2_19 
REMARK    5  A    between atoms: O2_19  and  C15_20 
REMARK    6  A    between atoms: C15_20  and  C16_21 
ROOT
HETATM    1  C3  UNL     1      25.999   1.621  52.086  1.00  0.00     0.049 C 
HETATM    2  C4  UNL     1      26.167   2.618  51.122  1.00  0.00     0.051 C 
HETATM    3  C5  UNL     1      26.428   3.684  50.079  1.00  0.00     0.113 C 
HETATM    4  N1  UNL     1      25.605   4.566  49.429  1.00  0.00    -0.292 NA
HETATM    5  C6  UNL     1      24.213   4.407  49.879  1.00  0.00     0.209 C 
HETATM    6  C7  UNL     1      23.164   3.535  49.938  1.00  0.00     0.065 C 
HETATM    7  C8  UNL     1      22.279   4.379  50.576  1.00  0.00    -0.011 C 
HETATM    8  N2  UNL     1      21.459   5.126  51.161  1.00  0.00    -0.101 N 
HETATM    9  C9  UNL     1      22.514   2.209  49.623  1.00  0.00     0.144 C 
HETATM   10  N3  UNL     1      22.439   1.489  50.919  1.00  0.00    -0.379 N 
HETATM   11  C22 UNL     1      23.835   1.365  51.079  1.00  0.00     0.129 C 
HETATM   12  C23 UNL     1      24.509   1.398  52.434  1.00  0.00     0.084 C 
ENDROOT
BRANCH  10  13
HETATM   13  C10 UNL     1      21.242   1.102  51.553  1.00  0.00     0.032 A 
HETATM   14  C11 UNL     1      21.533   0.132  52.517  1.00  0.00     0.039 A 
HETATM   15  C12 UNL     1      20.475  -0.481  53.212  1.00  0.00    -0.025 A 
HETATM   16  C13 UNL     1      20.802  -1.515  54.222  1.00  0.00     0.051 C 
HETATM   17  C14 UNL     1      19.218  -0.036  52.849  1.00  0.00     0.097 A 
HETATM   18  C20 UNL     1      18.961   0.916  51.912  1.00  0.00     0.070 A 
HETATM   19 CL1  UNL     1      17.288   1.318  51.605  1.00  0.00    -0.081 Cl
HETATM   20  C21 UNL     1      19.991   1.514  51.235  1.00  0.00     0.056 A 
BRANCH  17  21
HETATM   21  O2  UNL     1      18.233  -0.766  53.623  1.00  0.00    -0.344 OA
BRANCH  21  22
HETATM   22  C15 UNL     1      17.414  -1.511  52.681  1.00  0.00     0.214 C 
BRANCH  22  23
HETATM   23  C16 UNL     1      17.100  -2.842  53.166  1.00  0.00    -0.034 A 
HETATM   24  C17 UNL     1      17.393  -3.921  53.858  1.00  0.00     0.009 A 
HETATM   25  C18 UNL     1      16.129  -4.523  53.468  1.00  0.00     0.001 A 
HETATM   26  C19 UNL     1      15.804  -3.453  52.760  1.00  0.00     0.009 A 
ENDBRANCH  22  23
ENDBRANCH  21  22
ENDBRANCH  17  21
ENDBRANCH  10  13
BRANCH   1  27
HETATM   27  O1  UNL     1      27.174   1.133  52.433  1.00  0.00    -0.356 OA
BRANCH  27  28
HETATM   28  C2  UNL     1      27.363  -0.039  53.170  1.00  0.00     0.170 C 
HETATM   29  C1  UNL     1      27.279   0.239  54.656  1.00  0.00     0.034 C 
ENDBRANCH  27  28
ENDBRANCH   1  27
TORSDOF 6
ENDMDL
