MODEL 1
REMARK VINA RESULT:      -8.5      0.000      0.000
REMARK  4 active torsions:
REMARK  status: ('A' for Active; 'I' for Inactive)
REMARK    1  A    between atoms: C6_6  and  C7_7 
REMARK    2  A    between atoms: C12_14  and  C13_15 
REMARK    3  A    between atoms: C13_15  and  C15_17 
REMARK    4  A    between atoms: C15_17  and  N1_18 
ROOT
HETATM    1  C1  UNL     1      16.232  -1.213  52.458  1.00  0.00     0.037 C 
HETATM    2  C2  UNL     1      17.597  -1.187  52.952  1.00  0.00    -0.017 C 
HETATM    3  C3  UNL     1      18.772  -0.574  52.681  1.00  0.00    -0.020 C 
HETATM    4  C4  UNL     1      19.992  -0.878  53.511  1.00  0.00     0.021 C 
HETATM    5  C5  UNL     1      21.080  -0.149  53.064  1.00  0.00     0.070 C 
HETATM    6  C6  UNL     1      22.387  -0.317  53.766  1.00  0.00    -0.000 C 
HETATM    7  C8  UNL     1      23.394   0.376  53.327  1.00  0.00     0.008 A 
HETATM    8  C9  UNL     1      24.676   0.228  53.995  1.00  0.00     0.011 A 
HETATM    9  C10 UNL     1      25.798   0.811  53.657  1.00  0.00    -0.021 A 
HETATM   10  C11 UNL     1      25.946   1.729  52.512  1.00  0.00     0.064 A 
HETATM   11  C12 UNL     1      24.643   1.892  51.830  1.00  0.00    -0.035 A 
HETATM   12  C18 UNL     1      23.531   1.287  52.207  1.00  0.00     0.101 A 
HETATM   13  O3  UNL     1      22.496   1.662  51.372  1.00  0.00    -0.248 OA
HETATM   14  S1  UNL     1      21.021   2.338  51.823  1.00  0.00     0.191 S 
HETATM   15  O4  UNL     1      21.077   3.814  52.000  1.00  0.00    -0.223 OA
HETATM   16  P1  UNL     1      19.520   1.741  50.464  1.00  0.00     0.067 P 
HETATM   17  S2  UNL     1      18.118   0.393  51.318  1.00  0.00    -0.090 SA
HETATM   18  H24 UNL     1      20.120   1.067  49.295  1.00  0.00     0.085 HD
ENDROOT
BRANCH  11  19
HETATM   19  C13 UNL     1      24.936   2.791  50.680  1.00  0.00     0.042 C 
HETATM   20  C14 UNL     1      26.331   2.799  50.186  1.00  0.00     0.016 C 
BRANCH  19  21
HETATM   21  C15 UNL     1      24.408   4.161  50.939  1.00  0.00     0.280 C 
BRANCH  21  22
HETATM   22  N1  UNL     1      24.091   4.943  49.717  1.00  0.00     0.080 N 
HETATM   23  C16 UNL     1      23.050   4.148  48.971  1.00  0.00     0.309 C 
HETATM   24  C17 UNL     1      23.387   6.198  50.102  1.00  0.00     0.309 C 
ENDBRANCH  21  22
ENDBRANCH  19  21
ENDBRANCH  11  19
BRANCH   6  25
HETATM   25  C7  UNL     1      22.750  -1.203  54.933  1.00  0.00     0.151 A 
HETATM   26  O1  UNL     1      22.165  -2.234  55.272  1.00  0.00    -0.188 OA
HETATM   27  O2  UNL     1      23.359  -1.738  56.031  1.00  0.00     0.000 OA
HETATM   28  H7  UNL     1      24.359  -2.017  56.038  1.00  0.00     0.000 HD
ENDBRANCH   6  25
TORSDOF 4
ENDMDL
MODEL 2
REMARK VINA RESULT:      -8.2      2.950      6.442
REMARK  4 active torsions:
REMARK  status: ('A' for Active; 'I' for Inactive)
REMARK    1  A    between atoms: C6_6  and  C7_7 
REMARK    2  A    between atoms: C12_14  and  C13_15 
REMARK    3  A    between atoms: C13_15  and  C15_17 
REMARK    4  A    between atoms: C15_17  and  N1_18 
ROOT
HETATM    1  C1  UNL     1      26.724   6.646  47.990  1.00  0.00     0.037 C 
HETATM    2  C2  UNL     1      26.813   5.527  48.910  1.00  0.00    -0.017 C 
HETATM    3  C3  UNL     1      25.992   4.693  49.589  1.00  0.00    -0.020 C 
HETATM    4  C4  UNL     1      26.570   3.619  50.473  1.00  0.00     0.021 C 
HETATM    5  C5  UNL     1      25.561   2.884  51.072  1.00  0.00     0.070 C 
HETATM    6  C6  UNL     1      25.940   1.769  51.990  1.00  0.00    -0.000 C 
HETATM    7  C8  UNL     1      24.976   1.096  52.542  1.00  0.00     0.008 A 
HETATM    8  C9  UNL     1      25.321   0.006  53.438  1.00  0.00     0.011 A 
HETATM    9  C10 UNL     1      24.482  -0.739  54.111  1.00  0.00    -0.021 A 
HETATM   10  C11 UNL     1      23.016  -0.586  54.071  1.00  0.00     0.064 A 
HETATM   11  C12 UNL     1      22.654   0.518  53.153  1.00  0.00    -0.035 A 
HETATM   12  C18 UNL     1      23.534   1.245  52.488  1.00  0.00     0.101 A 
HETATM   13  O3  UNL     1      22.871   2.178  51.714  1.00  0.00    -0.248 OA
HETATM   14  S1  UNL     1      23.020   2.407  50.053  1.00  0.00     0.191 S 
HETATM   15  O4  UNL     1      22.154   1.501  49.251  1.00  0.00    -0.223 OA
HETATM   16  P1  UNL     1      22.710   4.443  49.585  1.00  0.00     0.067 P 
HETATM   17  S2  UNL     1      24.483   5.426  48.952  1.00  0.00    -0.090 SA
HETATM   18  H24 UNL     1      22.203   5.172  50.765  1.00  0.00     0.085 HD
ENDROOT
BRANCH  11  19
HETATM   19  C13 UNL     1      21.170   0.600  53.239  1.00  0.00     0.042 C 
HETATM   20  C14 UNL     1      20.568   0.313  54.560  1.00  0.00     0.016 C 
BRANCH  19  21
HETATM   21  C15 UNL     1      20.538  -0.177  52.135  1.00  0.00     0.280 C 
BRANCH  21  22
HETATM   22  N1  UNL     1      19.569   0.591  51.313  1.00  0.00     0.080 N 
HETATM   23  C16 UNL     1      18.217  -0.021  51.583  1.00  0.00     0.309 C 
HETATM   24  C17 UNL     1      19.455   1.977  51.846  1.00  0.00     0.309 C 
ENDBRANCH  21  22
ENDBRANCH  19  21
ENDBRANCH  11  19
BRANCH   6  25
HETATM   25  C7  UNL     1      27.307   1.286  52.411  1.00  0.00     0.151 A 
HETATM   26  O1  UNL     1      28.260   1.997  52.735  1.00  0.00    -0.188 OA
HETATM   27  O2  UNL     1      28.378   0.503  52.728  1.00  0.00     0.000 OA
HETATM   28  H7  UNL     1      28.346  -0.213  53.480  1.00  0.00     0.000 HD
ENDBRANCH   6  25
TORSDOF 4
ENDMDL
MODEL 3
REMARK VINA RESULT:      -8.1      2.731      4.068
REMARK  4 active torsions:
REMARK  status: ('A' for Active; 'I' for Inactive)
REMARK    1  A    between atoms: C6_6  and  C7_7 
REMARK    2  A    between atoms: C12_14  and  C13_15 
REMARK    3  A    between atoms: C13_15  and  C15_17 
REMARK    4  A    between atoms: C15_17  and  N1_18 
ROOT
HETATM    1  C1  UNL     1      17.235   3.128  47.714  1.00  0.00     0.037 C 
HETATM    2  C2  UNL     1      17.574   2.313  48.866  1.00  0.00    -0.017 C 
HETATM    3  C3  UNL     1      18.666   1.959  49.583  1.00  0.00    -0.020 C 
HETATM    4  C4  UNL     1      18.526   1.039  50.767  1.00  0.00     0.021 C 
HETATM    5  C5  UNL     1      19.758   0.805  51.353  1.00  0.00     0.070 C 
HETATM    6  C6  UNL     1      19.822  -0.088  52.547  1.00  0.00    -0.000 C 
HETATM    7  C8  UNL     1      20.990  -0.294  53.077  1.00  0.00     0.008 A 
HETATM    8  C9  UNL     1      21.076  -1.160  54.240  1.00  0.00     0.011 A 
HETATM    9  C10 UNL     1      22.170  -1.510  54.866  1.00  0.00    -0.021 A 
HETATM   10  C11 UNL     1      23.525  -1.077  54.479  1.00  0.00     0.064 A 
HETATM   11  C12 UNL     1      23.447  -0.187  53.299  1.00  0.00    -0.035 A 
HETATM   12  C18 UNL     1      22.319   0.146  52.698  1.00  0.00     0.101 A 
HETATM   13  O3  UNL     1      22.591   0.997  51.643  1.00  0.00    -0.248 OA
HETATM   14  S1  UNL     1      21.941   2.527  51.379  1.00  0.00     0.191 S 
HETATM   15  O4  UNL     1      22.660   3.608  52.105  1.00  0.00    -0.223 OA
HETATM   16  P1  UNL     1      21.809   2.895  49.304  1.00  0.00     0.067 P 
HETATM   17  S2  UNL     1      19.808   2.929  48.594  1.00  0.00    -0.090 SA
HETATM   18  H24 UNL     1      22.524   1.848  48.547  1.00  0.00     0.085 HD
ENDROOT
BRANCH  11  19
HETATM   19  C13 UNL     1      24.866   0.138  52.983  1.00  0.00     0.042 C 
HETATM   20  C14 UNL     1      25.826  -0.988  53.030  1.00  0.00     0.016 C 
BRANCH  19  21
HETATM   21  C15 UNL     1      25.321   1.318  53.771  1.00  0.00     0.280 C 
BRANCH  21  22
HETATM   22  N1  UNL     1      26.038   2.351  52.981  1.00  0.00     0.080 N 
HETATM   23  C16 UNL     1      27.508   2.101  53.206  1.00  0.00     0.309 C 
HETATM   24  C17 UNL     1      25.841   2.088  51.529  1.00  0.00     0.309 C 
ENDBRANCH  21  22
ENDBRANCH  19  21
ENDBRANCH  11  19
BRANCH   6  25
HETATM   25  C7  UNL     1      18.717  -0.832  53.257  1.00  0.00     0.151 A 
HETATM   26  O1  UNL     1      18.001  -1.709  52.769  1.00  0.00    -0.188 OA
HETATM   27  O2  UNL     1      17.831  -1.276  54.194  1.00  0.00     0.000 OA
HETATM   28  H7  UNL     1      18.130  -1.688  55.099  1.00  0.00     0.000 HD
ENDBRANCH   6  25
TORSDOF 4
ENDMDL
MODEL 4
REMARK VINA RESULT:      -8.0      2.610      6.149
REMARK  4 active torsions:
REMARK  status: ('A' for Active; 'I' for Inactive)
REMARK    1  A    between atoms: C6_6  and  C7_7 
REMARK    2  A    between atoms: C12_14  and  C13_15 
REMARK    3  A    between atoms: C13_15  and  C15_17 
REMARK    4  A    between atoms: C15_17  and  N1_18 
ROOT
HETATM    1  C1  UNL     1      26.758   5.078  48.946  1.00  0.00     0.037 C 
HETATM    2  C2  UNL     1      26.437   4.025  49.892  1.00  0.00    -0.017 C 
HETATM    3  C3  UNL     1      25.356   3.339  50.331  1.00  0.00    -0.020 C 
HETATM    4  C4  UNL     1      25.515   2.273  51.383  1.00  0.00     0.021 C 
HETATM    5  C5  UNL     1      24.292   1.702  51.688  1.00  0.00     0.070 C 
HETATM    6  C6  UNL     1      24.247   0.619  52.716  1.00  0.00    -0.000 C 
HETATM    7  C8  UNL     1      23.087   0.101  52.987  1.00  0.00     0.008 A 
HETATM    8  C9  UNL     1      23.019  -0.954  53.983  1.00  0.00     0.011 A 
HETATM    9  C10 UNL     1      21.935  -1.550  54.409  1.00  0.00    -0.021 A 
HETATM   10  C11 UNL     1      20.573  -1.235  53.938  1.00  0.00     0.064 A 
HETATM   11  C12 UNL     1      20.633  -0.166  52.916  1.00  0.00    -0.035 A 
HETATM   12  C18 UNL     1      21.752   0.407  52.511  1.00  0.00     0.101 A 
HETATM   13  O3  UNL     1      21.462   1.352  51.544  1.00  0.00    -0.248 OA
HETATM   14  S1  UNL     1      22.106   1.444  49.991  1.00  0.00     0.191 S 
HETATM   15  O4  UNL     1      21.395   0.586  49.005  1.00  0.00    -0.223 OA
HETATM   16  P1  UNL     1      22.207   3.462  49.381  1.00  0.00     0.067 P 
HETATM   17  S2  UNL     1      24.198   4.191  49.257  1.00  0.00    -0.090 SA
HETATM   18  H24 UNL     1      21.483   4.327  50.336  1.00  0.00     0.085 HD
ENDROOT
BRANCH  11  19
HETATM   19  C13 UNL     1      19.209   0.090  52.562  1.00  0.00     0.042 C 
HETATM   20  C14 UNL     1      18.200  -0.765  53.227  1.00  0.00     0.016 C 
BRANCH  19  21
HETATM   21  C15 UNL     1      19.038   0.140  51.083  1.00  0.00     0.280 C 
BRANCH  21  22
HETATM   22  N1  UNL     1      17.798   0.816  50.625  1.00  0.00     0.080 N 
HETATM   23  C16 UNL     1      18.236   1.857  49.625  1.00  0.00     0.309 C 
HETATM   24  C17 UNL     1      16.981  -0.138  49.825  1.00  0.00     0.309 C 
ENDBRANCH  21  22
ENDBRANCH  19  21
ENDBRANCH  11  19
BRANCH   6  25
HETATM   25  C7  UNL     1      25.363   0.016  53.534  1.00  0.00     0.151 A 
HETATM   26  O1  UNL     1      26.056   0.607  54.364  1.00  0.00    -0.188 OA
HETATM   27  O2  UNL     1      26.271  -0.847  54.073  1.00  0.00     0.000 OA
HETATM   28  H7  UNL     1      25.993  -1.716  54.568  1.00  0.00     0.000 HD
ENDBRANCH   6  25
TORSDOF 4
ENDMDL
MODEL 5
REMARK VINA RESULT:      -7.6      3.026      6.553
REMARK  4 active torsions:
REMARK  status: ('A' for Active; 'I' for Inactive)
REMARK    1  A    between atoms: C6_6  and  C7_7 
REMARK    2  A    between atoms: C12_14  and  C13_15 
REMARK    3  A    between atoms: C13_15  and  C15_17 
REMARK    4  A    between atoms: C15_17  and  N1_18 
ROOT
HETATM    1  C1  UNL     1      27.159   2.471  51.966  1.00  0.00     0.037 C 
HETATM    2  C2  UNL     1      26.004   1.723  52.427  1.00  0.00    -0.017 C 
HETATM    3  C3  UNL     1      24.688   1.593  52.138  1.00  0.00    -0.020 C 
HETATM    4  C4  UNL     1      23.832   0.638  52.928  1.00  0.00     0.021 C 
HETATM    5  C5  UNL     1      22.525   0.662  52.472  1.00  0.00     0.070 C 
HETATM    6  C6  UNL     1      21.523  -0.222  53.137  1.00  0.00    -0.000 C 
HETATM    7  C8  UNL     1      20.303  -0.181  52.693  1.00  0.00     0.008 A 
HETATM    8  C9  UNL     1      19.310  -1.033  53.324  1.00  0.00     0.011 A 
HETATM    9  C10 UNL     1      18.035  -1.082  53.036  1.00  0.00    -0.021 A 
HETATM   10  C11 UNL     1      17.383  -0.255  52.004  1.00  0.00     0.064 A 
HETATM   11  C12 UNL     1      18.388   0.611  51.349  1.00  0.00    -0.035 A 
HETATM   12  C18 UNL     1      19.670   0.627  51.667  1.00  0.00     0.101 A 
HETATM   13  O3  UNL     1      20.335   1.532  50.862  1.00  0.00    -0.248 OA
HETATM   14  S1  UNL     1      21.674   1.232  49.888  1.00  0.00     0.191 S 
HETATM   15  O4  UNL     1      21.321   0.686  48.550  1.00  0.00    -0.223 OA
HETATM   16  P1  UNL     1      22.868   2.969  49.764  1.00  0.00     0.067 P 
HETATM   17  S2  UNL     1      24.720   2.775  50.787  1.00  0.00    -0.090 SA
HETATM   18  H24 UNL     1      22.161   4.124  50.353  1.00  0.00     0.085 HD
ENDROOT
BRANCH  11  19
HETATM   19  C13 UNL     1      17.604   1.420  50.374  1.00  0.00     0.042 C 
HETATM   20  C14 UNL     1      16.900   2.604  50.915  1.00  0.00     0.016 C 
BRANCH  19  21
HETATM   21  C15 UNL     1      16.716   0.541  49.561  1.00  0.00     0.280 C 
BRANCH  21  22
HETATM   22  N1  UNL     1      15.375   1.111  49.276  1.00  0.00     0.080 N 
HETATM   23  C16 UNL     1      15.234   1.114  47.775  1.00  0.00     0.309 C 
HETATM   24  C17 UNL     1      14.325   0.162  49.739  1.00  0.00     0.309 C 
ENDBRANCH  21  22
ENDBRANCH  19  21
ENDBRANCH  11  19
BRANCH   6  25
HETATM   25  C7  UNL     1      21.694  -1.181  54.290  1.00  0.00     0.151 A 
HETATM   26  O1  UNL     1      22.008  -0.880  55.444  1.00  0.00    -0.188 OA
HETATM   27  O2  UNL     1      21.752  -2.306  55.059  1.00  0.00     0.000 OA
HETATM   28  H7  UNL     1      20.940  -2.939  55.190  1.00  0.00     0.000 HD
ENDBRANCH   6  25
TORSDOF 4
ENDMDL
MODEL 6
REMARK VINA RESULT:      -7.3      2.654      4.164
REMARK  4 active torsions:
REMARK  status: ('A' for Active; 'I' for Inactive)
REMARK    1  A    between atoms: C6_6  and  C7_7 
REMARK    2  A    between atoms: C12_14  and  C13_15 
REMARK    3  A    between atoms: C13_15  and  C15_17 
REMARK    4  A    between atoms: C15_17  and  N1_18 
ROOT
HETATM    1  C1  UNL     1      15.650   2.283  48.187  1.00  0.00     0.037 C 
HETATM    2  C2  UNL     1      16.264   1.535  49.268  1.00  0.00    -0.017 C 
HETATM    3  C3  UNL     1      17.458   1.439  49.897  1.00  0.00    -0.020 C 
HETATM    4  C4  UNL     1      17.638   0.467  51.033  1.00  0.00     0.021 C 
HETATM    5  C5  UNL     1      18.929   0.529  51.529  1.00  0.00     0.070 C 
HETATM    6  C6  UNL     1      19.300  -0.367  52.665  1.00  0.00    -0.000 C 
HETATM    7  C8  UNL     1      20.517  -0.292  53.111  1.00  0.00     0.008 A 
HETATM    8  C9  UNL     1      20.901  -1.154  54.216  1.00  0.00     0.011 A 
HETATM    9  C10 UNL     1      22.090  -1.242  54.754  1.00  0.00    -0.021 A 
HETATM   10  C11 UNL     1      23.262  -0.464  54.312  1.00  0.00     0.064 A 
HETATM   11  C12 UNL     1      22.880   0.423  53.192  1.00  0.00    -0.035 A 
HETATM   12  C18 UNL     1      21.664   0.485  52.679  1.00  0.00     0.101 A 
HETATM   13  O3  UNL     1      21.638   1.418  51.660  1.00  0.00    -0.248 OA
HETATM   14  S1  UNL     1      20.610   2.743  51.523  1.00  0.00     0.191 S 
HETATM   15  O4  UNL     1      21.087   3.941  52.266  1.00  0.00    -0.223 OA
HETATM   16  P1  UNL     1      20.241   3.150  49.484  1.00  0.00     0.067 P 
HETATM   17  S2  UNL     1      18.248   2.705  48.899  1.00  0.00    -0.090 SA
HETATM   18  H24 UNL     1      21.138   2.348  48.628  1.00  0.00     0.085 HD
ENDROOT
BRANCH  11  19
HETATM   19  C13 UNL     1      24.146   1.108  52.810  1.00  0.00     0.042 C 
HETATM   20  C14 UNL     1      24.302   1.459  51.381  1.00  0.00     0.016 C 
BRANCH  19  21
HETATM   21  C15 UNL     1      25.323   0.373  53.356  1.00  0.00     0.280 C 
BRANCH  21  22
HETATM   22  N1  UNL     1      26.241   1.199  54.180  1.00  0.00     0.080 N 
HETATM   23  C16 UNL     1      27.135   0.227  54.907  1.00  0.00     0.309 C 
HETATM   24  C17 UNL     1      27.168   1.949  53.287  1.00  0.00     0.309 C 
ENDBRANCH  21  22
ENDBRANCH  19  21
ENDBRANCH  11  19
BRANCH   6  25
HETATM   25  C7  UNL     1      18.470  -1.393  53.397  1.00  0.00     0.151 A 
HETATM   26  O1  UNL     1      17.311  -1.244  53.789  1.00  0.00    -0.188 OA
HETATM   27  O2  UNL     1      18.044  -2.532  54.016  1.00  0.00     0.000 OA
HETATM   28  H7  UNL     1      18.019  -3.454  53.539  1.00  0.00     0.000 HD
ENDBRANCH   6  25
TORSDOF 4
ENDMDL
MODEL 7
REMARK VINA RESULT:      -7.2      2.452      3.733
REMARK  4 active torsions:
REMARK  status: ('A' for Active; 'I' for Inactive)
REMARK    1  A    between atoms: C6_6  and  C7_7 
REMARK    2  A    between atoms: C12_14  and  C13_15 
REMARK    3  A    between atoms: C13_15  and  C15_17 
REMARK    4  A    between atoms: C15_17  and  N1_18 
ROOT
HETATM    1  C1  UNL     1      14.240   1.408  48.429  1.00  0.00     0.037 C 
HETATM    2  C2  UNL     1      15.036   0.751  49.449  1.00  0.00    -0.017 C 
HETATM    3  C3  UNL     1      16.284   0.809  49.968  1.00  0.00    -0.020 C 
HETATM    4  C4  UNL     1      16.684  -0.125  51.081  1.00  0.00     0.021 C 
HETATM    5  C5  UNL     1      17.996   0.100  51.460  1.00  0.00     0.070 C 
HETATM    6  C6  UNL     1      18.574  -0.733  52.555  1.00  0.00    -0.000 C 
HETATM    7  C8  UNL     1      19.808  -0.505  52.891  1.00  0.00     0.008 A 
HETATM    8  C9  UNL     1      20.392  -1.304  53.955  1.00  0.00     0.011 A 
HETATM    9  C10 UNL     1      21.626  -1.240  54.384  1.00  0.00    -0.021 A 
HETATM   10  C11 UNL     1      22.649  -0.327  53.841  1.00  0.00     0.064 A 
HETATM   11  C12 UNL     1      22.061   0.497  52.762  1.00  0.00    -0.035 A 
HETATM   12  C18 UNL     1      20.806   0.403  52.360  1.00  0.00     0.101 A 
HETATM   13  O3  UNL     1      20.575   1.318  51.350  1.00  0.00    -0.248 OA
HETATM   14  S1  UNL     1      19.382   2.505  51.310  1.00  0.00     0.191 S 
HETATM   15  O4  UNL     1      19.772   3.758  52.010  1.00  0.00    -0.223 OA
HETATM   16  P1  UNL     1      18.786   2.846  49.313  1.00  0.00     0.067 P 
HETATM   17  S2  UNL     1      16.819   2.154  48.907  1.00  0.00    -0.090 SA
HETATM   18  H24 UNL     1      19.695   2.154  48.377  1.00  0.00     0.085 HD
ENDROOT
BRANCH  11  19
HETATM   19  C13 UNL     1      23.194   1.330  52.271  1.00  0.00     0.042 C 
HETATM   20  C14 UNL     1      24.554   0.786  52.485  1.00  0.00     0.016 C 
BRANCH  19  21
HETATM   21  C15 UNL     1      23.054   2.736  52.745  1.00  0.00     0.280 C 
BRANCH  21  22
HETATM   22  N1  UNL     1      23.742   3.745  51.901  1.00  0.00     0.080 N 
HETATM   23  C16 UNL     1      23.022   3.741  50.576  1.00  0.00     0.309 C 
HETATM   24  C17 UNL     1      23.487   5.106  52.451  1.00  0.00     0.309 C 
ENDBRANCH  21  22
ENDBRANCH  19  21
ENDBRANCH  11  19
BRANCH   6  25
HETATM   25  C7  UNL     1      17.946  -1.849  53.355  1.00  0.00     0.151 A 
HETATM   26  O1  UNL     1      16.850  -2.369  53.139  1.00  0.00    -0.188 OA
HETATM   27  O2  UNL     1      17.709  -2.822  54.281  1.00  0.00     0.000 OA
HETATM   28  H7  UNL     1      18.338  -3.637  54.412  1.00  0.00     0.000 HD
ENDBRANCH   6  25
TORSDOF 4
ENDMDL
MODEL 8
REMARK VINA RESULT:      -7.1      1.882      2.159
REMARK  4 active torsions:
REMARK  status: ('A' for Active; 'I' for Inactive)
REMARK    1  A    between atoms: C6_6  and  C7_7 
REMARK    2  A    between atoms: C12_14  and  C13_15 
REMARK    3  A    between atoms: C13_15  and  C15_17 
REMARK    4  A    between atoms: C15_17  and  N1_18 
ROOT
HETATM    1  C1  UNL     1      16.021   0.572  49.701  1.00  0.00     0.037 C 
HETATM    2  C2  UNL     1      17.288   0.371  50.381  1.00  0.00    -0.017 C 
HETATM    3  C3  UNL     1      18.542   0.877  50.378  1.00  0.00    -0.020 C 
HETATM    4  C4  UNL     1      19.584   0.322  51.314  1.00  0.00     0.021 C 
HETATM    5  C5  UNL     1      20.791   0.978  51.147  1.00  0.00     0.070 C 
HETATM    6  C6  UNL     1      21.950   0.563  51.991  1.00  0.00    -0.000 C 
HETATM    7  C8  UNL     1      23.073   1.192  51.813  1.00  0.00     0.008 A 
HETATM    8  C9  UNL     1      24.215   0.806  52.625  1.00  0.00     0.011 A 
HETATM    9  C10 UNL     1      25.424   1.298  52.544  1.00  0.00    -0.021 A 
HETATM   10  C11 UNL     1      25.835   2.345  51.590  1.00  0.00     0.064 A 
HETATM   11  C12 UNL     1      24.676   2.751  50.765  1.00  0.00    -0.035 A 
HETATM   12  C18 UNL     1      23.467   2.231  50.881  1.00  0.00     0.101 A 
HETATM   13  O3  UNL     1      22.615   2.835  49.976  1.00  0.00    -0.248 OA
HETATM   14  S1  UNL     1      21.156   3.605  50.315  1.00  0.00     0.191 S 
HETATM   15  O4  UNL     1      21.319   5.025  50.726  1.00  0.00    -0.223 OA
HETATM   16  P1  UNL     1      19.838   3.382  48.680  1.00  0.00     0.067 P 
HETATM   17  S2  UNL     1      18.202   2.096  49.105  1.00  0.00    -0.090 SA
HETATM   18  H24 UNL     1      20.550   2.815  47.517  1.00  0.00     0.085 HD
ENDROOT
BRANCH  11  19
HETATM   19  C13 UNL     1      25.227   3.764  49.822  1.00  0.00     0.042 C 
HETATM   20  C14 UNL     1      26.622   3.557  49.372  1.00  0.00     0.016 C 
BRANCH  19  21
HETATM   21  C15 UNL     1      24.984   5.142  50.335  1.00  0.00     0.280 C 
BRANCH  21  22
HETATM   22  N1  UNL     1      24.971   6.198  49.291  1.00  0.00     0.080 N 
HETATM   23  C16 UNL     1      23.790   7.081  49.607  1.00  0.00     0.309 C 
HETATM   24  C17 UNL     1      26.151   7.088  49.473  1.00  0.00     0.309 C 
ENDBRANCH  21  22
ENDBRANCH  19  21
ENDBRANCH  11  19
BRANCH   6  25
HETATM   25  C7  UNL     1      22.043  -0.514  53.044  1.00  0.00     0.151 A 
HETATM   26  O1  UNL     1      21.413  -0.550  54.103  1.00  0.00    -0.188 OA
HETATM   27  O2  UNL     1      22.383  -1.635  53.744  1.00  0.00     0.000 OA
HETATM   28  H7  UNL     1      22.263  -2.592  53.362  1.00  0.00     0.000 HD
ENDBRANCH   6  25
TORSDOF 4
ENDMDL
MODEL 9
REMARK VINA RESULT:      -7.0      2.899      5.831
REMARK  4 active torsions:
REMARK  status: ('A' for Active; 'I' for Inactive)
REMARK    1  A    between atoms: C6_6  and  C7_7 
REMARK    2  A    between atoms: C12_14  and  C13_15 
REMARK    3  A    between atoms: C13_15  and  C15_17 
REMARK    4  A    between atoms: C15_17  and  N1_18 
ROOT
HETATM    1  C1  UNL     1      27.546   1.673  52.952  1.00  0.00     0.037 C 
HETATM    2  C2  UNL     1      26.223   1.106  53.137  1.00  0.00    -0.017 C 
HETATM    3  C3  UNL     1      24.961   1.281  52.681  1.00  0.00    -0.020 C 
HETATM    4  C4  UNL     1      23.846   0.404  53.187  1.00  0.00     0.021 C 
HETATM    5  C5  UNL     1      22.644   0.752  52.596  1.00  0.00     0.070 C 
HETATM    6  C6  UNL     1      21.417  -0.009  52.974  1.00  0.00    -0.000 C 
HETATM    7  C8  UNL     1      20.300   0.338  52.409  1.00  0.00     0.008 A 
HETATM    8  C9  UNL     1      19.093  -0.390  52.761  1.00  0.00     0.011 A 
HETATM    9  C10 UNL     1      17.885  -0.143  52.325  1.00  0.00    -0.021 A 
HETATM   10  C11 UNL     1      17.544   0.943  51.387  1.00  0.00     0.064 A 
HETATM   11  C12 UNL     1      18.769   1.684  51.015  1.00  0.00    -0.035 A 
HETATM   12  C18 UNL     1      19.974   1.400  51.476  1.00  0.00     0.101 A 
HETATM   13  O3  UNL     1      20.896   2.269  50.925  1.00  0.00    -0.248 OA
HETATM   14  S1  UNL     1      22.290   1.864  50.073  1.00  0.00     0.191 S 
HETATM   15  O4  UNL     1      22.046   1.608  48.628  1.00  0.00    -0.223 OA
HETATM   16  P1  UNL     1      23.774   3.331  50.395  1.00  0.00     0.067 P 
HETATM   17  S2  UNL     1      25.394   2.625  51.573  1.00  0.00    -0.090 SA
HETATM   18  H24 UNL     1      23.201   4.499  51.094  1.00  0.00     0.085 HD
ENDROOT
BRANCH  11  19
HETATM   19  C13 UNL     1      18.288   2.769  50.115  1.00  0.00     0.042 C 
HETATM   20  C14 UNL     1      16.880   3.191  50.284  1.00  0.00     0.016 C 
BRANCH  19  21
HETATM   21  C15 UNL     1      18.633   2.464  48.698  1.00  0.00     0.280 C 
BRANCH  21  22
HETATM   22  N1  UNL     1      18.765   3.656  47.822  1.00  0.00     0.080 N 
HETATM   23  C16 UNL     1      19.896   4.472  48.397  1.00  0.00     0.309 C 
HETATM   24  C17 UNL     1      19.264   3.235  46.484  1.00  0.00     0.309 C 
ENDBRANCH  21  22
ENDBRANCH  19  21
ENDBRANCH  11  19
BRANCH   6  25
HETATM   25  C7  UNL     1      21.248  -1.146  53.953  1.00  0.00     0.151 A 
HETATM   26  O1  UNL     1      21.951  -2.157  54.020  1.00  0.00    -0.188 OA
HETATM   27  O2  UNL     1      20.799  -1.953  54.957  1.00  0.00     0.000 OA
HETATM   28  H7  UNL     1      20.738  -1.638  55.945  1.00  0.00     0.000 HD
ENDBRANCH   6  25
TORSDOF 4
ENDMDL
