MODEL 1
REMARK VINA RESULT:      -8.7      0.000      0.000
REMARK  3 active torsions:
REMARK  status: ('A' for Active; 'I' for Inactive)
REMARK    1  A    between atoms: C7_7  and  N1_8 
REMARK    2  A    between atoms: N1_8  and  C8_9 
REMARK    3  A    between atoms: C10_12  and  N3_13 
REMARK       I    between atoms: N3_13  and  C11_14 
REMARK       I    between atoms: C11_14  and  N4_15 
ROOT
HETATM    1  C1  UNL     1      28.699   5.571  48.197  1.00  0.00     0.018 C 
HETATM    2  C2  UNL     1      27.565   5.471  48.598  1.00  0.00    -0.078 C 
HETATM    3  C3  UNL     1      26.216   5.369  49.088  1.00  0.00     0.019 A 
HETATM    4  C4  UNL     1      25.198   6.070  48.480  1.00  0.00     0.021 A 
HETATM    5  C5  UNL     1      23.921   5.940  48.987  1.00  0.00     0.004 A 
HETATM    6  C6  UNL     1      23.707   5.127  50.068  1.00  0.00     0.029 A 
HETATM    7  C7  UNL     1      24.648   4.408  50.718  1.00  0.00     0.034 A 
HETATM    8  C16 UNL     1      25.929   4.568  50.172  1.00  0.00     0.050 A 
ENDROOT
BRANCH   7   9
HETATM    9  N1  UNL     1      24.504   3.545  51.827  1.00  0.00    -0.344 N 
HETATM   10  H5  UNL     1      24.273   3.966  52.778  1.00  0.00     0.167 HD
BRANCH   9  11
HETATM   11  C8  UNL     1      24.635   2.139  51.766  1.00  0.00     0.102 C 
HETATM   12  N2  UNL     1      25.870   1.820  51.896  1.00  0.00    -0.271 NA
HETATM   13  C9  UNL     1      26.662   0.604  51.924  1.00  0.00     0.208 C 
HETATM   14  C10 UNL     1      26.188  -0.328  52.982  1.00  0.00     0.033 C 
HETATM   15  C12 UNL     1      25.057  -0.610  53.609  1.00  0.00     0.026 C 
HETATM   16  C13 UNL     1      23.668  -0.144  53.584  1.00  0.00    -0.002 C 
HETATM   17  C14 UNL     1      22.951   0.668  52.790  1.00  0.00    -0.019 C 
HETATM   18  C15 UNL     1      23.376   1.413  51.581  1.00  0.00     0.105 C 
BRANCH  14  19
HETATM   19  N3  UNL     1      27.262  -1.144  53.446  1.00  0.00    -0.311 N 
HETATM   20  C11 UNL     1      27.449  -2.389  52.761  1.00  0.00     0.318 C 
HETATM   21  N4  UNL     1      28.497  -3.265  53.157  1.00  0.00    -0.352 N 
HETATM   22  O1  UNL     1      26.759  -2.826  51.796  1.00  0.00    -0.247 OA
HETATM   23  H9  UNL     1      28.413  -4.260  53.435  1.00  0.00     0.160 HD
HETATM   24  H10 UNL     1      29.500  -3.045  53.228  1.00  0.00     0.160 HD
HETATM   25  H8  UNL     1      27.903  -0.894  54.233  1.00  0.00     0.170 HD
ENDBRANCH  14  19
ENDBRANCH   9  11
ENDBRANCH   7   9
TORSDOF 3
ENDMDL
MODEL 2
REMARK VINA RESULT:      -8.1      4.205      7.096
REMARK  3 active torsions:
REMARK  status: ('A' for Active; 'I' for Inactive)
REMARK    1  A    between atoms: C7_7  and  N1_8 
REMARK    2  A    between atoms: N1_8  and  C8_9 
REMARK    3  A    between atoms: C10_12  and  N3_13 
REMARK       I    between atoms: N3_13  and  C11_14 
REMARK       I    between atoms: C11_14  and  N4_15 
ROOT
HETATM    1  C1  UNL     1      26.264   0.235  52.307  1.00  0.00     0.018 C 
HETATM    2  C2  UNL     1      25.231  -0.007  52.882  1.00  0.00    -0.078 C 
HETATM    3  C3  UNL     1      23.998  -0.314  53.558  1.00  0.00     0.019 A 
HETATM    4  C4  UNL     1      24.006  -1.047  54.725  1.00  0.00     0.021 A 
HETATM    5  C5  UNL     1      22.798  -1.316  55.335  1.00  0.00     0.004 A 
HETATM    6  C6  UNL     1      21.640  -0.851  54.769  1.00  0.00     0.029 A 
HETATM    7  C7  UNL     1      21.549  -0.127  53.632  1.00  0.00     0.034 A 
HETATM    8  C16 UNL     1      22.797   0.124  53.044  1.00  0.00     0.050 A 
ENDROOT
BRANCH   7   9
HETATM    9  N1  UNL     1      20.400   0.393  52.995  1.00  0.00    -0.344 N 
HETATM   10  H5  UNL     1      19.441   0.054  53.311  1.00  0.00     0.167 HD
BRANCH   9  11
HETATM   11  C8  UNL     1      20.429   1.354  51.960  1.00  0.00     0.102 C 
HETATM   12  N2  UNL     1      20.679   2.509  52.456  1.00  0.00    -0.271 NA
HETATM   13  C9  UNL     1      20.840   3.869  51.972  1.00  0.00     0.208 C 
HETATM   14  C10 UNL     1      21.905   3.952  50.936  1.00  0.00     0.033 C 
HETATM   15  C12 UNL     1      22.450   3.167  50.021  1.00  0.00     0.026 C 
HETATM   16  C13 UNL     1      22.284   1.791  49.547  1.00  0.00    -0.002 C 
HETATM   17  C14 UNL     1      21.388   0.813  49.761  1.00  0.00    -0.019 C 
HETATM   18  C15 UNL     1      20.179   0.819  50.619  1.00  0.00     0.105 C 
BRANCH  14  19
HETATM   19  N3  UNL     1      22.502   5.248  50.939  1.00  0.00    -0.311 N 
HETATM   20  C11 UNL     1      23.518   5.472  51.925  1.00  0.00     0.318 C 
HETATM   21  N4  UNL     1      24.167   6.734  51.999  1.00  0.00    -0.352 N 
HETATM   22  O1  UNL     1      23.930   4.637  52.781  1.00  0.00    -0.247 OA
HETATM   23  H9  UNL     1      24.245   7.353  52.827  1.00  0.00     0.160 HD
HETATM   24  H10 UNL     1      24.660   7.228  51.242  1.00  0.00     0.160 HD
HETATM   25  H8  UNL     1      22.248   6.022  50.283  1.00  0.00     0.170 HD
ENDBRANCH  14  19
ENDBRANCH   9  11
ENDBRANCH   7   9
TORSDOF 3
ENDMDL
MODEL 3
REMARK VINA RESULT:      -8.0      3.290      7.974
REMARK  3 active torsions:
REMARK  status: ('A' for Active; 'I' for Inactive)
REMARK    1  A    between atoms: C7_7  and  N1_8 
REMARK    2  A    between atoms: N1_8  and  C8_9 
REMARK    3  A    between atoms: C10_12  and  N3_13 
REMARK       I    between atoms: N3_13  and  C11_14 
REMARK       I    between atoms: C11_14  and  N4_15 
ROOT
HETATM    1  C1  UNL     1      22.212  -0.860  54.120  1.00  0.00     0.018 C 
HETATM    2  C2  UNL     1      23.278  -0.488  53.693  1.00  0.00    -0.078 C 
HETATM    3  C3  UNL     1      24.555  -0.041  53.203  1.00  0.00     0.019 A 
HETATM    4  C4  UNL     1      25.628  -0.904  53.159  1.00  0.00     0.021 A 
HETATM    5  C5  UNL     1      26.831  -0.428  52.682  1.00  0.00     0.004 A 
HETATM    6  C6  UNL     1      26.923   0.876  52.271  1.00  0.00     0.029 A 
HETATM    7  C7  UNL     1      25.922   1.783  52.281  1.00  0.00     0.034 A 
HETATM    8  C16 UNL     1      24.717   1.258  52.772  1.00  0.00     0.050 A 
ENDROOT
BRANCH   7   9
HETATM    9  N1  UNL     1      25.936   3.133  51.867  1.00  0.00    -0.344 N 
HETATM   10  H5  UNL     1      26.251   3.878  52.560  1.00  0.00     0.167 HD
BRANCH   9  11
HETATM   11  C8  UNL     1      25.566   3.576  50.577  1.00  0.00     0.102 C 
HETATM   12  N2  UNL     1      24.434   4.172  50.639  1.00  0.00    -0.271 NA
HETATM   13  C9  UNL     1      23.523   4.834  49.722  1.00  0.00     0.208 C 
HETATM   14  C10 UNL     1      24.198   5.939  48.990  1.00  0.00     0.033 C 
HETATM   15  C12 UNL     1      25.420   6.247  48.584  1.00  0.00     0.026 C 
HETATM   16  C13 UNL     1      26.756   5.650  48.645  1.00  0.00    -0.002 C 
HETATM   17  C14 UNL     1      27.248   4.456  49.014  1.00  0.00    -0.019 C 
HETATM   18  C15 UNL     1      26.532   3.262  49.520  1.00  0.00     0.105 C 
BRANCH  14  19
HETATM   19  N3  UNL     1      23.255   6.948  48.630  1.00  0.00    -0.311 N 
HETATM   20  C11 UNL     1      23.049   7.990  49.592  1.00  0.00     0.318 C 
HETATM   21  N4  UNL     1      22.128   9.036  49.316  1.00  0.00    -0.352 N 
HETATM   22  O1  UNL     1      23.619   8.098  50.716  1.00  0.00    -0.247 OA
HETATM   23  H9  UNL     1      21.322   9.333  49.895  1.00  0.00     0.160 HD
HETATM   24  H10 UNL     1      22.120   9.661  48.497  1.00  0.00     0.160 HD
HETATM   25  H8  UNL     1      22.722   6.970  47.731  1.00  0.00     0.170 HD
ENDBRANCH  14  19
ENDBRANCH   9  11
ENDBRANCH   7   9
TORSDOF 3
ENDMDL
MODEL 4
REMARK VINA RESULT:      -7.7      2.894      3.764
REMARK  3 active torsions:
REMARK  status: ('A' for Active; 'I' for Inactive)
REMARK    1  A    between atoms: C7_7  and  N1_8 
REMARK    2  A    between atoms: N1_8  and  C8_9 
REMARK    3  A    between atoms: C10_12  and  N3_13 
REMARK       I    between atoms: N3_13  and  C11_14 
REMARK       I    between atoms: C11_14  and  N4_15 
ROOT
HETATM    1  C1  UNL     1      29.800   5.976  47.962  1.00  0.00     0.018 C 
HETATM    2  C2  UNL     1      28.657   5.759  48.280  1.00  0.00    -0.078 C 
HETATM    3  C3  UNL     1      27.297   5.509  48.679  1.00  0.00     0.019 A 
HETATM    4  C4  UNL     1      26.338   6.489  48.543  1.00  0.00     0.021 A 
HETATM    5  C5  UNL     1      25.048   6.200  48.940  1.00  0.00     0.004 A 
HETATM    6  C6  UNL     1      24.763   4.962  49.451  1.00  0.00     0.029 A 
HETATM    7  C7  UNL     1      25.643   3.951  49.616  1.00  0.00     0.034 A 
HETATM    8  C16 UNL     1      26.940   4.284  49.200  1.00  0.00     0.050 A 
ENDROOT
BRANCH   7   9
HETATM    9  N1  UNL     1      25.424   2.651  50.124  1.00  0.00    -0.344 N 
HETATM   10  H5  UNL     1      25.867   1.823  49.621  1.00  0.00     0.167 HD
BRANCH   9  11
HETATM   11  C8  UNL     1      24.656   2.363  51.275  1.00  0.00     0.102 C 
HETATM   12  N2  UNL     1      23.540   1.840  50.923  1.00  0.00    -0.271 NA
HETATM   13  C9  UNL     1      22.344   1.334  51.574  1.00  0.00     0.208 C 
HETATM   14  C10 UNL     1      22.673   0.264  52.554  1.00  0.00     0.033 C 
HETATM   15  C12 UNL     1      23.689  -0.084  53.327  1.00  0.00     0.026 C 
HETATM   16  C13 UNL     1      25.035   0.414  53.622  1.00  0.00    -0.002 C 
HETATM   17  C14 UNL     1      25.722   1.530  53.328  1.00  0.00    -0.019 C 
HETATM   18  C15 UNL     1      25.298   2.714  52.545  1.00  0.00     0.105 C 
BRANCH  14  19
HETATM   19  N3  UNL     1      21.576  -0.639  52.691  1.00  0.00    -0.311 N 
HETATM   20  C11 UNL     1      20.717  -0.420  53.817  1.00  0.00     0.318 C 
HETATM   21  N4  UNL     1      19.600  -1.272  54.032  1.00  0.00    -0.352 N 
HETATM   22  O1  UNL     1      20.839   0.488  54.690  1.00  0.00    -0.247 OA
HETATM   23  H9  UNL     1      19.379  -1.815  54.886  1.00  0.00     0.160 HD
HETATM   24  H10 UNL     1      18.838  -1.480  53.371  1.00  0.00     0.160 HD
HETATM   25  H8  UNL     1      21.369  -1.428  52.037  1.00  0.00     0.170 HD
ENDBRANCH  14  19
ENDBRANCH   9  11
ENDBRANCH   7   9
TORSDOF 3
ENDMDL
MODEL 5
REMARK VINA RESULT:      -7.7      1.631      1.658
REMARK  3 active torsions:
REMARK  status: ('A' for Active; 'I' for Inactive)
REMARK    1  A    between atoms: C7_7  and  N1_8 
REMARK    2  A    between atoms: N1_8  and  C8_9 
REMARK    3  A    between atoms: C10_12  and  N3_13 
REMARK       I    between atoms: N3_13  and  C11_14 
REMARK       I    between atoms: C11_14  and  N4_15 
ROOT
HETATM    1  C1  UNL     1      28.702   5.848  48.242  1.00  0.00     0.018 C 
HETATM    2  C2  UNL     1      27.525   5.820  48.507  1.00  0.00    -0.078 C 
HETATM    3  C3  UNL     1      26.124   5.804  48.835  1.00  0.00     0.019 A 
HETATM    4  C4  UNL     1      25.238   6.610  48.154  1.00  0.00     0.021 A 
HETATM    5  C5  UNL     1      23.905   6.559  48.506  1.00  0.00     0.004 A 
HETATM    6  C6  UNL     1      23.506   5.717  49.510  1.00  0.00     0.029 A 
HETATM    7  C7  UNL     1      24.309   4.898  50.223  1.00  0.00     0.034 A 
HETATM    8  C16 UNL     1      25.654   4.980  49.834  1.00  0.00     0.050 A 
ENDROOT
BRANCH   7   9
HETATM    9  N1  UNL     1      23.973   4.000  51.260  1.00  0.00    -0.344 N 
HETATM   10  H5  UNL     1      23.486   4.378  52.128  1.00  0.00     0.167 HD
BRANCH   9  11
HETATM   11  C8  UNL     1      24.232   2.610  51.228  1.00  0.00     0.102 C 
HETATM   12  N2  UNL     1      25.463   2.399  51.515  1.00  0.00    -0.271 NA
HETATM   13  C9  UNL     1      26.348   1.256  51.652  1.00  0.00     0.208 C 
HETATM   14  C10 UNL     1      25.825   0.283  52.649  1.00  0.00     0.033 C 
HETATM   15  C12 UNL     1      24.652  -0.098  53.131  1.00  0.00     0.026 C 
HETATM   16  C13 UNL     1      23.243   0.248  52.928  1.00  0.00    -0.002 C 
HETATM   17  C14 UNL     1      22.565   0.996  52.043  1.00  0.00    -0.019 C 
HETATM   18  C15 UNL     1      23.074   1.778  50.891  1.00  0.00     0.105 C 
BRANCH  14  19
HETATM   19  N3  UNL     1      26.899  -0.438  53.252  1.00  0.00    -0.311 N 
HETATM   20  C11 UNL     1      27.568   0.218  54.336  1.00  0.00     0.318 C 
HETATM   21  N4  UNL     1      28.650  -0.428  54.994  1.00  0.00    -0.352 N 
HETATM   22  O1  UNL     1      27.299   1.362  54.802  1.00  0.00    -0.247 OA
HETATM   23  H9  UNL     1      29.609  -0.062  55.134  1.00  0.00     0.160 HD
HETATM   24  H10 UNL     1      28.645  -1.359  55.436  1.00  0.00     0.160 HD
HETATM   25  H8  UNL     1      27.216  -1.390  52.957  1.00  0.00     0.170 HD
ENDBRANCH  14  19
ENDBRANCH   9  11
ENDBRANCH   7   9
TORSDOF 3
ENDMDL
MODEL 6
REMARK VINA RESULT:      -7.6      7.666     10.290
REMARK  3 active torsions:
REMARK  status: ('A' for Active; 'I' for Inactive)
REMARK    1  A    between atoms: C7_7  and  N1_8 
REMARK    2  A    between atoms: N1_8  and  C8_9 
REMARK    3  A    between atoms: C10_12  and  N3_13 
REMARK       I    between atoms: N3_13  and  C11_14 
REMARK       I    between atoms: C11_14  and  N4_15 
ROOT
HETATM    1  C1  UNL     1      32.035   0.308  46.661  1.00  0.00     0.018 C 
HETATM    2  C2  UNL     1      32.449   1.434  46.794  1.00  0.00    -0.078 C 
HETATM    3  C3  UNL     1      32.942   2.774  46.973  1.00  0.00     0.019 A 
HETATM    4  C4  UNL     1      34.281   3.000  47.207  1.00  0.00     0.021 A 
HETATM    5  C5  UNL     1      34.705   4.303  47.372  1.00  0.00     0.004 A 
HETATM    6  C6  UNL     1      33.791   5.321  47.300  1.00  0.00     0.029 A 
HETATM    7  C7  UNL     1      32.467   5.183  47.074  1.00  0.00     0.034 A 
HETATM    8  C16 UNL     1      32.078   3.846  46.911  1.00  0.00     0.050 A 
ENDROOT
BRANCH   7   9
HETATM    9  N1  UNL     1      31.470   6.179  46.976  1.00  0.00    -0.344 N 
HETATM   10  H5  UNL     1      31.313   6.657  46.037  1.00  0.00     0.167 HD
BRANCH   9  11
HETATM   11  C8  UNL     1      30.643   6.589  48.047  1.00  0.00     0.102 C 
HETATM   12  N2  UNL     1      30.978   7.769  48.416  1.00  0.00    -0.271 NA
HETATM   13  C9  UNL     1      30.558   8.736  49.415  1.00  0.00     0.208 C 
HETATM   14  C10 UNL     1      29.112   9.060  49.281  1.00  0.00     0.033 C 
HETATM   15  C12 UNL     1      28.008   8.471  48.849  1.00  0.00     0.026 C 
HETATM   16  C13 UNL     1      27.634   7.176  48.274  1.00  0.00    -0.002 C 
HETATM   17  C14 UNL     1      28.256   6.000  48.096  1.00  0.00    -0.019 C 
HETATM   18  C15 UNL     1      29.638   5.604  48.457  1.00  0.00     0.105 C 
BRANCH  14  19
HETATM   19  N3  UNL     1      28.852  10.382  49.751  1.00  0.00    -0.311 N 
HETATM   20  C11 UNL     1      29.095  11.442  48.818  1.00  0.00     0.318 C 
HETATM   21  N4  UNL     1      28.863  12.791  49.202  1.00  0.00    -0.352 N 
HETATM   22  O1  UNL     1      29.513  11.316  47.631  1.00  0.00    -0.247 OA
HETATM   23  H9  UNL     1      29.534  13.579  49.166  1.00  0.00     0.160 HD
HETATM   24  H10 UNL     1      27.990  13.192  49.575  1.00  0.00     0.160 HD
HETATM   25  H8  UNL     1      28.504  10.615  50.710  1.00  0.00     0.170 HD
ENDBRANCH  14  19
ENDBRANCH   9  11
ENDBRANCH   7   9
TORSDOF 3
ENDMDL
MODEL 7
REMARK VINA RESULT:      -7.4      3.626      7.867
REMARK  3 active torsions:
REMARK  status: ('A' for Active; 'I' for Inactive)
REMARK    1  A    between atoms: C7_7  and  N1_8 
REMARK    2  A    between atoms: N1_8  and  C8_9 
REMARK    3  A    between atoms: C10_12  and  N3_13 
REMARK       I    between atoms: N3_13  and  C11_14 
REMARK       I    between atoms: C11_14  and  N4_15 
ROOT
HETATM    1  C1  UNL     1      22.237  -1.375  54.837  1.00  0.00     0.018 C 
HETATM    2  C2  UNL     1      23.085  -0.839  54.166  1.00  0.00    -0.078 C 
HETATM    3  C3  UNL     1      24.105  -0.192  53.384  1.00  0.00     0.019 A 
HETATM    4  C4  UNL     1      25.338  -0.784  53.217  1.00  0.00     0.021 A 
HETATM    5  C5  UNL     1      26.283  -0.123  52.458  1.00  0.00     0.004 A 
HETATM    6  C6  UNL     1      25.970   1.088  51.901  1.00  0.00     0.029 A 
HETATM    7  C7  UNL     1      24.789   1.733  52.017  1.00  0.00     0.034 A 
HETATM    8  C16 UNL     1      23.858   1.028  52.794  1.00  0.00     0.050 A 
ENDROOT
BRANCH   7   9
HETATM    9  N1  UNL     1      24.390   2.972  51.467  1.00  0.00    -0.344 N 
HETATM   10  H5  UNL     1      24.186   3.783  52.127  1.00  0.00     0.167 HD
BRANCH   9  11
HETATM   11  C8  UNL     1      24.248   3.222  50.084  1.00  0.00     0.102 C 
HETATM   12  N2  UNL     1      23.107   2.793  49.687  1.00  0.00    -0.271 NA
HETATM   13  C9  UNL     1      22.361   2.735  48.443  1.00  0.00     0.208 C 
HETATM   14  C10 UNL     1      22.190   4.088  47.850  1.00  0.00     0.033 C 
HETATM   15  C12 UNL     1      22.831   5.247  47.842  1.00  0.00     0.026 C 
HETATM   16  C13 UNL     1      24.057   5.801  48.422  1.00  0.00    -0.002 C 
HETATM   17  C14 UNL     1      25.112   5.294  49.080  1.00  0.00    -0.019 C 
HETATM   18  C15 UNL     1      25.394   3.890  49.460  1.00  0.00     0.105 C 
BRANCH  14  19
HETATM   19  N3  UNL     1      20.996   4.145  47.072  1.00  0.00    -0.311 N 
HETATM   20  C11 UNL     1      21.137   3.842  45.678  1.00  0.00     0.318 C 
HETATM   21  N4  UNL     1      19.998   3.874  44.828  1.00  0.00    -0.352 N 
HETATM   22  O1  UNL     1      22.208   3.533  45.082  1.00  0.00    -0.247 OA
HETATM   23  H9  UNL     1      19.880   4.421  43.956  1.00  0.00     0.160 HD
HETATM   24  H10 UNL     1      19.115   3.357  44.948  1.00  0.00     0.160 HD
HETATM   25  H8  UNL     1      20.051   4.387  47.449  1.00  0.00     0.170 HD
ENDBRANCH  14  19
ENDBRANCH   9  11
ENDBRANCH   7   9
TORSDOF 3
ENDMDL
MODEL 8
REMARK VINA RESULT:      -7.3      2.697      4.041
REMARK  3 active torsions:
REMARK  status: ('A' for Active; 'I' for Inactive)
REMARK    1  A    between atoms: C7_7  and  N1_8 
REMARK    2  A    between atoms: N1_8  and  C8_9 
REMARK    3  A    between atoms: C10_12  and  N3_13 
REMARK       I    between atoms: N3_13  and  C11_14 
REMARK       I    between atoms: C11_14  and  N4_15 
ROOT
HETATM    1  C1  UNL     1      18.881   5.556  49.395  1.00  0.00     0.018 C 
HETATM    2  C2  UNL     1      19.812   4.794  49.481  1.00  0.00    -0.078 C 
HETATM    3  C3  UNL     1      20.909   3.868  49.579  1.00  0.00     0.019 A 
HETATM    4  C4  UNL     1      21.600   3.482  48.451  1.00  0.00     0.021 A 
HETATM    5  C5  UNL     1      22.644   2.592  48.597  1.00  0.00     0.004 A 
HETATM    6  C6  UNL     1      22.960   2.124  49.845  1.00  0.00     0.029 A 
HETATM    7  C7  UNL     1      22.334   2.453  50.996  1.00  0.00     0.034 A 
HETATM    8  C16 UNL     1      21.281   3.359  50.804  1.00  0.00     0.050 A 
ENDROOT
BRANCH   7   9
HETATM    9  N1  UNL     1      22.606   2.023  52.314  1.00  0.00    -0.344 N 
HETATM   10  H5  UNL     1      21.805   1.983  53.015  1.00  0.00     0.167 HD
BRANCH   9  11
HETATM   11  C8  UNL     1      23.881   1.626  52.777  1.00  0.00     0.102 C 
HETATM   12  N2  UNL     1      23.906   0.352  52.915  1.00  0.00    -0.271 NA
HETATM   13  C9  UNL     1      24.861  -0.658  53.335  1.00  0.00     0.208 C 
HETATM   14  C10 UNL     1      26.103  -0.603  52.519  1.00  0.00     0.033 C 
HETATM   15  C12 UNL     1      26.795   0.299  51.840  1.00  0.00     0.026 C 
HETATM   16  C13 UNL     1      26.693   1.729  51.539  1.00  0.00    -0.002 C 
HETATM   17  C14 UNL     1      25.920   2.739  51.971  1.00  0.00    -0.019 C 
HETATM   18  C15 UNL     1      24.831   2.724  52.976  1.00  0.00     0.105 C 
BRANCH  14  19
HETATM   19  N3  UNL     1      26.714  -1.891  52.453  1.00  0.00    -0.311 N 
HETATM   20  C11 UNL     1      27.930  -2.050  53.195  1.00  0.00     0.318 C 
HETATM   21  N4  UNL     1      28.606  -3.300  53.186  1.00  0.00    -0.352 N 
HETATM   22  O1  UNL     1      28.504  -1.166  53.894  1.00  0.00    -0.247 OA
HETATM   23  H9  UNL     1      29.593  -3.479  52.924  1.00  0.00     0.160 HD
HETATM   24  H10 UNL     1      28.220  -4.220  53.441  1.00  0.00     0.160 HD
HETATM   25  H8  UNL     1      26.337  -2.702  51.911  1.00  0.00     0.170 HD
ENDBRANCH  14  19
ENDBRANCH   9  11
ENDBRANCH   7   9
TORSDOF 3
ENDMDL
MODEL 9
REMARK VINA RESULT:      -7.3      3.701      6.851
REMARK  3 active torsions:
REMARK  status: ('A' for Active; 'I' for Inactive)
REMARK    1  A    between atoms: C7_7  and  N1_8 
REMARK    2  A    between atoms: N1_8  and  C8_9 
REMARK    3  A    between atoms: C10_12  and  N3_13 
REMARK       I    between atoms: N3_13  and  C11_14 
REMARK       I    between atoms: C11_14  and  N4_15 
ROOT
HETATM    1  C1  UNL     1      16.253  -0.002  49.649  1.00  0.00     0.018 C 
HETATM    2  C2  UNL     1      17.036  -0.128  50.559  1.00  0.00    -0.078 C 
HETATM    3  C3  UNL     1      17.957  -0.268  51.656  1.00  0.00     0.019 A 
HETATM    4  C4  UNL     1      17.783  -1.265  52.591  1.00  0.00     0.021 A 
HETATM    5  C5  UNL     1      18.692  -1.357  53.624  1.00  0.00     0.004 A 
HETATM    6  C6  UNL     1      19.730  -0.465  53.689  1.00  0.00     0.029 A 
HETATM    7  C7  UNL     1      19.970   0.536  52.814  1.00  0.00     0.034 A 
HETATM    8  C16 UNL     1      19.024   0.595  51.780  1.00  0.00     0.050 A 
ENDROOT
BRANCH   7   9
HETATM    9  N1  UNL     1      21.017   1.484  52.808  1.00  0.00    -0.344 N 
HETATM   10  H5  UNL     1      20.787   2.504  53.010  1.00  0.00     0.167 HD
BRANCH   9  11
HETATM   11  C8  UNL     1      22.373   1.173  52.559  1.00  0.00     0.102 C 
HETATM   12  N2  UNL     1      23.086   2.228  52.702  1.00  0.00    -0.271 NA
HETATM   13  C9  UNL     1      24.488   2.593  52.599  1.00  0.00     0.208 C 
HETATM   14  C10 UNL     1      25.333   1.758  53.493  1.00  0.00     0.033 C 
HETATM   15  C12 UNL     1      25.306   0.544  54.021  1.00  0.00     0.026 C 
HETATM   16  C13 UNL     1      24.417  -0.620  53.995  1.00  0.00    -0.002 C 
HETATM   17  C14 UNL     1      23.331  -0.972  53.287  1.00  0.00    -0.019 C 
HETATM   18  C15 UNL     1      22.628  -0.229  52.215  1.00  0.00     0.105 C 
BRANCH  14  19
HETATM   19  N3  UNL     1      26.500   2.476  53.891  1.00  0.00    -0.311 N 
HETATM   20  C11 UNL     1      27.681   2.238  53.115  1.00  0.00     0.318 C 
HETATM   21  N4  UNL     1      28.890   2.912  53.440  1.00  0.00    -0.352 N 
HETATM   22  O1  UNL     1      27.784   1.461  52.123  1.00  0.00    -0.247 OA
HETATM   23  H9  UNL     1      29.812   2.486  53.643  1.00  0.00     0.160 HD
HETATM   24  H10 UNL     1      29.035   3.929  53.523  1.00  0.00     0.160 HD
HETATM   25  H8  UNL     1      26.542   3.147  54.692  1.00  0.00     0.170 HD
ENDBRANCH  14  19
ENDBRANCH   9  11
ENDBRANCH   7   9
TORSDOF 3
ENDMDL
