MODEL 1
REMARK VINA RESULT:      -9.1      0.000      0.000
REMARK  5 active torsions:
REMARK  status: ('A' for Active; 'I' for Inactive)
REMARK       I    between atoms: N1_2  and  C2_3 
REMARK    1  A    between atoms: C2_3  and  C3_5 
REMARK    2  A    between atoms: C3_5  and  N2_6 
REMARK    3  A    between atoms: N3_9  and  C6_10 
REMARK    4  A    between atoms: C9_13  and  C10_14 
REMARK    5  A    between atoms: C10_14  and  C11_15 
ROOT
HETATM    1  C6  UNL     1      25.030   4.154  50.601  1.00  0.00     0.030 A 
HETATM    2  C7  UNL     1      26.133   3.782  49.863  1.00  0.00     0.030 A 
HETATM    3  C8  UNL     1      26.718   4.682  48.982  1.00  0.00     0.009 A 
HETATM    4  C9  UNL     1      26.162   5.958  48.866  1.00  0.00    -0.054 A 
HETATM    5  C20 UNL     1      25.042   6.292  49.635  1.00  0.00     0.009 A 
HETATM    6  C21 UNL     1      24.459   5.404  50.509  1.00  0.00     0.030 A 
ENDROOT
BRANCH   4   7
HETATM    7  C10 UNL     1      26.707   7.019  47.948  1.00  0.00     0.074 C 
BRANCH   7   8
HETATM    8  C11 UNL     1      28.136   7.284  48.269  1.00  0.00    -0.056 A 
HETATM    9  C12 UNL     1      28.431   8.298  49.100  1.00  0.00     0.091 A 
HETATM   10  N4  UNL     1      29.769   8.621  49.461  1.00  0.00    -0.365 N 
HETATM   11  C13 UNL     1      30.859   7.865  48.941  1.00  0.00     0.038 A 
HETATM   12  H16 UNL     1      29.888   9.417  50.105  1.00  0.00     0.165 HD
HETATM   13  C14 UNL     1      32.150   8.173  49.287  1.00  0.00     0.031 A 
HETATM   14  C18 UNL     1      30.532   6.833  48.094  1.00  0.00    -0.026 A 
HETATM   15  C15 UNL     1      33.177   7.399  48.749  1.00  0.00     0.026 A 
HETATM   16  C16 UNL     1      32.869   6.350  47.889  1.00  0.00     0.034 A 
HETATM   17 CL1  UNL     1      34.289   5.495  47.317  1.00  0.00    -0.084 Cl
HETATM   18  C17 UNL     1      31.553   6.073  47.567  1.00  0.00     0.033 A 
HETATM   19  C19 UNL     1      29.187   6.425  47.664  1.00  0.00     0.077 A 
ENDBRANCH   7   8
ENDBRANCH   4   7
BRANCH   1  20
HETATM   20  N3  UNL     1      24.429   3.241  51.502  1.00  0.00    -0.378 N 
HETATM   21  C5  UNL     1      24.280   3.338  52.940  1.00  0.00     0.153 C 
HETATM   22  C4  UNL     1      25.166   2.243  53.517  1.00  0.00     0.292 C 
HETATM   23  N2  UNL     1      24.557   0.977  53.199  1.00  0.00     0.100 N 
HETATM   24  C23 UNL     1      23.497   1.092  52.225  1.00  0.00     0.292 C 
HETATM   25  C22 UNL     1      23.838   1.997  51.083  1.00  0.00     0.153 C 
BRANCH  23  26
HETATM   26  C3  UNL     1      25.609   0.082  52.744  1.00  0.00     0.374 C 
BRANCH  26  27
HETATM   27  C2  UNL     1      26.501  -0.255  53.880  1.00  0.00     0.245 C 
HETATM   28  N1  UNL     1      27.866  -0.012  53.554  1.00  0.00    -0.364 N 
HETATM   29  C1  UNL     1      29.018  -0.223  54.408  1.00  0.00     0.149 C 
HETATM   30  H4  UNL     1      28.245   0.354  52.651  1.00  0.00     0.161 HD
HETATM   31  O1  UNL     1      26.208  -0.706  55.034  1.00  0.00    -0.272 OA
ENDBRANCH  26  27
ENDBRANCH  23  26
ENDBRANCH   1  20
TORSDOF 5
ENDMDL
MODEL 2
REMARK VINA RESULT:      -8.8      3.630      8.514
REMARK  5 active torsions:
REMARK  status: ('A' for Active; 'I' for Inactive)
REMARK       I    between atoms: N1_2  and  C2_3 
REMARK    1  A    between atoms: C2_3  and  C3_5 
REMARK    2  A    between atoms: C3_5  and  N2_6 
REMARK    3  A    between atoms: N3_9  and  C6_10 
REMARK    4  A    between atoms: C9_13  and  C10_14 
REMARK    5  A    between atoms: C10_14  and  C11_15 
ROOT
HETATM    1  C6  UNL     1      27.586   6.517  48.493  1.00  0.00     0.030 A 
HETATM    2  C7  UNL     1      26.304   6.942  48.768  1.00  0.00     0.030 A 
HETATM    3  C8  UNL     1      25.334   6.027  49.154  1.00  0.00     0.009 A 
HETATM    4  C9  UNL     1      25.690   4.680  49.254  1.00  0.00    -0.054 A 
HETATM    5  C20 UNL     1      27.004   4.294  48.965  1.00  0.00     0.009 A 
HETATM    6  C21 UNL     1      27.968   5.197  48.582  1.00  0.00     0.030 A 
ENDROOT
BRANCH   4   7
HETATM    7  C10 UNL     1      24.729   3.597  49.664  1.00  0.00     0.074 C 
BRANCH   7   8
HETATM    8  C11 UNL     1      25.196   2.950  50.920  1.00  0.00    -0.056 A 
HETATM    9  C12 UNL     1      24.655   3.341  52.085  1.00  0.00     0.091 A 
HETATM   10  N4  UNL     1      25.044   2.776  53.332  1.00  0.00    -0.365 N 
HETATM   11  C13 UNL     1      26.039   1.758  53.384  1.00  0.00     0.038 A 
HETATM   12  H16 UNL     1      24.567   3.147  54.168  1.00  0.00     0.165 HD
HETATM   13  C14 UNL     1      26.415   1.210  54.584  1.00  0.00     0.031 A 
HETATM   14  C18 UNL     1      26.577   1.374  52.179  1.00  0.00    -0.026 A 
HETATM   15  C15 UNL     1      27.393   0.217  54.575  1.00  0.00     0.026 A 
HETATM   16  C16 UNL     1      27.951  -0.187  53.367  1.00  0.00     0.034 A 
HETATM   17 CL1  UNL     1      29.160  -1.443  53.558  1.00  0.00    -0.084 Cl
HETATM   18  C17 UNL     1      27.543   0.391  52.179  1.00  0.00     0.033 A 
HETATM   19  C19 UNL     1      26.242   1.897  50.846  1.00  0.00     0.077 A 
ENDBRANCH   7   8
ENDBRANCH   4   7
BRANCH   1  20
HETATM   20  N3  UNL     1      28.581   7.446  48.100  1.00  0.00    -0.378 N 
HETATM   21  C5  UNL     1      29.292   7.545  46.841  1.00  0.00     0.153 C 
HETATM   22  C4  UNL     1      30.739   7.196  47.162  1.00  0.00     0.292 C 
HETATM   23  N2  UNL     1      31.284   8.275  47.946  1.00  0.00     0.100 N 
HETATM   24  C23 UNL     1      30.273   9.188  48.425  1.00  0.00     0.292 C 
HETATM   25  C22 UNL     1      29.057   8.499  48.958  1.00  0.00     0.153 C 
BRANCH  23  26
HETATM   26  C3  UNL     1      32.040   7.688  49.040  1.00  0.00     0.374 C 
BRANCH  26  27
HETATM   27  C2  UNL     1      33.415   7.374  48.582  1.00  0.00     0.245 C 
HETATM   28  N1  UNL     1      33.762   6.025  48.881  1.00  0.00    -0.364 N 
HETATM   29  C1  UNL     1      35.017   5.362  48.587  1.00  0.00     0.149 C 
HETATM   30  H4  UNL     1      33.168   5.309  49.357  1.00  0.00     0.161 HD
HETATM   31  O1  UNL     1      34.264   8.119  47.994  1.00  0.00    -0.272 OA
ENDBRANCH  26  27
ENDBRANCH  23  26
ENDBRANCH   1  20
TORSDOF 5
ENDMDL
MODEL 3
REMARK VINA RESULT:      -8.7      5.030     10.592
REMARK  5 active torsions:
REMARK  status: ('A' for Active; 'I' for Inactive)
REMARK       I    between atoms: N1_2  and  C2_3 
REMARK    1  A    between atoms: C2_3  and  C3_5 
REMARK    2  A    between atoms: C3_5  and  N2_6 
REMARK    3  A    between atoms: N3_9  and  C6_10 
REMARK    4  A    between atoms: C9_13  and  C10_14 
REMARK    5  A    between atoms: C10_14  and  C11_15 
ROOT
HETATM    1  C6  UNL     1      24.138   4.595  50.914  1.00  0.00     0.030 A 
HETATM    2  C7  UNL     1      24.670   3.462  50.337  1.00  0.00     0.030 A 
HETATM    3  C8  UNL     1      24.616   2.247  51.006  1.00  0.00     0.009 A 
HETATM    4  C9  UNL     1      24.015   2.207  52.268  1.00  0.00    -0.054 A 
HETATM    5  C20 UNL     1      23.490   3.383  52.815  1.00  0.00     0.009 A 
HETATM    6  C21 UNL     1      23.541   4.588  52.155  1.00  0.00     0.030 A 
ENDROOT
BRANCH   4   7
HETATM    7  C10 UNL     1      23.896   0.952  53.089  1.00  0.00     0.074 C 
BRANCH   7   8
HETATM    8  C11 UNL     1      22.483   0.485  53.101  1.00  0.00    -0.056 A 
HETATM    9  C12 UNL     1      22.012  -0.115  54.207  1.00  0.00     0.091 A 
HETATM   10  N4  UNL     1      20.675  -0.592  54.303  1.00  0.00    -0.365 N 
HETATM   11  C13 UNL     1      19.776  -0.444  53.209  1.00  0.00     0.038 A 
HETATM   12  H16 UNL     1      20.413  -1.037  55.196  1.00  0.00     0.165 HD
HETATM   13  C14 UNL     1      18.485  -0.901  53.298  1.00  0.00     0.031 A 
HETATM   14  C18 UNL     1      20.279   0.173  52.088  1.00  0.00    -0.026 A 
HETATM   15  C15 UNL     1      17.649  -0.730  52.197  1.00  0.00     0.026 A 
HETATM   16  C16 UNL     1      18.138  -0.108  51.053  1.00  0.00     0.034 A 
HETATM   17 CL1  UNL     1      16.941   0.017  49.777  1.00  0.00    -0.084 Cl
HETATM   18  C17 UNL     1      19.446   0.339  51.004  1.00  0.00     0.033 A 
HETATM   19  C19 UNL     1      21.640   0.695  51.895  1.00  0.00     0.077 A 
ENDBRANCH   7   8
ENDBRANCH   4   7
BRANCH   1  20
HETATM   20  N3  UNL     1      24.190   5.837  50.235  1.00  0.00    -0.378 N 
HETATM   21  C5  UNL     1      24.552   6.113  48.859  1.00  0.00     0.153 C 
HETATM   22  C4  UNL     1      25.858   6.893  48.930  1.00  0.00     0.292 C 
HETATM   23  N2  UNL     1      25.560   8.195  49.469  1.00  0.00     0.100 N 
HETATM   24  C23 UNL     1      24.233   8.279  50.032  1.00  0.00     0.292 C 
HETATM   25  C22 UNL     1      23.865   7.091  50.863  1.00  0.00     0.153 C 
BRANCH  23  26
HETATM   26  C3  UNL     1      26.582   8.510  50.453  1.00  0.00     0.374 C 
BRANCH  26  27
HETATM   27  C2  UNL     1      27.553   9.469  49.873  1.00  0.00     0.245 C 
HETATM   28  N1  UNL     1      28.844   8.880  49.744  1.00  0.00    -0.364 N 
HETATM   29  C1  UNL     1      30.041   9.510  49.220  1.00  0.00     0.149 C 
HETATM   30  H4  UNL     1      29.126   7.909  50.007  1.00  0.00     0.161 HD
HETATM   31  O1  UNL     1      27.379  10.674  49.503  1.00  0.00    -0.272 OA
ENDBRANCH  26  27
ENDBRANCH  23  26
ENDBRANCH   1  20
TORSDOF 5
ENDMDL
MODEL 4
REMARK VINA RESULT:      -8.4      1.542      2.371
REMARK  5 active torsions:
REMARK  status: ('A' for Active; 'I' for Inactive)
REMARK       I    between atoms: N1_2  and  C2_3 
REMARK    1  A    between atoms: C2_3  and  C3_5 
REMARK    2  A    between atoms: C3_5  and  N2_6 
REMARK    3  A    between atoms: N3_9  and  C6_10 
REMARK    4  A    between atoms: C9_13  and  C10_14 
REMARK    5  A    between atoms: C10_14  and  C11_15 
ROOT
HETATM    1  C6  UNL     1      25.815   5.051  49.346  1.00  0.00     0.030 A 
HETATM    2  C7  UNL     1      27.032   4.465  49.071  1.00  0.00     0.030 A 
HETATM    3  C8  UNL     1      28.041   5.204  48.469  1.00  0.00     0.009 A 
HETATM    4  C9  UNL     1      27.791   6.542  48.152  1.00  0.00    -0.054 A 
HETATM    5  C20 UNL     1      26.540   7.094  48.448  1.00  0.00     0.009 A 
HETATM    6  C21 UNL     1      25.537   6.366  49.045  1.00  0.00     0.030 A 
ENDROOT
BRANCH   4   7
HETATM    7  C10 UNL     1      28.804   7.442  47.500  1.00  0.00     0.074 C 
BRANCH   7   8
HETATM    8  C11 UNL     1      30.180   6.980  47.827  1.00  0.00    -0.056 A 
HETATM    9  C12 UNL     1      30.755   7.420  48.959  1.00  0.00     0.091 A 
HETATM   10  N4  UNL     1      32.067   7.029  49.349  1.00  0.00    -0.365 N 
HETATM   11  C13 UNL     1      32.826   6.141  48.534  1.00  0.00     0.038 A 
HETATM   12  H16 UNL     1      32.415   7.423  50.236  1.00  0.00     0.165 HD
HETATM   13  C14 UNL     1      34.091   5.761  48.906  1.00  0.00     0.031 A 
HETATM   14  C18 UNL     1      32.218   5.704  47.381  1.00  0.00    -0.026 A 
HETATM   15  C15 UNL     1      34.788   4.890  48.071  1.00  0.00     0.026 A 
HETATM   16  C16 UNL     1      34.191   4.435  46.900  1.00  0.00     0.034 A 
HETATM   17 CL1  UNL     1      35.221   3.351  45.983  1.00  0.00    -0.084 Cl
HETATM   18  C17 UNL     1      32.914   4.843  46.562  1.00  0.00     0.033 A 
HETATM   19  C19 UNL     1      30.874   6.052  46.897  1.00  0.00     0.077 A 
ENDBRANCH   7   8
ENDBRANCH   4   7
BRANCH   1  20
HETATM   20  N3  UNL     1      24.782   4.303  49.961  1.00  0.00    -0.378 N 
HETATM   21  C5  UNL     1      23.601   4.774  50.657  1.00  0.00     0.153 C 
HETATM   22  C4  UNL     1      23.801   4.376  52.113  1.00  0.00     0.292 C 
HETATM   23  N2  UNL     1      23.690   2.941  52.192  1.00  0.00     0.100 N 
HETATM   24  C23 UNL     1      23.714   2.304  50.896  1.00  0.00     0.292 C 
HETATM   25  C22 UNL     1      24.757   2.864  49.981  1.00  0.00     0.153 C 
BRANCH  23  26
HETATM   26  C3  UNL     1      24.763   2.462  53.047  1.00  0.00     0.374 C 
BRANCH  26  27
HETATM   27  C2  UNL     1      24.664   0.989  53.192  1.00  0.00     0.245 C 
HETATM   28  N1  UNL     1      25.908   0.358  52.903  1.00  0.00    -0.364 N 
HETATM   29  C1  UNL     1      26.193  -1.063  52.939  1.00  0.00     0.149 C 
HETATM   30  H4  UNL     1      26.802   0.820  52.622  1.00  0.00     0.161 HD
HETATM   31  O1  UNL     1      23.664   0.274  53.521  1.00  0.00    -0.272 OA
ENDBRANCH  26  27
ENDBRANCH  23  26
ENDBRANCH   1  20
TORSDOF 5
ENDMDL
MODEL 5
REMARK VINA RESULT:      -8.4      1.380      1.815
REMARK  5 active torsions:
REMARK  status: ('A' for Active; 'I' for Inactive)
REMARK       I    between atoms: N1_2  and  C2_3 
REMARK    1  A    between atoms: C2_3  and  C3_5 
REMARK    2  A    between atoms: C3_5  and  N2_6 
REMARK    3  A    between atoms: N3_9  and  C6_10 
REMARK    4  A    between atoms: C9_13  and  C10_14 
REMARK    5  A    between atoms: C10_14  and  C11_15 
ROOT
HETATM    1  C6  UNL     1      24.768   4.850  50.503  1.00  0.00     0.030 A 
HETATM    2  C7  UNL     1      24.669   6.203  50.747  1.00  0.00     0.030 A 
HETATM    3  C8  UNL     1      25.382   7.106  49.970  1.00  0.00     0.009 A 
HETATM    4  C9  UNL     1      26.193   6.609  48.947  1.00  0.00    -0.054 A 
HETATM    5  C20 UNL     1      26.264   5.228  48.736  1.00  0.00     0.009 A 
HETATM    6  C21 UNL     1      25.559   4.330  49.503  1.00  0.00     0.030 A 
ENDROOT
BRANCH   4   7
HETATM    7  C10 UNL     1      27.012   7.487  48.039  1.00  0.00     0.074 C 
BRANCH   7   8
HETATM    8  C11 UNL     1      28.460   7.315  48.335  1.00  0.00    -0.056 A 
HETATM    9  C12 UNL     1      29.078   8.241  49.087  1.00  0.00     0.091 A 
HETATM   10  N4  UNL     1      30.459   8.155  49.418  1.00  0.00    -0.365 N 
HETATM   11  C13 UNL     1      31.245   7.062  48.952  1.00  0.00     0.038 A 
HETATM   12  H16 UNL     1      30.836   8.917  50.001  1.00  0.00     0.165 HD
HETATM   13  C14 UNL     1      32.577   6.975  49.270  1.00  0.00     0.031 A 
HETATM   14  C18 UNL     1      30.591   6.127  48.185  1.00  0.00    -0.026 A 
HETATM   15  C15 UNL     1      33.298   5.884  48.788  1.00  0.00     0.026 A 
HETATM   16  C16 UNL     1      32.656   4.926  48.009  1.00  0.00     0.034 A 
HETATM   17 CL1  UNL     1      33.724   3.633  47.497  1.00  0.00    -0.084 Cl
HETATM   18  C17 UNL     1      31.311   5.051  47.713  1.00  0.00     0.033 A 
HETATM   19  C19 UNL     1      29.175   6.131  47.792  1.00  0.00     0.077 A 
ENDBRANCH   7   8
ENDBRANCH   4   7
BRANCH   1  20
HETATM   20  N3  UNL     1      24.042   3.924  51.292  1.00  0.00    -0.378 N 
HETATM   21  C5  UNL     1      23.694   3.995  52.697  1.00  0.00     0.153 C 
HETATM   22  C4  UNL     1      24.485   2.881  53.370  1.00  0.00     0.292 C 
HETATM   23  N2  UNL     1      23.919   1.626  52.944  1.00  0.00     0.100 N 
HETATM   24  C23 UNL     1      23.006   1.770  51.835  1.00  0.00     0.292 C 
HETATM   25  C22 UNL     1      23.508   2.693  50.770  1.00  0.00     0.153 C 
BRANCH  23  26
HETATM   26  C3  UNL     1      25.020   0.733  52.623  1.00  0.00     0.374 C 
BRANCH  26  27
HETATM   27  C2  UNL     1      25.154  -0.293  53.685  1.00  0.00     0.245 C 
HETATM   28  N1  UNL     1      23.904  -0.541  54.323  1.00  0.00    -0.364 N 
HETATM   29  C1  UNL     1      23.646  -1.473  55.403  1.00  0.00     0.149 C 
HETATM   30  H4  UNL     1      22.985  -0.090  54.112  1.00  0.00     0.161 HD
HETATM   31  O1  UNL     1      26.185  -0.934  54.067  1.00  0.00    -0.272 OA
ENDBRANCH  26  27
ENDBRANCH  23  26
ENDBRANCH   1  20
TORSDOF 5
ENDMDL
MODEL 6
REMARK VINA RESULT:      -8.2      4.762      8.744
REMARK  5 active torsions:
REMARK  status: ('A' for Active; 'I' for Inactive)
REMARK       I    between atoms: N1_2  and  C2_3 
REMARK    1  A    between atoms: C2_3  and  C3_5 
REMARK    2  A    between atoms: C3_5  and  N2_6 
REMARK    3  A    between atoms: N3_9  and  C6_10 
REMARK    4  A    between atoms: C9_13  and  C10_14 
REMARK    5  A    between atoms: C10_14  and  C11_15 
ROOT
HETATM    1  C6  UNL     1      23.469   5.657  49.785  1.00  0.00     0.030 A 
HETATM    2  C7  UNL     1      23.936   4.452  49.308  1.00  0.00     0.030 A 
HETATM    3  C8  UNL     1      23.887   3.319  50.109  1.00  0.00     0.009 A 
HETATM    4  C9  UNL     1      23.358   3.436  51.397  1.00  0.00    -0.054 A 
HETATM    5  C20 UNL     1      22.896   4.680  51.839  1.00  0.00     0.009 A 
HETATM    6  C21 UNL     1      22.942   5.805  51.049  1.00  0.00     0.030 A 
ENDROOT
BRANCH   4   7
HETATM    7  C10 UNL     1      23.250   2.281  52.356  1.00  0.00     0.074 C 
BRANCH   7   8
HETATM    8  C11 UNL     1      24.605   1.883  52.826  1.00  0.00    -0.056 A 
HETATM    9  C12 UNL     1      25.343   2.780  53.501  1.00  0.00     0.091 A 
HETATM   10  N4  UNL     1      26.647   2.482  53.986  1.00  0.00    -0.365 N 
HETATM   11  C13 UNL     1      27.223   1.198  53.765  1.00  0.00     0.038 A 
HETATM   12  H16 UNL     1      27.129   3.240  54.492  1.00  0.00     0.165 HD
HETATM   13  C14 UNL     1      28.480   0.907  54.231  1.00  0.00     0.031 A 
HETATM   14  C18 UNL     1      26.450   0.297  53.072  1.00  0.00    -0.026 A 
HETATM   15  C15 UNL     1      28.994  -0.365  53.987  1.00  0.00     0.026 A 
HETATM   16  C16 UNL     1      28.228  -1.293  53.288  1.00  0.00     0.034 A 
HETATM   17 CL1  UNL     1      29.041  -2.833  53.080  1.00  0.00    -0.084 Cl
HETATM   18  C17 UNL     1      26.965  -0.959  52.836  1.00  0.00     0.033 A 
HETATM   19  C19 UNL     1      25.098   0.511  52.534  1.00  0.00     0.077 A 
ENDBRANCH   7   8
ENDBRANCH   4   7
BRANCH   1  20
HETATM   20  N3  UNL     1      23.516   6.817  48.972  1.00  0.00    -0.378 N 
HETATM   21  C5  UNL     1      23.848   6.935  47.566  1.00  0.00     0.153 C 
HETATM   22  C4  UNL     1      25.163   7.702  47.521  1.00  0.00     0.292 C 
HETATM   23  N2  UNL     1      24.889   9.059  47.920  1.00  0.00     0.100 N 
HETATM   24  C23 UNL     1      23.576   9.221  48.499  1.00  0.00     0.292 C 
HETATM   25  C22 UNL     1      23.217   8.136  49.464  1.00  0.00     0.153 C 
BRANCH  23  26
HETATM   26  C3  UNL     1      25.937   9.469  48.840  1.00  0.00     0.374 C 
BRANCH  26  27
HETATM   27  C2  UNL     1      26.473  10.789  48.428  1.00  0.00     0.245 C 
HETATM   28  N1  UNL     1      27.667  10.643  47.664  1.00  0.00    -0.364 N 
HETATM   29  C1  UNL     1      28.471  11.706  47.092  1.00  0.00     0.149 C 
HETATM   30  H4  UNL     1      28.145   9.752  47.400  1.00  0.00     0.161 HD
HETATM   31  O1  UNL     1      26.022  11.955  48.661  1.00  0.00    -0.272 OA
ENDBRANCH  26  27
ENDBRANCH  23  26
ENDBRANCH   1  20
TORSDOF 5
ENDMDL
MODEL 7
REMARK VINA RESULT:      -8.0      5.926      8.942
REMARK  5 active torsions:
REMARK  status: ('A' for Active; 'I' for Inactive)
REMARK       I    between atoms: N1_2  and  C2_3 
REMARK    1  A    between atoms: C2_3  and  C3_5 
REMARK    2  A    between atoms: C3_5  and  N2_6 
REMARK    3  A    between atoms: N3_9  and  C6_10 
REMARK    4  A    between atoms: C9_13  and  C10_14 
REMARK    5  A    between atoms: C10_14  and  C11_15 
ROOT
HETATM    1  C6  UNL     1      19.480  -0.050  51.937  1.00  0.00     0.030 A 
HETATM    2  C7  UNL     1      19.875  -0.204  53.248  1.00  0.00     0.030 A 
HETATM    3  C8  UNL     1      21.185   0.071  53.619  1.00  0.00     0.009 A 
HETATM    4  C9  UNL     1      22.079   0.502  52.635  1.00  0.00    -0.054 A 
HETATM    5  C20 UNL     1      21.634   0.643  51.316  1.00  0.00     0.009 A 
HETATM    6  C21 UNL     1      20.337   0.372  50.945  1.00  0.00     0.030 A 
ENDROOT
BRANCH   4   7
HETATM    7  C10 UNL     1      23.521   0.831  52.914  1.00  0.00     0.074 C 
BRANCH   7   8
HETATM    8  C11 UNL     1      23.903   2.082  52.204  1.00  0.00    -0.056 A 
HETATM    9  C12 UNL     1      23.120   3.165  52.340  1.00  0.00     0.091 A 
HETATM   10  N4  UNL     1      23.412   4.400  51.696  1.00  0.00    -0.365 N 
HETATM   11  C13 UNL     1      24.566   4.529  50.871  1.00  0.00     0.038 A 
HETATM   12  H16 UNL     1      22.747   5.170  51.866  1.00  0.00     0.165 HD
HETATM   13  C14 UNL     1      24.851   5.718  50.250  1.00  0.00     0.031 A 
HETATM   14  C18 UNL     1      25.352   3.408  50.748  1.00  0.00    -0.026 A 
HETATM   15  C15 UNL     1      25.994   5.787  49.455  1.00  0.00     0.026 A 
HETATM   16  C16 UNL     1      26.804   4.665  49.316  1.00  0.00     0.034 A 
HETATM   17 CL1  UNL     1      28.191   4.945  48.281  1.00  0.00    -0.084 Cl
HETATM   18  C17 UNL     1      26.481   3.485  49.961  1.00  0.00     0.033 A 
HETATM   19  C19 UNL     1      25.134   2.094  51.370  1.00  0.00     0.077 A 
ENDBRANCH   7   8
ENDBRANCH   4   7
BRANCH   1  20
HETATM   20  N3  UNL     1      18.145  -0.328  51.553  1.00  0.00    -0.378 N 
HETATM   21  C5  UNL     1      17.424   0.102  50.372  1.00  0.00     0.153 C 
HETATM   22  C4  UNL     1      16.342   1.047  50.876  1.00  0.00     0.292 C 
HETATM   23  N2  UNL     1      15.375   0.258  51.594  1.00  0.00     0.100 N 
HETATM   24  C23 UNL     1      15.834  -1.083  51.867  1.00  0.00     0.292 C 
HETATM   25  C22 UNL     1      17.253  -1.138  52.340  1.00  0.00     0.153 C 
BRANCH  23  26
HETATM   26  C3  UNL     1      15.043   0.972  52.817  1.00  0.00     0.374 C 
BRANCH  26  27
HETATM   27  C2  UNL     1      14.079   2.057  52.513  1.00  0.00     0.245 C 
HETATM   28  N1  UNL     1      14.138   3.088  53.494  1.00  0.00    -0.364 N 
HETATM   29  C1  UNL     1      13.348   4.303  53.531  1.00  0.00     0.149 C 
HETATM   30  H4  UNL     1      14.758   3.127  54.335  1.00  0.00     0.161 HD
HETATM   31  O1  UNL     1      13.261   2.167  51.544  1.00  0.00    -0.272 OA
ENDBRANCH  26  27
ENDBRANCH  23  26
ENDBRANCH   1  20
TORSDOF 5
ENDMDL
MODEL 8
REMARK VINA RESULT:      -8.0      3.081      4.016
REMARK  5 active torsions:
REMARK  status: ('A' for Active; 'I' for Inactive)
REMARK       I    between atoms: N1_2  and  C2_3 
REMARK    1  A    between atoms: C2_3  and  C3_5 
REMARK    2  A    between atoms: C3_5  and  N2_6 
REMARK    3  A    between atoms: N3_9  and  C6_10 
REMARK    4  A    between atoms: C9_13  and  C10_14 
REMARK    5  A    between atoms: C10_14  and  C11_15 
ROOT
HETATM    1  C6  UNL     1      25.453   5.160  49.630  1.00  0.00     0.030 A 
HETATM    2  C7  UNL     1      25.581   6.491  49.295  1.00  0.00     0.030 A 
HETATM    3  C8  UNL     1      26.729   6.943  48.659  1.00  0.00     0.009 A 
HETATM    4  C9  UNL     1      27.740   6.021  48.373  1.00  0.00    -0.054 A 
HETATM    5  C20 UNL     1      27.567   4.680  48.732  1.00  0.00     0.009 A 
HETATM    6  C21 UNL     1      26.431   4.228  49.362  1.00  0.00     0.030 A 
ENDROOT
BRANCH   4   7
HETATM    7  C10 UNL     1      29.027   6.390  47.687  1.00  0.00     0.074 C 
BRANCH   7   8
HETATM    8  C11 UNL     1      29.452   7.754  48.103  1.00  0.00    -0.056 A 
HETATM    9  C12 UNL     1      30.314   7.877  49.126  1.00  0.00     0.091 A 
HETATM   10  N4  UNL     1      30.772   9.143  49.588  1.00  0.00    -0.365 N 
HETATM   11  C13 UNL     1      30.321  10.343  48.968  1.00  0.00     0.038 A 
HETATM   12  H16 UNL     1      31.432   9.127  50.379  1.00  0.00     0.165 HD
HETATM   13  C14 UNL     1      30.760  11.565  49.409  1.00  0.00     0.031 A 
HETATM   14  C18 UNL     1      29.440  10.193  47.923  1.00  0.00    -0.026 A 
HETATM   15  C15 UNL     1      30.287  12.707  48.765  1.00  0.00     0.026 A 
HETATM   16  C16 UNL     1      29.394  12.577  47.705  1.00  0.00     0.034 A 
HETATM   17 CL1  UNL     1      28.913  14.120  47.024  1.00  0.00    -0.084 Cl
HETATM   18  C17 UNL     1      28.977  11.326  47.291  1.00  0.00     0.033 A 
HETATM   19  C19 UNL     1      28.912   8.934  47.377  1.00  0.00     0.077 A 
ENDBRANCH   7   8
ENDBRANCH   4   7
BRANCH   1  20
HETATM   20  N3  UNL     1      24.283   4.693  50.278  1.00  0.00    -0.378 N 
HETATM   21  C5  UNL     1      23.762   5.040  51.585  1.00  0.00     0.153 C 
HETATM   22  C4  UNL     1      23.887   3.774  52.422  1.00  0.00     0.292 C 
HETATM   23  N2  UNL     1      22.931   2.821  51.918  1.00  0.00     0.100 N 
HETATM   24  C23 UNL     1      22.367   3.211  50.647  1.00  0.00     0.292 C 
HETATM   25  C22 UNL     1      23.383   3.739  49.685  1.00  0.00     0.153 C 
BRANCH  23  26
HETATM   26  C3  UNL     1      23.594   1.530  51.838  1.00  0.00     0.374 C 
BRANCH  26  27
HETATM   27  C2  UNL     1      22.696   0.476  52.368  1.00  0.00     0.245 C 
HETATM   28  N1  UNL     1      23.106   0.053  53.665  1.00  0.00    -0.364 N 
HETATM   29  C1  UNL     1      22.476  -0.956  54.493  1.00  0.00     0.149 C 
HETATM   30  H4  UNL     1      23.923   0.403  54.216  1.00  0.00     0.161 HD
HETATM   31  O1  UNL     1      21.671  -0.059  51.835  1.00  0.00    -0.272 OA
ENDBRANCH  26  27
ENDBRANCH  23  26
ENDBRANCH   1  20
TORSDOF 5
ENDMDL
MODEL 9
REMARK VINA RESULT:      -7.8      6.303      9.206
REMARK  5 active torsions:
REMARK  status: ('A' for Active; 'I' for Inactive)
REMARK       I    between atoms: N1_2  and  C2_3 
REMARK    1  A    between atoms: C2_3  and  C3_5 
REMARK    2  A    between atoms: C3_5  and  N2_6 
REMARK    3  A    between atoms: N3_9  and  C6_10 
REMARK    4  A    between atoms: C9_13  and  C10_14 
REMARK    5  A    between atoms: C10_14  and  C11_15 
ROOT
HETATM    1  C6  UNL     1      21.883   3.766  49.126  1.00  0.00     0.030 A 
HETATM    2  C7  UNL     1      22.804   2.742  49.085  1.00  0.00     0.030 A 
HETATM    3  C8  UNL     1      23.106   2.029  50.237  1.00  0.00     0.009 A 
HETATM    4  C9  UNL     1      22.458   2.377  51.425  1.00  0.00    -0.054 A 
HETATM    5  C20 UNL     1      21.531   3.425  51.420  1.00  0.00     0.009 A 
HETATM    6  C21 UNL     1      21.229   4.133  50.281  1.00  0.00     0.030 A 
ENDROOT
BRANCH   4   7
HETATM    7  C10 UNL     1      22.701   1.678  52.736  1.00  0.00     0.074 C 
BRANCH   7   8
HETATM    8  C11 UNL     1      24.163   1.569  52.991  1.00  0.00    -0.056 A 
HETATM    9  C12 UNL     1      24.841   2.677  53.335  1.00  0.00     0.091 A 
HETATM   10  N4  UNL     1      26.240   2.663  53.596  1.00  0.00    -0.365 N 
HETATM   11  C13 UNL     1      26.979   1.449  53.499  1.00  0.00     0.038 A 
HETATM   12  H16 UNL     1      26.664   3.566  53.853  1.00  0.00     0.165 HD
HETATM   13  C14 UNL     1      28.328   1.431  53.751  1.00  0.00     0.031 A 
HETATM   14  C18 UNL     1      26.264   0.329  53.146  1.00  0.00    -0.026 A 
HETATM   15  C15 UNL     1      29.001   0.216  53.642  1.00  0.00     0.026 A 
HETATM   16  C16 UNL     1      28.297  -0.930  53.286  1.00  0.00     0.034 A 
HETATM   17 CL1  UNL     1      29.312  -2.358  53.200  1.00  0.00    -0.084 Cl
HETATM   18  C17 UNL     1      26.937  -0.869  53.041  1.00  0.00     0.033 A 
HETATM   19  C19 UNL     1      24.825   0.245  52.857  1.00  0.00     0.077 A 
ENDBRANCH   7   8
ENDBRANCH   4   7
BRANCH   1  20
HETATM   20  N3  UNL     1      21.570   4.497  47.953  1.00  0.00    -0.378 N 
HETATM   21  C5  UNL     1      20.726   5.665  47.802  1.00  0.00     0.153 C 
HETATM   22  C4  UNL     1      19.526   5.199  46.989  1.00  0.00     0.292 C 
HETATM   23  N2  UNL     1      19.983   4.934  45.648  1.00  0.00     0.100 N 
HETATM   24  C23 UNL     1      21.423   4.907  45.541  1.00  0.00     0.292 C 
HETATM   25  C22 UNL     1      22.085   4.156  46.653  1.00  0.00     0.153 C 
BRANCH  23  26
HETATM   26  C3  UNL     1      19.388   3.681  45.218  1.00  0.00     0.374 C 
BRANCH  26  27
HETATM   27  C2  UNL     1      19.360   3.626  43.736  1.00  0.00     0.245 C 
HETATM   28  N1  UNL     1      18.206   4.282  43.218  1.00  0.00    -0.364 N 
HETATM   29  C1  UNL     1      17.840   4.430  41.823  1.00  0.00     0.149 C 
HETATM   30  H4  UNL     1      17.449   4.754  43.762  1.00  0.00     0.161 HD
HETATM   31  O1  UNL     1      20.190   3.097  42.929  1.00  0.00    -0.272 OA
ENDBRANCH  26  27
ENDBRANCH  23  26
ENDBRANCH   1  20
TORSDOF 5
ENDMDL
