MODEL 1
REMARK VINA RESULT:      -8.2      0.000      0.000
REMARK  7 active torsions:
REMARK  status: ('A' for Active; 'I' for Inactive)
REMARK    1  A    between atoms: C2_2  and  C3_3 
REMARK       I    between atoms: C3_3  and  N1_5 
REMARK    2  A    between atoms: N1_5  and  C4_6 
REMARK    3  A    between atoms: C6_8  and  C7_9 
REMARK    4  A    between atoms: C13_17  and  O2_18 
REMARK    5  A    between atoms: O2_18  and  C14_19 
REMARK    6  A    between atoms: C17_22  and  N4_23 
REMARK    7  A    between atoms: C20_26  and  N5_27 
ROOT
HETATM    1  C4  UNL     1      24.449   2.311  51.305  1.00  0.00     0.062 A 
HETATM    2  C5  UNL     1      23.128   2.665  51.003  1.00  0.00     0.046 A 
HETATM    3  C6  UNL     1      22.042   2.173  51.738  1.00  0.00     0.022 A 
HETATM    4  C13 UNL     1      22.331   1.316  52.784  1.00  0.00     0.081 A 
HETATM    5  C16 UNL     1      23.637   0.977  53.067  1.00  0.00     0.069 A 
HETATM    6  C17 UNL     1      24.716   1.454  52.352  1.00  0.00     0.060 A 
ENDROOT
BRANCH   6   7
HETATM    7  N4  UNL     1      26.043   1.079  52.679  1.00  0.00    -0.379 N 
HETATM    8  C18 UNL     1      26.577  -0.145  52.078  1.00  0.00     0.125 C 
HETATM    9  C19 UNL     1      26.983  -1.002  53.255  1.00  0.00     0.055 C 
HETATM   10  C20 UNL     1      27.907  -0.370  54.219  1.00  0.00     0.225 C 
HETATM   11  C23 UNL     1      27.888   1.091  54.339  1.00  0.00     0.055 C 
HETATM   12  C24 UNL     1      26.866   1.843  53.563  1.00  0.00     0.125 C 
BRANCH  10  13
HETATM   13  N5  UNL     1      29.253  -0.889  53.951  1.00  0.00     0.084 N 
HETATM   14  C21 UNL     1      29.196  -2.122  53.197  1.00  0.00     0.309 C 
HETATM   15  C22 UNL     1      30.084   0.068  53.253  1.00  0.00     0.309 C 
ENDBRANCH  10  13
ENDBRANCH   6   7
BRANCH   1  16
HETATM   16  N1  UNL     1      25.484   2.861  50.500  1.00  0.00    -0.322 N 
HETATM   17  C3  UNL     1      25.878   4.143  50.032  1.00  0.00     0.244 C 
HETATM   18  O1  UNL     1      25.334   5.255  50.247  1.00  0.00    -0.268 OA
HETATM   19  H4  UNL     1      26.014   2.001  50.258  1.00  0.00     0.169 HD
BRANCH  17  20
HETATM   20  C2  UNL     1      27.072   4.162  49.196  1.00  0.00     0.064 C 
HETATM   21  C1  UNL     1      27.378   5.310  48.652  1.00  0.00     0.017 C 
ENDBRANCH  17  20
ENDBRANCH   1  16
BRANCH   4  22
HETATM   22  O2  UNL     1      21.212   0.871  53.462  1.00  0.00    -0.351 OA
BRANCH  22  23
HETATM   23  C14 UNL     1      21.355  -0.004  54.565  1.00  0.00     0.171 C 
HETATM   24  C15 UNL     1      20.969  -1.420  54.221  1.00  0.00     0.034 C 
ENDBRANCH  22  23
ENDBRANCH   4  22
BRANCH   3  25
HETATM   25  C7  UNL     1      20.705   2.643  51.287  1.00  0.00     0.248 A 
HETATM   26  N2  UNL     1      20.486   4.030  51.621  1.00  0.00    -0.271 NA
HETATM   27  C8  UNL     1      20.304   4.945  50.732  1.00  0.00     0.115 A 
HETATM   28  C9  UNL     1      20.296   4.711  49.300  1.00  0.00     0.048 A 
HETATM   29  C10 UNL     1      20.489   3.458  48.868  1.00  0.00     0.039 A 
HETATM   30  C11 UNL     1      20.613   2.494  47.783  1.00  0.00     0.047 A 
HETATM   31  N3  UNL     1      20.687   2.452  49.840  1.00  0.00    -0.329 N 
HETATM   32  C12 UNL     1      20.795   1.582  48.742  1.00  0.00     0.096 A 
ENDBRANCH   3  25
TORSDOF 7
ENDMDL
MODEL 2
REMARK VINA RESULT:      -8.1      1.531      6.957
REMARK  7 active torsions:
REMARK  status: ('A' for Active; 'I' for Inactive)
REMARK    1  A    between atoms: C2_2  and  C3_3 
REMARK       I    between atoms: C3_3  and  N1_5 
REMARK    2  A    between atoms: N1_5  and  C4_6 
REMARK    3  A    between atoms: C6_8  and  C7_9 
REMARK    4  A    between atoms: C13_17  and  O2_18 
REMARK    5  A    between atoms: O2_18  and  C14_19 
REMARK    6  A    between atoms: C17_22  and  N4_23 
REMARK    7  A    between atoms: C20_26  and  N5_27 
ROOT
HETATM    1  C4  UNL     1      24.617   2.161  51.193  1.00  0.00     0.062 A 
HETATM    2  C5  UNL     1      25.467   1.541  52.116  1.00  0.00     0.046 A 
HETATM    3  C6  UNL     1      24.995   0.614  53.054  1.00  0.00     0.022 A 
HETATM    4  C13 UNL     1      23.641   0.334  53.031  1.00  0.00     0.081 A 
HETATM    5  C16 UNL     1      22.817   0.954  52.116  1.00  0.00     0.069 A 
HETATM    6  C17 UNL     1      23.268   1.868  51.188  1.00  0.00     0.060 A 
ENDROOT
BRANCH   6   7
HETATM    7  N4  UNL     1      22.384   2.482  50.265  1.00  0.00    -0.379 N 
HETATM    8  C18 UNL     1      22.166   1.818  48.979  1.00  0.00     0.125 C 
HETATM    9  C19 UNL     1      22.554   2.850  47.945  1.00  0.00     0.055 C 
HETATM   10  C20 UNL     1      21.870   4.155  48.056  1.00  0.00     0.225 C 
HETATM   11  C23 UNL     1      21.387   4.573  49.375  1.00  0.00     0.055 C 
HETATM   12  C24 UNL     1      21.709   3.711  50.543  1.00  0.00     0.125 C 
BRANCH  10  13
HETATM   13  N5  UNL     1      20.811   4.190  47.040  1.00  0.00     0.084 N 
HETATM   14  C21 UNL     1      20.172   5.487  46.998  1.00  0.00     0.309 C 
HETATM   15  C22 UNL     1      21.300   3.847  45.722  1.00  0.00     0.309 C 
ENDBRANCH  10  13
ENDBRANCH   6   7
BRANCH   1  16
HETATM   16  N1  UNL     1      25.190   3.089  50.282  1.00  0.00    -0.322 N 
HETATM   17  C3  UNL     1      25.261   4.499  50.128  1.00  0.00     0.244 C 
HETATM   18  O1  UNL     1      24.767   5.392  50.862  1.00  0.00    -0.268 OA
HETATM   19  H4  UNL     1      25.640   2.440  49.607  1.00  0.00     0.169 HD
BRANCH  17  20
HETATM   20  C2  UNL     1      26.007   4.963  48.965  1.00  0.00     0.064 C 
HETATM   21  C1  UNL     1      27.259   4.593  48.897  1.00  0.00     0.017 C 
ENDBRANCH  17  20
ENDBRANCH   1  16
BRANCH   4  22
HETATM   22  O2  UNL     1      23.249  -0.587  53.984  1.00  0.00    -0.351 OA
BRANCH  22  23
HETATM   23  C14 UNL     1      21.976  -0.475  54.593  1.00  0.00     0.171 C 
HETATM   24  C15 UNL     1      21.095  -1.660  54.293  1.00  0.00     0.034 C 
ENDBRANCH  22  23
ENDBRANCH   4  22
BRANCH   3  25
HETATM   25  C7  UNL     1      26.027   0.049  53.964  1.00  0.00     0.248 A 
HETATM   26  N2  UNL     1      26.466  -1.256  53.530  1.00  0.00    -0.271 NA
HETATM   27  C8  UNL     1      27.679  -1.506  53.177  1.00  0.00     0.115 A 
HETATM   28  C9  UNL     1      28.752  -0.530  53.167  1.00  0.00     0.048 A 
HETATM   29  C10 UNL     1      28.465   0.721  53.553  1.00  0.00     0.039 A 
HETATM   30  C11 UNL     1      28.872   2.097  53.804  1.00  0.00     0.047 A 
HETATM   31  N3  UNL     1      27.136   0.999  53.942  1.00  0.00    -0.329 N 
HETATM   32  C12 UNL     1      27.602   2.306  54.161  1.00  0.00     0.096 A 
ENDBRANCH   3  25
TORSDOF 7
ENDMDL
MODEL 3
REMARK VINA RESULT:      -7.8      1.671      8.195
REMARK  7 active torsions:
REMARK  status: ('A' for Active; 'I' for Inactive)
REMARK    1  A    between atoms: C2_2  and  C3_3 
REMARK       I    between atoms: C3_3  and  N1_5 
REMARK    2  A    between atoms: N1_5  and  C4_6 
REMARK    3  A    between atoms: C6_8  and  C7_9 
REMARK    4  A    between atoms: C13_17  and  O2_18 
REMARK    5  A    between atoms: O2_18  and  C14_19 
REMARK    6  A    between atoms: C17_22  and  N4_23 
REMARK    7  A    between atoms: C20_26  and  N5_27 
ROOT
HETATM    1  C4  UNL     1      23.792   1.959  52.107  1.00  0.00     0.062 A 
HETATM    2  C5  UNL     1      25.121   1.580  52.331  1.00  0.00     0.046 A 
HETATM    3  C6  UNL     1      26.181   2.117  51.590  1.00  0.00     0.022 A 
HETATM    4  C13 UNL     1      25.857   3.046  50.617  1.00  0.00     0.081 A 
HETATM    5  C16 UNL     1      24.543   3.406  50.409  1.00  0.00     0.069 A 
HETATM    6  C17 UNL     1      23.490   2.886  51.131  1.00  0.00     0.060 A 
ENDROOT
BRANCH   6   7
HETATM    7  N4  UNL     1      22.153   3.287  50.882  1.00  0.00    -0.379 N 
HETATM    8  C18 UNL     1      21.575   4.317  51.745  1.00  0.00     0.125 C 
HETATM    9  C19 UNL     1      20.340   3.673  52.334  1.00  0.00     0.055 C 
HETATM   10  C20 UNL     1      19.381   3.118  51.358  1.00  0.00     0.225 C 
HETATM   11  C23 UNL     1      19.893   2.683  50.055  1.00  0.00     0.055 C 
HETATM   12  C24 UNL     1      21.363   2.726  49.831  1.00  0.00     0.125 C 
BRANCH  10  13
HETATM   13  N5  UNL     1      18.274   4.072  51.230  1.00  0.00     0.084 N 
HETATM   14  C21 UNL     1      18.187   4.592  49.883  1.00  0.00     0.309 C 
HETATM   15  C22 UNL     1      17.002   3.497  51.610  1.00  0.00     0.309 C 
ENDBRANCH  10  13
ENDBRANCH   6   7
BRANCH   1  16
HETATM   16  N1  UNL     1      22.785   1.357  52.910  1.00  0.00    -0.322 N 
HETATM   17  C3  UNL     1      21.770   0.376  52.756  1.00  0.00     0.244 C 
HETATM   18  O1  UNL     1      21.474  -0.290  51.733  1.00  0.00    -0.268 OA
HETATM   19  H4  UNL     1      22.942   1.849  53.812  1.00  0.00     0.169 HD
BRANCH  17  20
HETATM   20  C2  UNL     1      20.971   0.113  53.948  1.00  0.00     0.064 C 
HETATM   21  C1  UNL     1      21.372  -0.875  54.705  1.00  0.00     0.017 C 
ENDBRANCH  17  20
ENDBRANCH   1  16
BRANCH   4  22
HETATM   22  O2  UNL     1      26.952   3.530  49.927  1.00  0.00    -0.351 OA
BRANCH  22  23
HETATM   23  C14 UNL     1      26.796   4.604  49.019  1.00  0.00     0.171 C 
HETATM   24  C15 UNL     1      28.118   5.111  48.504  1.00  0.00     0.034 C 
ENDBRANCH  22  23
ENDBRANCH   4  22
BRANCH   3  25
HETATM   25  C7  UNL     1      27.531   1.608  51.951  1.00  0.00     0.248 A 
HETATM   26  N2  UNL     1      28.124   2.376  53.020  1.00  0.00    -0.271 NA
HETATM   27  C8  UNL     1      28.420   1.869  54.166  1.00  0.00     0.115 A 
HETATM   28  C9  UNL     1      28.204   0.483  54.535  1.00  0.00     0.048 A 
HETATM   29  C10 UNL     1      27.659  -0.330  53.621  1.00  0.00     0.039 A 
HETATM   30  C11 UNL     1      27.175  -1.645  53.218  1.00  0.00     0.047 A 
HETATM   31  N3  UNL     1      27.333   0.222  52.362  1.00  0.00    -0.329 N 
HETATM   32  C12 UNL     1      26.886  -1.073  52.046  1.00  0.00     0.096 A 
ENDBRANCH   3  25
TORSDOF 7
ENDMDL
MODEL 4
REMARK VINA RESULT:      -7.7      1.489      4.733
REMARK  7 active torsions:
REMARK  status: ('A' for Active; 'I' for Inactive)
REMARK    1  A    between atoms: C2_2  and  C3_3 
REMARK       I    between atoms: C3_3  and  N1_5 
REMARK    2  A    between atoms: N1_5  and  C4_6 
REMARK    3  A    between atoms: C6_8  and  C7_9 
REMARK    4  A    between atoms: C13_17  and  O2_18 
REMARK    5  A    between atoms: O2_18  and  C14_19 
REMARK    6  A    between atoms: C17_22  and  N4_23 
REMARK    7  A    between atoms: C20_26  and  N5_27 
ROOT
HETATM    1  C4  UNL     1      23.751   2.103  50.887  1.00  0.00     0.062 A 
HETATM    2  C5  UNL     1      22.910   2.678  49.926  1.00  0.00     0.046 A 
HETATM    3  C6  UNL     1      23.291   3.801  49.182  1.00  0.00     0.022 A 
HETATM    4  C13 UNL     1      24.545   4.326  49.437  1.00  0.00     0.081 A 
HETATM    5  C16 UNL     1      25.361   3.748  50.387  1.00  0.00     0.069 A 
HETATM    6  C17 UNL     1      24.999   2.643  51.127  1.00  0.00     0.060 A 
ENDROOT
BRANCH   6   7
HETATM    7  N4  UNL     1      25.870   2.082  52.094  1.00  0.00    -0.379 N 
HETATM    8  C18 UNL     1      27.021   1.315  51.616  1.00  0.00     0.125 C 
HETATM    9  C19 UNL     1      26.866  -0.046  52.255  1.00  0.00     0.055 C 
HETATM   10  C20 UNL     1      26.728  -0.050  53.725  1.00  0.00     0.225 C 
HETATM   11  C23 UNL     1      26.164   1.139  54.371  1.00  0.00     0.055 C 
HETATM   12  C24 UNL     1      25.666   2.238  53.500  1.00  0.00     0.125 C 
BRANCH  10  13
HETATM   13  N5  UNL     1      28.026  -0.429  54.294  1.00  0.00     0.084 N 
HETATM   14  C21 UNL     1      28.785  -1.238  53.365  1.00  0.00     0.309 C 
HETATM   15  C22 UNL     1      28.812   0.720  54.690  1.00  0.00     0.309 C 
ENDBRANCH  10  13
ENDBRANCH   6   7
BRANCH   1  16
HETATM   16  N1  UNL     1      23.275   0.965  51.591  1.00  0.00    -0.322 N 
HETATM   17  C3  UNL     1      22.271   0.672  52.552  1.00  0.00     0.244 C 
HETATM   18  O1  UNL     1      21.446   1.456  53.085  1.00  0.00    -0.268 OA
HETATM   19  H4  UNL     1      23.907   0.230  51.217  1.00  0.00     0.169 HD
BRANCH  17  20
HETATM   20  C2  UNL     1      22.193  -0.723  52.968  1.00  0.00     0.064 C 
HETATM   21  C1  UNL     1      21.856  -0.937  54.213  1.00  0.00     0.017 C 
ENDBRANCH  17  20
ENDBRANCH   1  16
BRANCH   4  22
HETATM   22  O2  UNL     1      24.851   5.431  48.668  1.00  0.00    -0.351 OA
BRANCH  22  23
HETATM   23  C14 UNL     1      25.778   6.389  49.144  1.00  0.00     0.171 C 
HETATM   24  C15 UNL     1      27.083   6.342  48.392  1.00  0.00     0.034 C 
ENDBRANCH  22  23
ENDBRANCH   4  22
BRANCH   3  25
HETATM   25  C7  UNL     1      22.281   4.289  48.205  1.00  0.00     0.248 A 
HETATM   26  N2  UNL     1      21.755   3.213  47.398  1.00  0.00    -0.271 NA
HETATM   27  C8  UNL     1      20.514   2.870  47.411  1.00  0.00     0.115 A 
HETATM   28  C9  UNL     1      19.492   3.503  48.224  1.00  0.00     0.048 A 
HETATM   29  C10 UNL     1      19.862   4.518  49.016  1.00  0.00     0.039 A 
HETATM   30  C11 UNL     1      19.538   5.546  49.996  1.00  0.00     0.047 A 
HETATM   31  N3  UNL     1      21.222   4.899  49.003  1.00  0.00    -0.329 N 
HETATM   32  C12 UNL     1      20.834   5.866  49.946  1.00  0.00     0.096 A 
ENDBRANCH   3  25
TORSDOF 7
ENDMDL
MODEL 5
REMARK VINA RESULT:      -7.2      3.408      7.218
REMARK  7 active torsions:
REMARK  status: ('A' for Active; 'I' for Inactive)
REMARK    1  A    between atoms: C2_2  and  C3_3 
REMARK       I    between atoms: C3_3  and  N1_5 
REMARK    2  A    between atoms: N1_5  and  C4_6 
REMARK    3  A    between atoms: C6_8  and  C7_9 
REMARK    4  A    between atoms: C13_17  and  O2_18 
REMARK    5  A    between atoms: O2_18  and  C14_19 
REMARK    6  A    between atoms: C17_22  and  N4_23 
REMARK    7  A    between atoms: C20_26  and  N5_27 
ROOT
HETATM    1  C4  UNL     1      24.725   5.536  50.490  1.00  0.00     0.062 A 
HETATM    2  C5  UNL     1      25.354   6.738  50.143  1.00  0.00     0.046 A 
HETATM    3  C6  UNL     1      24.638   7.833  49.646  1.00  0.00     0.022 A 
HETATM    4  C13 UNL     1      23.270   7.679  49.510  1.00  0.00     0.081 A 
HETATM    5  C16 UNL     1      22.667   6.488  49.856  1.00  0.00     0.069 A 
HETATM    6  C17 UNL     1      23.359   5.401  50.346  1.00  0.00     0.060 A 
ENDROOT
BRANCH   6   7
HETATM    7  N4  UNL     1      22.697   4.196  50.689  1.00  0.00    -0.379 N 
HETATM    8  C18 UNL     1      22.287   4.012  52.081  1.00  0.00     0.125 C 
HETATM    9  C19 UNL     1      22.962   2.729  52.512  1.00  0.00     0.055 C 
HETATM   10  C20 UNL     1      22.699   1.551  51.661  1.00  0.00     0.225 C 
HETATM   11  C23 UNL     1      22.367   1.776  50.252  1.00  0.00     0.055 C 
HETATM   12  C24 UNL     1      22.420   3.169  49.734  1.00  0.00     0.125 C 
BRANCH  10  13
HETATM   13  N5  UNL     1      21.697   0.724  52.344  1.00  0.00     0.084 N 
HETATM   14  C21 UNL     1      20.618   0.368  51.448  1.00  0.00     0.309 C 
HETATM   15  C22 UNL     1      22.268  -0.475  52.917  1.00  0.00     0.309 C 
ENDBRANCH  10  13
ENDBRANCH   6   7
BRANCH   1  16
HETATM   16  N1  UNL     1      25.537   4.480  50.985  1.00  0.00    -0.322 N 
HETATM   17  C3  UNL     1      26.252   3.372  50.457  1.00  0.00     0.244 C 
HETATM   18  O1  UNL     1      26.355   3.007  49.260  1.00  0.00    -0.268 OA
HETATM   19  H4  UNL     1      25.522   4.688  52.003  1.00  0.00     0.169 HD
BRANCH  17  20
HETATM   20  C2  UNL     1      26.957   2.559  51.440  1.00  0.00     0.064 C 
HETATM   21  C1  UNL     1      26.521   1.337  51.599  1.00  0.00     0.017 C 
ENDBRANCH  17  20
ENDBRANCH   1  16
BRANCH   4  22
HETATM   22  O2  UNL     1      22.632   8.799  49.014  1.00  0.00    -0.351 OA
BRANCH  22  23
HETATM   23  C14 UNL     1      21.248   8.984  49.245  1.00  0.00     0.171 C 
HETATM   24  C15 UNL     1      20.797  10.383  48.911  1.00  0.00     0.034 C 
ENDBRANCH  22  23
ENDBRANCH   4  22
BRANCH   3  25
HETATM   25  C7  UNL     1      25.456   9.034  49.323  1.00  0.00     0.248 A 
HETATM   26  N2  UNL     1      26.365   9.365  50.395  1.00  0.00    -0.271 NA
HETATM   27  C8  UNL     1      27.645   9.350  50.258  1.00  0.00     0.115 A 
HETATM   28  C9  UNL     1      28.338   9.003  49.032  1.00  0.00     0.048 A 
HETATM   29  C10 UNL     1      27.598   8.677  47.964  1.00  0.00     0.039 A 
HETATM   30  C11 UNL     1      27.492   8.266  46.570  1.00  0.00     0.047 A 
HETATM   31  N3  UNL     1      26.193   8.694  48.110  1.00  0.00    -0.329 N 
HETATM   32  C12 UNL     1      26.170   8.298  46.762  1.00  0.00     0.096 A 
ENDBRANCH   3  25
TORSDOF 7
ENDMDL
MODEL 6
REMARK VINA RESULT:      -7.1      2.426      6.884
REMARK  7 active torsions:
REMARK  status: ('A' for Active; 'I' for Inactive)
REMARK    1  A    between atoms: C2_2  and  C3_3 
REMARK       I    between atoms: C3_3  and  N1_5 
REMARK    2  A    between atoms: N1_5  and  C4_6 
REMARK    3  A    between atoms: C6_8  and  C7_9 
REMARK    4  A    between atoms: C13_17  and  O2_18 
REMARK    5  A    between atoms: O2_18  and  C14_19 
REMARK    6  A    between atoms: C17_22  and  N4_23 
REMARK    7  A    between atoms: C20_26  and  N5_27 
ROOT
HETATM    1  C4  UNL     1      23.323   2.423  51.545  1.00  0.00     0.062 A 
HETATM    2  C5  UNL     1      23.409   1.163  52.151  1.00  0.00     0.046 A 
HETATM    3  C6  UNL     1      24.634   0.618  52.556  1.00  0.00     0.022 A 
HETATM    4  C13 UNL     1      25.765   1.382  52.333  1.00  0.00     0.081 A 
HETATM    5  C16 UNL     1      25.661   2.620  51.735  1.00  0.00     0.069 A 
HETATM    6  C17 UNL     1      24.463   3.169  51.330  1.00  0.00     0.060 A 
ENDROOT
BRANCH   6   7
HETATM    7  N4  UNL     1      24.404   4.446  50.718  1.00  0.00    -0.379 N 
HETATM    8  C18 UNL     1      24.792   4.550  49.311  1.00  0.00     0.125 C 
HETATM    9  C19 UNL     1      25.908   5.570  49.296  1.00  0.00     0.055 C 
HETATM   10  C20 UNL     1      25.593   6.872  49.916  1.00  0.00     0.225 C 
HETATM   11  C23 UNL     1      24.570   6.910  50.965  1.00  0.00     0.055 C 
HETATM   12  C24 UNL     1      23.986   5.619  51.419  1.00  0.00     0.125 C 
BRANCH  10  13
HETATM   13  N5  UNL     1      25.315   7.825  48.835  1.00  0.00     0.084 N 
HETATM   14  C21 UNL     1      25.477   9.189  49.288  1.00  0.00     0.309 C 
HETATM   15  C22 UNL     1      26.147   7.598  47.673  1.00  0.00     0.309 C 
ENDBRANCH  10  13
ENDBRANCH   6   7
BRANCH   1  16
HETATM   16  N1  UNL     1      22.035   2.890  51.167  1.00  0.00    -0.322 N 
HETATM   17  C3  UNL     1      20.767   3.079  51.779  1.00  0.00     0.244 C 
HETATM   18  O1  UNL     1      20.431   2.847  52.967  1.00  0.00    -0.268 OA
HETATM   19  H4  UNL     1      22.201   3.118  50.167  1.00  0.00     0.169 HD
BRANCH  17  20
HETATM   20  C2  UNL     1      19.727   3.612  50.908  1.00  0.00     0.064 C 
HETATM   21  C1  UNL     1      19.940   4.806  50.418  1.00  0.00     0.017 C 
ENDBRANCH  17  20
ENDBRANCH   1  16
BRANCH   4  22
HETATM   22  O2  UNL     1      26.933   0.780  52.758  1.00  0.00    -0.351 OA
BRANCH  22  23
HETATM   23  C14 UNL     1      27.998   1.573  53.250  1.00  0.00     0.171 C 
HETATM   24  C15 UNL     1      29.178   0.739  53.677  1.00  0.00     0.034 C 
ENDBRANCH  22  23
ENDBRANCH   4  22
BRANCH   3  25
HETATM   25  C7  UNL     1      24.553  -0.730  53.181  1.00  0.00     0.248 A 
HETATM   26  N2  UNL     1      25.404  -0.833  54.343  1.00  0.00    -0.271 NA
HETATM   27  C8  UNL     1      24.948  -1.053  55.527  1.00  0.00     0.115 A 
HETATM   28  C9  UNL     1      23.545  -1.224  55.852  1.00  0.00     0.048 A 
HETATM   29  C10 UNL     1      22.657  -1.150  54.851  1.00  0.00     0.039 A 
HETATM   30  C11 UNL     1      21.284  -1.197  54.366  1.00  0.00     0.047 A 
HETATM   31  N3  UNL     1      23.153  -0.910  53.550  1.00  0.00    -0.329 N 
HETATM   32  C12 UNL     1      21.805  -0.969  53.158  1.00  0.00     0.096 A 
ENDBRANCH   3  25
TORSDOF 7
ENDMDL
MODEL 7
REMARK VINA RESULT:      -7.0      2.208      5.285
REMARK  7 active torsions:
REMARK  status: ('A' for Active; 'I' for Inactive)
REMARK    1  A    between atoms: C2_2  and  C3_3 
REMARK       I    between atoms: C3_3  and  N1_5 
REMARK    2  A    between atoms: N1_5  and  C4_6 
REMARK    3  A    between atoms: C6_8  and  C7_9 
REMARK    4  A    between atoms: C13_17  and  O2_18 
REMARK    5  A    between atoms: O2_18  and  C14_19 
REMARK    6  A    between atoms: C17_22  and  N4_23 
REMARK    7  A    between atoms: C20_26  and  N5_27 
ROOT
HETATM    1  C4  UNL     1      23.633   3.108  50.748  1.00  0.00     0.062 A 
HETATM    2  C5  UNL     1      23.212   4.031  49.782  1.00  0.00     0.046 A 
HETATM    3  C6  UNL     1      24.118   4.833  49.077  1.00  0.00     0.022 A 
HETATM    4  C13 UNL     1      25.459   4.674  49.376  1.00  0.00     0.081 A 
HETATM    5  C16 UNL     1      25.856   3.761  50.330  1.00  0.00     0.069 A 
HETATM    6  C17 UNL     1      24.976   2.966  51.031  1.00  0.00     0.060 A 
ENDROOT
BRANCH   6   7
HETATM    7  N4  UNL     1      25.429   2.040  52.004  1.00  0.00    -0.379 N 
HETATM    8  C18 UNL     1      26.335   2.529  53.045  1.00  0.00     0.125 C 
HETATM    9  C19 UNL     1      27.564   1.657  52.923  1.00  0.00     0.055 C 
HETATM   10  C20 UNL     1      27.325   0.201  52.988  1.00  0.00     0.225 C 
HETATM   11  C23 UNL     1      26.014  -0.304  52.570  1.00  0.00     0.055 C 
HETATM   12  C24 UNL     1      25.039   0.665  52.003  1.00  0.00     0.125 C 
BRANCH  10  13
HETATM   13  N5  UNL     1      27.690  -0.249  54.336  1.00  0.00     0.084 N 
HETATM   14  C21 UNL     1      28.845   0.468  54.830  1.00  0.00     0.309 C 
HETATM   15  C22 UNL     1      26.599  -0.118  55.277  1.00  0.00     0.309 C 
ENDBRANCH  10  13
ENDBRANCH   6   7
BRANCH   1  16
HETATM   16  N1  UNL     1      22.637   2.341  51.411  1.00  0.00    -0.322 N 
HETATM   17  C3  UNL     1      21.461   2.582  52.169  1.00  0.00     0.244 C 
HETATM   18  O1  UNL     1      20.942   3.684  52.479  1.00  0.00    -0.268 OA
HETATM   19  H4  UNL     1      22.976   1.379  51.215  1.00  0.00     0.169 HD
BRANCH  17  20
HETATM   20  C2  UNL     1      20.770   1.390  52.645  1.00  0.00     0.064 C 
HETATM   21  C1  UNL     1      20.825   0.341  51.866  1.00  0.00     0.017 C 
ENDBRANCH  17  20
ENDBRANCH   1  16
BRANCH   4  22
HETATM   22  O2  UNL     1      26.292   5.497  48.643  1.00  0.00    -0.351 OA
BRANCH  22  23
HETATM   23  C14 UNL     1      27.670   5.195  48.538  1.00  0.00     0.171 C 
HETATM   24  C15 UNL     1      28.479   6.380  48.076  1.00  0.00     0.034 C 
ENDBRANCH  22  23
ENDBRANCH   4  22
BRANCH   3  25
HETATM   25  C7  UNL     1      23.508   5.763  48.089  1.00  0.00     0.248 A 
HETATM   26  N2  UNL     1      22.540   5.095  47.252  1.00  0.00    -0.271 NA
HETATM   27  C8  UNL     1      21.292   5.411  47.235  1.00  0.00     0.115 A 
HETATM   28  C9  UNL     1      20.697   6.463  48.038  1.00  0.00     0.048 A 
HETATM   29  C10 UNL     1      21.500   7.156  48.856  1.00  0.00     0.039 A 
HETATM   30  C11 UNL     1      21.703   8.204  49.848  1.00  0.00     0.047 A 
HETATM   31  N3  UNL     1      22.870   6.813  48.877  1.00  0.00    -0.329 N 
HETATM   32  C12 UNL     1      22.988   7.839  49.830  1.00  0.00     0.096 A 
ENDBRANCH   3  25
TORSDOF 7
ENDMDL
MODEL 8
REMARK VINA RESULT:      -6.9      1.973      4.802
REMARK  7 active torsions:
REMARK  status: ('A' for Active; 'I' for Inactive)
REMARK    1  A    between atoms: C2_2  and  C3_3 
REMARK       I    between atoms: C3_3  and  N1_5 
REMARK    2  A    between atoms: N1_5  and  C4_6 
REMARK    3  A    between atoms: C6_8  and  C7_9 
REMARK    4  A    between atoms: C13_17  and  O2_18 
REMARK    5  A    between atoms: O2_18  and  C14_19 
REMARK    6  A    between atoms: C17_22  and  N4_23 
REMARK    7  A    between atoms: C20_26  and  N5_27 
ROOT
HETATM    1  C4  UNL     1      22.926   2.636  52.398  1.00  0.00     0.062 A 
HETATM    2  C5  UNL     1      22.041   3.571  51.848  1.00  0.00     0.046 A 
HETATM    3  C6  UNL     1      22.476   4.587  50.987  1.00  0.00     0.022 A 
HETATM    4  C13 UNL     1      23.828   4.628  50.700  1.00  0.00     0.081 A 
HETATM    5  C16 UNL     1      24.686   3.700  51.252  1.00  0.00     0.069 A 
HETATM    6  C17 UNL     1      24.272   2.695  52.100  1.00  0.00     0.060 A 
ENDROOT
BRANCH   6   7
HETATM    7  N4  UNL     1      25.189   1.762  52.644  1.00  0.00    -0.379 N 
HETATM    8  C18 UNL     1      25.966   2.168  53.816  1.00  0.00     0.125 C 
HETATM    9  C19 UNL     1      27.409   2.006  53.393  1.00  0.00     0.055 C 
HETATM   10  C20 UNL     1      27.778   0.672  52.877  1.00  0.00     0.225 C 
HETATM   11  C23 UNL     1      26.729  -0.147  52.262  1.00  0.00     0.055 C 
HETATM   12  C24 UNL     1      25.379   0.456  52.095  1.00  0.00     0.125 C 
BRANCH  10  13
HETATM   13  N5  UNL     1      28.481  -0.041  53.950  1.00  0.00     0.084 N 
HETATM   14  C21 UNL     1      29.255  -1.144  53.423  1.00  0.00     0.309 C 
HETATM   15  C22 UNL     1      29.342   0.831  54.720  1.00  0.00     0.309 C 
ENDBRANCH  10  13
ENDBRANCH   6   7
BRANCH   1  16
HETATM   16  N1  UNL     1      22.389   1.643  53.263  1.00  0.00    -0.322 N 
HETATM   17  C3  UNL     1      21.626   0.451  53.142  1.00  0.00     0.244 C 
HETATM   18  O1  UNL     1      21.179  -0.090  52.100  1.00  0.00    -0.268 OA
HETATM   19  H4  UNL     1      22.708   2.000  54.184  1.00  0.00     0.169 HD
BRANCH  17  20
HETATM   20  C2  UNL     1      21.328  -0.228  54.398  1.00  0.00     0.064 C 
HETATM   21  C1  UNL     1      21.291  -1.534  54.354  1.00  0.00     0.017 C 
ENDBRANCH  17  20
ENDBRANCH   1  16
BRANCH   4  22
HETATM   22  O2  UNL     1      24.183   5.655  49.847  1.00  0.00    -0.351 OA
BRANCH  22  23
HETATM   23  C14 UNL     1      25.502   6.167  49.867  1.00  0.00     0.171 C 
HETATM   24  C15 UNL     1      25.547   7.606  50.315  1.00  0.00     0.034 C 
ENDBRANCH  22  23
ENDBRANCH   4  22
BRANCH   3  25
HETATM   25  C7  UNL     1      21.410   5.499  50.491  1.00  0.00     0.248 A 
HETATM   26  N2  UNL     1      21.625   6.858  50.928  1.00  0.00    -0.271 NA
HETATM   27  C8  UNL     1      21.832   7.832  50.112  1.00  0.00     0.115 A 
HETATM   28  C9  UNL     1      21.879   7.701  48.668  1.00  0.00     0.048 A 
HETATM   29  C10 UNL     1      21.693   6.483  48.143  1.00  0.00     0.039 A 
HETATM   30  C11 UNL     1      21.595   5.599  46.989  1.00  0.00     0.047 A 
HETATM   31  N3  UNL     1      21.464   5.412  49.035  1.00  0.00    -0.329 N 
HETATM   32  C12 UNL     1      21.383   4.623  47.875  1.00  0.00     0.096 A 
ENDBRANCH   3  25
TORSDOF 7
ENDMDL
MODEL 9
REMARK VINA RESULT:      -6.9      3.945      7.734
REMARK  7 active torsions:
REMARK  status: ('A' for Active; 'I' for Inactive)
REMARK    1  A    between atoms: C2_2  and  C3_3 
REMARK       I    between atoms: C3_3  and  N1_5 
REMARK    2  A    between atoms: N1_5  and  C4_6 
REMARK    3  A    between atoms: C6_8  and  C7_9 
REMARK    4  A    between atoms: C13_17  and  O2_18 
REMARK    5  A    between atoms: O2_18  and  C14_19 
REMARK    6  A    between atoms: C17_22  and  N4_23 
REMARK    7  A    between atoms: C20_26  and  N5_27 
ROOT
HETATM    1  C4  UNL     1      25.513   6.558  49.561  1.00  0.00     0.062 A 
HETATM    2  C5  UNL     1      24.598   5.549  49.886  1.00  0.00     0.046 A 
HETATM    3  C6  UNL     1      23.329   5.836  50.402  1.00  0.00     0.022 A 
HETATM    4  C13 UNL     1      23.011   7.171  50.579  1.00  0.00     0.081 A 
HETATM    5  C16 UNL     1      23.924   8.152  50.254  1.00  0.00     0.069 A 
HETATM    6  C17 UNL     1      25.177   7.884  49.746  1.00  0.00     0.060 A 
ENDROOT
BRANCH   6   7
HETATM    7  N4  UNL     1      26.084   8.925  49.426  1.00  0.00    -0.379 N 
HETATM    8  C18 UNL     1      25.831   9.705  48.214  1.00  0.00     0.125 C 
HETATM    9  C19 UNL     1      27.091   9.553  47.392  1.00  0.00     0.055 C 
HETATM   10  C20 UNL     1      28.348   9.919  48.074  1.00  0.00     0.225 C 
HETATM   11  C23 UNL     1      28.400   9.810  49.535  1.00  0.00     0.055 C 
HETATM   12  C24 UNL     1      27.220   9.235  50.236  1.00  0.00     0.125 C 
BRANCH  10  13
HETATM   13  N5  UNL     1      28.739  11.252  47.602  1.00  0.00     0.084 N 
HETATM   14  C21 UNL     1      28.218  11.508  46.277  1.00  0.00     0.309 C 
HETATM   15  C22 UNL     1      28.315  12.303  48.502  1.00  0.00     0.309 C 
ENDBRANCH  10  13
ENDBRANCH   6   7
BRANCH   1  16
HETATM   16  N1  UNL     1      26.778   6.167  49.045  1.00  0.00    -0.322 N 
HETATM   17  C3  UNL     1      27.510   4.963  48.868  1.00  0.00     0.244 C 
HETATM   18  O1  UNL     1      27.171   3.790  49.166  1.00  0.00    -0.268 OA
HETATM   19  H4  UNL     1      27.161   7.089  48.759  1.00  0.00     0.169 HD
BRANCH  17  20
HETATM   20  C2  UNL     1      28.826   5.117  48.260  1.00  0.00     0.064 C 
HETATM   21  C1  UNL     1      29.254   6.343  48.112  1.00  0.00     0.017 C 
ENDBRANCH  17  20
ENDBRANCH   1  16
BRANCH   4  22
HETATM   22  O2  UNL     1      21.745   7.377  51.091  1.00  0.00    -0.351 OA
BRANCH  22  23
HETATM   23  C14 UNL     1      20.783   8.086  50.333  1.00  0.00     0.171 C 
HETATM   24  C15 UNL     1      20.225   7.259  49.203  1.00  0.00     0.034 C 
ENDBRANCH  22  23
ENDBRANCH   4  22
BRANCH   3  25
HETATM   25  C7  UNL     1      22.479   4.651  50.697  1.00  0.00     0.248 A 
HETATM   26  N2  UNL     1      22.286   3.827  49.528  1.00  0.00    -0.271 NA
HETATM   27  C8  UNL     1      22.697   2.609  49.453  1.00  0.00     0.115 A 
HETATM   28  C9  UNL     1      23.398   1.909  50.513  1.00  0.00     0.048 A 
HETATM   29  C10 UNL     1      23.635   2.574  51.652  1.00  0.00     0.039 A 
HETATM   30  C11 UNL     1      24.184   2.626  53.001  1.00  0.00     0.047 A 
HETATM   31  N3  UNL     1      23.185   3.910  51.738  1.00  0.00    -0.329 N 
HETATM   32  C12 UNL     1      23.738   3.885  53.030  1.00  0.00     0.096 A 
ENDBRANCH   3  25
TORSDOF 7
ENDMDL
