MODEL 1
REMARK VINA RESULT:      -7.4      0.000      0.000
REMARK  4 active torsions:
REMARK  status: ('A' for Active; 'I' for Inactive)
REMARK    1  A    between atoms: O1_2  and  C2_3 
REMARK    2  A    between atoms: C6_9  and  N3_10 
REMARK    3  A    between atoms: N3_10  and  C7_11 
REMARK    4  A    between atoms: C14_18  and  O2_19 
ROOT
HETATM    1  C2  UNL     1      23.006   1.338  51.686  1.00  0.00     0.103 A 
HETATM    2  C3  UNL     1      22.422   0.501  52.602  1.00  0.00     0.072 A 
HETATM    3  C4  UNL     1      23.179  -0.087  53.596  1.00  0.00     0.075 A 
HETATM    4  N1  UNL     1      22.653  -0.904  54.508  1.00  0.00    -0.241 NA
HETATM    5  C5  UNL     1      23.409  -1.460  55.466  1.00  0.00     0.236 A 
HETATM    6  N2  UNL     1      24.721  -1.226  55.558  1.00  0.00    -0.224 NA
HETATM    7  C6  UNL     1      25.349  -0.405  54.672  1.00  0.00     0.142 A 
HETATM    8  C12 UNL     1      24.531   0.138  53.712  1.00  0.00     0.042 A 
HETATM    9  C13 UNL     1      25.092   0.980  52.785  1.00  0.00     0.057 A 
HETATM   10  C14 UNL     1      24.361   1.578  51.784  1.00  0.00     0.102 A 
ENDROOT
BRANCH   7  11
HETATM   11  N3  UNL     1      26.731  -0.198  54.821  1.00  0.00    -0.340 N 
HETATM   12  H6  UNL     1      27.056   0.325  55.670  1.00  0.00     0.167 HD
BRANCH  11  13
HETATM   13  C7  UNL     1      27.960  -0.434  54.221  1.00  0.00     0.034 C 
HETATM   14  C8  UNL     1      28.998   0.403  54.395  1.00  0.00     0.030 C 
HETATM   15  C9  UNL     1      30.196  -0.057  53.663  1.00  0.00     0.014 C 
HETATM   16  C10 UNL     1      29.822  -1.270  53.288  1.00  0.00    -0.024 C 
HETATM   17  C11 UNL     1      28.525  -1.476  53.336  1.00  0.00     0.041 C 
ENDBRANCH  11  13
ENDBRANCH   7  11
BRANCH  10  18
HETATM   18  O2  UNL     1      24.916   2.430  50.840  1.00  0.00    -0.353 OA
HETATM   19  C15 UNL     1      26.328   2.475  50.760  1.00  0.00     0.210 C 
ENDBRANCH  10  18
BRANCH   1  20
HETATM   20  O1  UNL     1      22.260   1.929  50.691  1.00  0.00    -0.353 OA
HETATM   21  C1  UNL     1      21.783   1.238  49.576  1.00  0.00     0.210 C 
ENDBRANCH   1  20
TORSDOF 4
ENDMDL
MODEL 2
REMARK VINA RESULT:      -7.4      1.384      2.009
REMARK  4 active torsions:
REMARK  status: ('A' for Active; 'I' for Inactive)
REMARK    1  A    between atoms: O1_2  and  C2_3 
REMARK    2  A    between atoms: C6_9  and  N3_10 
REMARK    3  A    between atoms: N3_10  and  C7_11 
REMARK    4  A    between atoms: C14_18  and  O2_19 
ROOT
HETATM    1  C2  UNL     1      21.242   0.151  52.407  1.00  0.00     0.103 A 
HETATM    2  C3  UNL     1      21.326  -0.539  53.590  1.00  0.00     0.072 A 
HETATM    3  C4  UNL     1      22.549  -0.744  54.197  1.00  0.00     0.075 A 
HETATM    4  N1  UNL     1      22.675  -1.406  55.346  1.00  0.00    -0.241 NA
HETATM    5  C5  UNL     1      23.876  -1.589  55.917  1.00  0.00     0.236 A 
HETATM    6  N2  UNL     1      25.000  -1.121  55.369  1.00  0.00    -0.224 NA
HETATM    7  C6  UNL     1      24.972  -0.431  54.195  1.00  0.00     0.142 A 
HETATM    8  C12 UNL     1      23.721  -0.272  53.652  1.00  0.00     0.042 A 
HETATM    9  C13 UNL     1      23.611   0.416  52.470  1.00  0.00     0.057 A 
HETATM   10  C14 UNL     1      22.405   0.634  51.844  1.00  0.00     0.102 A 
ENDROOT
BRANCH   7  11
HETATM   11  N3  UNL     1      26.187   0.036  53.668  1.00  0.00    -0.340 N 
HETATM   12  H6  UNL     1      26.147   0.820  52.972  1.00  0.00     0.167 HD
BRANCH  11  13
HETATM   13  C7  UNL     1      27.562  -0.154  53.708  1.00  0.00     0.034 C 
HETATM   14  C8  UNL     1      28.136  -1.241  53.163  1.00  0.00     0.030 C 
HETATM   15  C9  UNL     1      29.604  -1.220  53.328  1.00  0.00     0.014 C 
HETATM   16  C10 UNL     1      29.799   0.011  53.773  1.00  0.00    -0.024 C 
HETATM   17  C11 UNL     1      28.719   0.593  54.246  1.00  0.00     0.041 C 
ENDBRANCH  11  13
ENDBRANCH   7  11
BRANCH  10  18
HETATM   18  O2  UNL     1      22.280   1.327  50.649  1.00  0.00    -0.353 OA
HETATM   19  C15 UNL     1      23.122   2.449  50.461  1.00  0.00     0.210 C 
ENDBRANCH  10  18
BRANCH   1  20
HETATM   20  O1  UNL     1      20.027   0.360  51.795  1.00  0.00    -0.353 OA
HETATM   21  C1  UNL     1      18.823  -0.148  52.282  1.00  0.00     0.210 C 
ENDBRANCH   1  20
TORSDOF 4
ENDMDL
MODEL 3
REMARK VINA RESULT:      -7.2      2.211      3.573
REMARK  4 active torsions:
REMARK  status: ('A' for Active; 'I' for Inactive)
REMARK    1  A    between atoms: O1_2  and  C2_3 
REMARK    2  A    between atoms: C6_9  and  N3_10 
REMARK    3  A    between atoms: N3_10  and  C7_11 
REMARK    4  A    between atoms: C14_18  and  O2_19 
ROOT
HETATM    1  C2  UNL     1      21.914   0.288  52.341  1.00  0.00     0.103 A 
HETATM    2  C3  UNL     1      22.369   1.231  51.455  1.00  0.00     0.072 A 
HETATM    3  C4  UNL     1      23.687   1.641  51.484  1.00  0.00     0.075 A 
HETATM    4  N1  UNL     1      24.171   2.552  50.641  1.00  0.00    -0.241 NA
HETATM    5  C5  UNL     1      25.457   2.932  50.686  1.00  0.00     0.236 A 
HETATM    6  N2  UNL     1      26.315   2.420  51.573  1.00  0.00    -0.224 NA
HETATM    7  C6  UNL     1      25.914   1.483  52.475  1.00  0.00     0.142 A 
HETATM    8  C12 UNL     1      24.590   1.129  52.386  1.00  0.00     0.042 A 
HETATM    9  C13 UNL     1      24.112   0.187  53.261  1.00  0.00     0.057 A 
HETATM   10  C14 UNL     1      22.803  -0.239  53.255  1.00  0.00     0.102 A 
ENDROOT
BRANCH   7  11
HETATM   11  N3  UNL     1      26.863   0.982  53.381  1.00  0.00    -0.340 N 
HETATM   12  H6  UNL     1      26.742   1.223  54.396  1.00  0.00     0.167 HD
BRANCH  11  13
HETATM   13  C7  UNL     1      28.020   0.220  53.471  1.00  0.00     0.034 C 
HETATM   14  C8  UNL     1      28.017  -1.096  53.193  1.00  0.00     0.030 C 
HETATM   15  C9  UNL     1      29.360  -1.688  53.357  1.00  0.00     0.014 C 
HETATM   16  C10 UNL     1      30.106  -0.606  53.508  1.00  0.00    -0.024 C 
HETATM   17  C11 UNL     1      29.432   0.476  53.829  1.00  0.00     0.041 C 
ENDBRANCH  11  13
ENDBRANCH   7  11
BRANCH  10  18
HETATM   18  O2  UNL     1      22.307  -1.190  54.134  1.00  0.00    -0.353 OA
HETATM   19  C15 UNL     1      23.020  -1.391  55.339  1.00  0.00     0.210 C 
ENDBRANCH  10  18
BRANCH   1  20
HETATM   20  O1  UNL     1      20.602  -0.127  52.321  1.00  0.00    -0.353 OA
HETATM   21  C1  UNL     1      19.598   0.533  51.612  1.00  0.00     0.210 C 
ENDBRANCH   1  20
TORSDOF 4
ENDMDL
MODEL 4
REMARK VINA RESULT:      -7.0      2.019      5.572
REMARK  4 active torsions:
REMARK  status: ('A' for Active; 'I' for Inactive)
REMARK    1  A    between atoms: O1_2  and  C2_3 
REMARK    2  A    between atoms: C6_9  and  N3_10 
REMARK    3  A    between atoms: N3_10  and  C7_11 
REMARK    4  A    between atoms: C14_18  and  O2_19 
ROOT
HETATM    1  C2  UNL     1      26.218  -0.361  53.834  1.00  0.00     0.103 A 
HETATM    2  C3  UNL     1      25.186  -0.899  54.560  1.00  0.00     0.072 A 
HETATM    3  C4  UNL     1      23.877  -0.589  54.253  1.00  0.00     0.075 A 
HETATM    4  N1  UNL     1      22.845  -1.091  54.929  1.00  0.00    -0.241 NA
HETATM    5  C5  UNL     1      21.581  -0.777  54.609  1.00  0.00     0.236 A 
HETATM    6  N2  UNL     1      21.290   0.050  53.601  1.00  0.00    -0.224 NA
HETATM    7  C6  UNL     1      22.277   0.613  52.851  1.00  0.00     0.142 A 
HETATM    8  C12 UNL     1      23.552   0.260  53.220  1.00  0.00     0.042 A 
HETATM    9  C13 UNL     1      24.601   0.785  52.508  1.00  0.00     0.057 A 
HETATM   10  C14 UNL     1      25.915   0.493  52.793  1.00  0.00     0.102 A 
ENDROOT
BRANCH   7  11
HETATM   11  N3  UNL     1      21.909   1.475  51.805  1.00  0.00    -0.340 N 
HETATM   12  H6  UNL     1      21.420   2.368  52.058  1.00  0.00     0.167 HD
BRANCH  11  13
HETATM   13  C7  UNL     1      21.936   1.622  50.424  1.00  0.00     0.034 C 
HETATM   14  C8  UNL     1      22.763   2.499  49.828  1.00  0.00     0.030 C 
HETATM   15  C9  UNL     1      22.613   2.473  48.359  1.00  0.00     0.014 C 
HETATM   16  C10 UNL     1      21.850   1.404  48.192  1.00  0.00    -0.024 C 
HETATM   17  C11 UNL     1      21.226   1.011  49.280  1.00  0.00     0.041 C 
ENDBRANCH  11  13
ENDBRANCH   7  11
BRANCH  10  18
HETATM   18  O2  UNL     1      26.984   1.017  52.082  1.00  0.00    -0.353 OA
HETATM   19  C15 UNL     1      26.818   2.305  51.521  1.00  0.00     0.210 C 
ENDBRANCH  10  18
BRANCH   1  20
HETATM   20  O1  UNL     1      27.527  -0.663  54.133  1.00  0.00    -0.353 OA
HETATM   21  C1  UNL     1      28.344   0.150  54.920  1.00  0.00     0.210 C 
ENDBRANCH   1  20
TORSDOF 4
ENDMDL
MODEL 5
REMARK VINA RESULT:      -7.0      2.844      6.549
REMARK  4 active torsions:
REMARK  status: ('A' for Active; 'I' for Inactive)
REMARK    1  A    between atoms: O1_2  and  C2_3 
REMARK    2  A    between atoms: C6_9  and  N3_10 
REMARK    3  A    between atoms: N3_10  and  C7_11 
REMARK    4  A    between atoms: C14_18  and  O2_19 
ROOT
HETATM    1  C2  UNL     1      27.280  -0.095  53.620  1.00  0.00     0.103 A 
HETATM    2  C3  UNL     1      27.618   0.831  52.666  1.00  0.00     0.072 A 
HETATM    3  C4  UNL     1      26.646   1.609  52.069  1.00  0.00     0.075 A 
HETATM    4  N1  UNL     1      26.931   2.521  51.141  1.00  0.00    -0.241 NA
HETATM    5  C5  UNL     1      25.968   3.268  50.578  1.00  0.00     0.236 A 
HETATM    6  N2  UNL     1      24.683   3.137  50.915  1.00  0.00    -0.224 NA
HETATM    7  C6  UNL     1      24.293   2.232  51.854  1.00  0.00     0.142 A 
HETATM    8  C12 UNL     1      25.315   1.494  52.399  1.00  0.00     0.042 A 
HETATM    9  C13 UNL     1      25.002   0.563  53.356  1.00  0.00     0.057 A 
HETATM   10  C14 UNL     1      25.950  -0.226  53.967  1.00  0.00     0.102 A 
ENDROOT
BRANCH   7  11
HETATM   11  N3  UNL     1      22.927   2.142  52.166  1.00  0.00    -0.340 N 
HETATM   12  H6  UNL     1      22.504   2.918  52.732  1.00  0.00     0.167 HD
BRANCH  11  13
HETATM   13  C7  UNL     1      21.801   1.346  52.008  1.00  0.00     0.034 C 
HETATM   14  C8  UNL     1      21.137   0.851  53.068  1.00  0.00     0.030 C 
HETATM   15  C9  UNL     1      19.976   0.038  52.649  1.00  0.00     0.014 C 
HETATM   16  C10 UNL     1      19.922   0.307  51.354  1.00  0.00    -0.024 C 
HETATM   17  C11 UNL     1      21.026   0.822  50.862  1.00  0.00     0.041 C 
ENDBRANCH  11  13
ENDBRANCH   7  11
BRANCH  10  18
HETATM   18  O2  UNL     1      25.647  -1.172  54.935  1.00  0.00    -0.353 OA
HETATM   19  C15 UNL     1      24.313  -1.211  55.404  1.00  0.00     0.210 C 
ENDBRANCH  10  18
BRANCH   1  20
HETATM   20  O1  UNL     1      28.240  -0.875  54.221  1.00  0.00    -0.353 OA
HETATM   21  C1  UNL     1      29.591  -0.838  53.870  1.00  0.00     0.210 C 
ENDBRANCH   1  20
TORSDOF 4
ENDMDL
MODEL 6
REMARK VINA RESULT:      -6.9      2.002      5.872
REMARK  4 active torsions:
REMARK  status: ('A' for Active; 'I' for Inactive)
REMARK    1  A    between atoms: O1_2  and  C2_3 
REMARK    2  A    between atoms: C6_9  and  N3_10 
REMARK    3  A    between atoms: N3_10  and  C7_11 
REMARK    4  A    between atoms: C14_18  and  O2_19 
ROOT
HETATM    1  C2  UNL     1      27.498   1.355  53.262  1.00  0.00     0.103 A 
HETATM    2  C3  UNL     1      27.127   0.521  54.287  1.00  0.00     0.072 A 
HETATM    3  C4  UNL     1      25.841   0.025  54.355  1.00  0.00     0.075 A 
HETATM    4  N1  UNL     1      25.439  -0.789  55.330  1.00  0.00    -0.241 NA
HETATM    5  C5  UNL     1      24.183  -1.261  55.373  1.00  0.00     0.236 A 
HETATM    6  N2  UNL     1      23.275  -0.942  54.447  1.00  0.00    -0.224 NA
HETATM    7  C6  UNL     1      23.592  -0.117  53.411  1.00  0.00     0.142 A 
HETATM    8  C12 UNL     1      24.887   0.338  53.414  1.00  0.00     0.042 A 
HETATM    9  C13 UNL     1      25.282   1.172  52.399  1.00  0.00     0.057 A 
HETATM   10  C14 UNL     1      26.557   1.681  52.307  1.00  0.00     0.102 A 
ENDROOT
BRANCH   7  11
HETATM   11  N3  UNL     1      22.594   0.181  52.469  1.00  0.00    -0.340 N 
HETATM   12  H6  UNL     1      22.899   0.564  51.541  1.00  0.00     0.167 HD
BRANCH  11  13
HETATM   13  C7  UNL     1      21.221   0.170  52.263  1.00  0.00     0.034 C 
HETATM   14  C8  UNL     1      20.691   0.420  51.052  1.00  0.00     0.030 C 
HETATM   15  C9  UNL     1      19.215   0.350  51.081  1.00  0.00     0.014 C 
HETATM   16  C10 UNL     1      19.002  -0.163  52.282  1.00  0.00    -0.024 C 
HETATM   17  C11 UNL     1      20.026  -0.070  53.101  1.00  0.00     0.041 C 
ENDBRANCH  11  13
ENDBRANCH   7  11
BRANCH  10  18
HETATM   18  O2  UNL     1      26.970   2.526  51.287  1.00  0.00    -0.353 OA
HETATM   19  C15 UNL     1      25.968   3.269  50.619  1.00  0.00     0.210 C 
ENDBRANCH  10  18
BRANCH   1  20
HETATM   20  O1  UNL     1      28.778   1.855  53.185  1.00  0.00    -0.353 OA
HETATM   21  C1  UNL     1      29.591   2.060  54.300  1.00  0.00     0.210 C 
ENDBRANCH   1  20
TORSDOF 4
ENDMDL
MODEL 7
REMARK VINA RESULT:      -6.9      2.743      5.442
REMARK  4 active torsions:
REMARK  status: ('A' for Active; 'I' for Inactive)
REMARK    1  A    between atoms: O1_2  and  C2_3 
REMARK    2  A    between atoms: C6_9  and  N3_10 
REMARK    3  A    between atoms: N3_10  and  C7_11 
REMARK    4  A    between atoms: C14_18  and  O2_19 
ROOT
HETATM    1  C2  UNL     1      22.908   0.335  52.856  1.00  0.00     0.103 A 
HETATM    2  C3  UNL     1      24.140   0.297  53.459  1.00  0.00     0.072 A 
HETATM    3  C4  UNL     1      25.205   0.989  52.919  1.00  0.00     0.075 A 
HETATM    4  N1  UNL     1      26.417   0.982  53.473  1.00  0.00    -0.241 NA
HETATM    5  C5  UNL     1      27.436   1.665  52.931  1.00  0.00     0.236 A 
HETATM    6  N2  UNL     1      27.292   2.385  51.815  1.00  0.00    -0.224 NA
HETATM    7  C6  UNL     1      26.092   2.454  51.176  1.00  0.00     0.142 A 
HETATM    8  C12 UNL     1      25.083   1.737  51.771  1.00  0.00     0.042 A 
HETATM    9  C13 UNL     1      23.841   1.761  51.187  1.00  0.00     0.057 A 
HETATM   10  C14 UNL     1      22.762   1.080  51.704  1.00  0.00     0.102 A 
ENDROOT
BRANCH   7  11
HETATM   11  N3  UNL     1      26.003   3.227  50.007  1.00  0.00    -0.340 N 
HETATM   12  H6  UNL     1      25.486   2.818  49.190  1.00  0.00     0.167 HD
BRANCH  11  13
HETATM   13  C7  UNL     1      26.372   4.443  49.448  1.00  0.00     0.034 C 
HETATM   14  C8  UNL     1      27.546   4.594  48.808  1.00  0.00     0.030 C 
HETATM   15  C9  UNL     1      27.713   5.971  48.300  1.00  0.00     0.014 C 
HETATM   16  C10 UNL     1      26.503   6.470  48.495  1.00  0.00    -0.024 C 
HETATM   17  C11 UNL     1      25.766   5.788  49.342  1.00  0.00     0.041 C 
ENDBRANCH  11  13
ENDBRANCH   7  11
BRANCH  10  18
HETATM   18  O2  UNL     1      21.503   1.094  51.123  1.00  0.00    -0.353 OA
HETATM   19  C15 UNL     1      21.437   0.938  49.719  1.00  0.00     0.210 C 
ENDBRANCH  10  18
BRANCH   1  20
HETATM   20  O1  UNL     1      21.839  -0.351  53.386  1.00  0.00    -0.353 OA
HETATM   21  C1  UNL     1      21.951  -1.238  54.458  1.00  0.00     0.210 C 
ENDBRANCH   1  20
TORSDOF 4
ENDMDL
MODEL 8
REMARK VINA RESULT:      -6.8      3.289      5.489
REMARK  4 active torsions:
REMARK  status: ('A' for Active; 'I' for Inactive)
REMARK    1  A    between atoms: O1_2  and  C2_3 
REMARK    2  A    between atoms: C6_9  and  N3_10 
REMARK    3  A    between atoms: N3_10  and  C7_11 
REMARK    4  A    between atoms: C14_18  and  O2_19 
ROOT
HETATM    1  C2  UNL     1      22.877   0.060  53.107  1.00  0.00     0.103 A 
HETATM    2  C3  UNL     1      21.852   0.942  52.874  1.00  0.00     0.072 A 
HETATM    3  C4  UNL     1      22.110   2.195  52.356  1.00  0.00     0.075 A 
HETATM    4  N1  UNL     1      21.146   3.081  52.112  1.00  0.00    -0.241 NA
HETATM    5  C5  UNL     1      21.422   4.292  51.605  1.00  0.00     0.236 A 
HETATM    6  N2  UNL     1      22.670   4.672  51.320  1.00  0.00    -0.224 NA
HETATM    7  C6  UNL     1      23.723   3.836  51.534  1.00  0.00     0.142 A 
HETATM    8  C12 UNL     1      23.387   2.610  52.053  1.00  0.00     0.042 A 
HETATM    9  C13 UNL     1      24.394   1.710  52.294  1.00  0.00     0.057 A 
HETATM   10  C14 UNL     1      24.165   0.455  52.810  1.00  0.00     0.102 A 
ENDROOT
BRANCH   7  11
HETATM   11  N3  UNL     1      25.012   4.292  51.213  1.00  0.00    -0.340 N 
HETATM   12  H6  UNL     1      25.685   4.447  52.004  1.00  0.00     0.167 HD
BRANCH  11  13
HETATM   13  C7  UNL     1      25.828   4.662  50.153  1.00  0.00     0.034 C 
HETATM   14  C8  UNL     1      25.775   5.898  49.624  1.00  0.00     0.030 C 
HETATM   15  C9  UNL     1      26.736   6.053  48.512  1.00  0.00     0.014 C 
HETATM   16  C10 UNL     1      27.446   4.942  48.623  1.00  0.00    -0.024 C 
HETATM   17  C11 UNL     1      26.871   4.001  49.339  1.00  0.00     0.041 C 
ENDBRANCH  11  13
ENDBRANCH   7  11
BRANCH  10  18
HETATM   18  O2  UNL     1      25.174  -0.463  53.059  1.00  0.00    -0.353 OA
HETATM   19  C15 UNL     1      26.390  -0.295  52.355  1.00  0.00     0.210 C 
ENDBRANCH  10  18
BRANCH   1  20
HETATM   20  O1  UNL     1      22.630  -1.192  53.624  1.00  0.00    -0.353 OA
HETATM   21  C1  UNL     1      21.889  -1.411  54.786  1.00  0.00     0.210 C 
ENDBRANCH   1  20
TORSDOF 4
ENDMDL
MODEL 9
REMARK VINA RESULT:      -6.8      2.571      6.264
REMARK  4 active torsions:
REMARK  status: ('A' for Active; 'I' for Inactive)
REMARK    1  A    between atoms: O1_2  and  C2_3 
REMARK    2  A    between atoms: C6_9  and  N3_10 
REMARK    3  A    between atoms: N3_10  and  C7_11 
REMARK    4  A    between atoms: C14_18  and  O2_19 
ROOT
HETATM    1  C2  UNL     1      24.419   1.426  51.989  1.00  0.00     0.103 A 
HETATM    2  C3  UNL     1      24.828   0.560  52.971  1.00  0.00     0.072 A 
HETATM    3  C4  UNL     1      23.902  -0.103  53.750  1.00  0.00     0.075 A 
HETATM    4  N1  UNL     1      24.255  -0.954  54.712  1.00  0.00    -0.241 NA
HETATM    5  C5  UNL     1      23.335  -1.590  55.454  1.00  0.00     0.236 A 
HETATM    6  N2  UNL     1      22.025  -1.405  55.269  1.00  0.00    -0.224 NA
HETATM    7  C6  UNL     1      21.567  -0.554  54.310  1.00  0.00     0.142 A 
HETATM    8  C12 UNL     1      22.548   0.070  53.579  1.00  0.00     0.042 A 
HETATM    9  C13 UNL     1      22.163   0.940  52.590  1.00  0.00     0.057 A 
HETATM   10  C14 UNL     1      23.065   1.615  51.800  1.00  0.00     0.102 A 
ENDROOT
BRANCH   7  11
HETATM   11  N3  UNL     1      20.178  -0.402  54.163  1.00  0.00    -0.340 N 
HETATM   12  H6  UNL     1      19.654   0.065  54.944  1.00  0.00     0.167 HD
BRANCH  11  13
HETATM   13  C7  UNL     1      19.117  -0.657  53.306  1.00  0.00     0.034 C 
HETATM   14  C8  UNL     1      18.173  -1.567  53.609  1.00  0.00     0.030 C 
HETATM   15  C9  UNL     1      17.149  -1.660  52.547  1.00  0.00     0.014 C 
HETATM   16  C10 UNL     1      17.460  -0.618  51.792  1.00  0.00    -0.024 C 
HETATM   17  C11 UNL     1      18.672  -0.149  51.991  1.00  0.00     0.041 C 
ENDBRANCH  11  13
ENDBRANCH   7  11
BRANCH  10  18
HETATM   18  O2  UNL     1      22.691   2.498  50.798  1.00  0.00    -0.353 OA
HETATM   19  C15 UNL     1      22.148   3.741  51.201  1.00  0.00     0.210 C 
ENDBRANCH  10  18
BRANCH   1  20
HETATM   20  O1  UNL     1      25.335   2.093  51.207  1.00  0.00    -0.353 OA
HETATM   21  C1  UNL     1      26.651   2.336  51.602  1.00  0.00     0.210 C 
ENDBRANCH   1  20
TORSDOF 4
ENDMDL
