MODEL 1
REMARK VINA RESULT:      -9.2      0.000      0.000
REMARK  6 active torsions:
REMARK  status: ('A' for Active; 'I' for Inactive)
REMARK    1  A    between atoms: C2_2  and  N1_3 
REMARK    2  A    between atoms: C2_2  and  C16_21 
REMARK    3  A    between atoms: N1_3  and  C3_4 
REMARK    4  A    between atoms: N4_12  and  C9_13 
REMARK    5  A    between atoms: C9_13  and  C10_14 
REMARK    6  A    between atoms: C13_17  and  O1_18 
ROOT
HETATM    1  C3  UNL     1      24.114   2.907  50.413  1.00  0.00     0.135 A 
HETATM    2  N2  UNL     1      24.784   3.359  49.342  1.00  0.00    -0.224 NA
HETATM    3  C4  UNL     1      26.131   3.497  49.358  1.00  0.00     0.237 A 
HETATM    4  N3  UNL     1      26.841   3.176  50.472  1.00  0.00    -0.224 NA
HETATM    5  C5  UNL     1      26.187   2.722  51.555  1.00  0.00     0.137 A 
HETATM    6  C6  UNL     1      24.828   2.573  51.567  1.00  0.00     0.035 A 
HETATM    7  C7  UNL     1      24.301   2.058  52.857  1.00  0.00     0.066 C 
HETATM    8  C8  UNL     1      25.474   2.259  53.782  1.00  0.00     0.130 C 
HETATM    9  N4  UNL     1      26.588   2.302  52.853  1.00  0.00    -0.361 N 
ENDROOT
BRANCH   1  10
HETATM   10  N1  UNL     1      22.708   2.770  50.381  1.00  0.00    -0.366 N 
HETATM   11  H5  UNL     1      22.111   3.459  50.883  1.00  0.00     0.161 HD
BRANCH  10  12
HETATM   12  C2  UNL     1      22.105   1.663  49.641  1.00  0.00     0.112 C 
HETATM   13  C1  UNL     1      21.316   2.177  48.453  1.00  0.00     0.037 C 
BRANCH  12  14
HETATM   14  C16 UNL     1      21.100   0.996  50.537  1.00  0.00    -0.036 A 
HETATM   15  C17 UNL     1      19.840   1.058  49.945  1.00  0.00     0.010 A 
HETATM   16  C18 UNL     1      18.735   0.500  50.595  1.00  0.00     0.019 A 
HETATM   17  C19 UNL     1      18.929  -0.103  51.818  1.00  0.00     0.011 A 
HETATM   18 BR1  UNL     1      17.457  -0.878  52.745  1.00  0.00    -0.051 Br
HETATM   19  C20 UNL     1      20.177  -0.152  52.379  1.00  0.00     0.019 A 
HETATM   20  C21 UNL     1      21.270   0.396  51.746  1.00  0.00     0.010 A 
ENDBRANCH  12  14
ENDBRANCH  10  12
ENDBRANCH   1  10
BRANCH   9  21
HETATM   21  C9  UNL     1      27.958   1.945  53.252  1.00  0.00     0.163 C 
BRANCH  21  22
HETATM   22  C10 UNL     1      28.101   0.474  53.203  1.00  0.00    -0.040 A 
HETATM   23  C11 UNL     1      29.298  -0.096  53.596  1.00  0.00     0.011 A 
HETATM   24  C12 UNL     1      29.521  -1.443  53.584  1.00  0.00     0.037 A 
HETATM   25  C13 UNL     1      28.501  -2.297  53.158  1.00  0.00     0.065 A 
HETATM   26  C14 UNL     1      27.291  -1.772  52.758  1.00  0.00     0.037 A 
HETATM   27  C15 UNL     1      27.126  -0.398  52.791  1.00  0.00     0.011 A 
BRANCH  25  28
HETATM   28  O1  UNL     1      28.647  -3.691  53.115  1.00  0.00    -0.361 OA
HETATM   29  H15 UNL     1      28.976  -4.208  53.928  1.00  0.00     0.217 HD
ENDBRANCH  25  28
ENDBRANCH  21  22
ENDBRANCH   9  21
TORSDOF 6
ENDMDL
MODEL 2
REMARK VINA RESULT:      -9.1      3.721      6.712
REMARK  6 active torsions:
REMARK  status: ('A' for Active; 'I' for Inactive)
REMARK    1  A    between atoms: C2_2  and  N1_3 
REMARK    2  A    between atoms: C2_2  and  C16_21 
REMARK    3  A    between atoms: N1_3  and  C3_4 
REMARK    4  A    between atoms: N4_12  and  C9_13 
REMARK    5  A    between atoms: C9_13  and  C10_14 
REMARK    6  A    between atoms: C13_17  and  O1_18 
ROOT
HETATM    1  C3  UNL     1      22.741   1.245  52.398  1.00  0.00     0.135 A 
HETATM    2  N2  UNL     1      22.072   0.516  51.491  1.00  0.00    -0.224 NA
HETATM    3  C4  UNL     1      21.777   1.012  50.266  1.00  0.00     0.237 A 
HETATM    4  N3  UNL     1      22.157   2.272  49.925  1.00  0.00    -0.224 NA
HETATM    5  C5  UNL     1      22.827   3.016  50.821  1.00  0.00     0.137 A 
HETATM    6  C6  UNL     1      23.139   2.542  52.065  1.00  0.00     0.035 A 
HETATM    7  C7  UNL     1      23.881   3.519  52.902  1.00  0.00     0.066 C 
HETATM    8  C8  UNL     1      23.667   4.808  52.150  1.00  0.00     0.130 C 
HETATM    9  N4  UNL     1      23.366   4.333  50.812  1.00  0.00    -0.361 N 
ENDROOT
BRANCH   1  10
HETATM   10  N1  UNL     1      23.040   0.713  53.673  1.00  0.00    -0.366 N 
HETATM   11  H5  UNL     1      22.823   1.268  54.527  1.00  0.00     0.161 HD
BRANCH  10  12
HETATM   12  C2  UNL     1      23.651  -0.610  53.781  1.00  0.00     0.112 C 
HETATM   13  C1  UNL     1      23.215  -1.301  55.058  1.00  0.00     0.037 C 
BRANCH  12  14
HETATM   14  C16 UNL     1      25.137  -0.429  53.906  1.00  0.00    -0.036 A 
HETATM   15  C17 UNL     1      25.770  -1.032  52.821  1.00  0.00     0.010 A 
HETATM   16  C18 UNL     1      27.164  -0.994  52.717  1.00  0.00     0.019 A 
HETATM   17  C19 UNL     1      27.879  -0.353  53.705  1.00  0.00     0.011 A 
HETATM   18 BR1  UNL     1      29.779  -0.274  53.610  1.00  0.00    -0.051 Br
HETATM   19  C20 UNL     1      27.234   0.232  54.761  1.00  0.00     0.019 A 
HETATM   20  C21 UNL     1      25.862   0.200  54.871  1.00  0.00     0.010 A 
ENDBRANCH  12  14
ENDBRANCH  10  12
ENDBRANCH   1  10
BRANCH   9  21
HETATM   21  C9  UNL     1      23.607   5.151  49.614  1.00  0.00     0.163 C 
BRANCH  21  22
HETATM   22  C10 UNL     1      25.046   5.095  49.279  1.00  0.00    -0.040 A 
HETATM   23  C11 UNL     1      25.657   6.222  48.759  1.00  0.00     0.011 A 
HETATM   24  C12 UNL     1      26.979   6.262  48.421  1.00  0.00     0.037 A 
HETATM   25  C13 UNL     1      27.763   5.120  48.604  1.00  0.00     0.065 A 
HETATM   26  C14 UNL     1      27.196   3.976  49.120  1.00  0.00     0.037 A 
HETATM   27  C15 UNL     1      25.850   3.996  49.443  1.00  0.00     0.011 A 
BRANCH  25  28
HETATM   28  O1  UNL     1      29.128   5.078  48.283  1.00  0.00    -0.361 OA
HETATM   29  H15 UNL     1      29.784   4.550  48.855  1.00  0.00     0.217 HD
ENDBRANCH  25  28
ENDBRANCH  21  22
ENDBRANCH   9  21
TORSDOF 6
ENDMDL
MODEL 3
REMARK VINA RESULT:      -8.5      2.338      3.255
REMARK  6 active torsions:
REMARK  status: ('A' for Active; 'I' for Inactive)
REMARK    1  A    between atoms: C2_2  and  N1_3 
REMARK    2  A    between atoms: C2_2  and  C16_21 
REMARK    3  A    between atoms: N1_3  and  C3_4 
REMARK    4  A    between atoms: N4_12  and  C9_13 
REMARK    5  A    between atoms: C9_13  and  C10_14 
REMARK    6  A    between atoms: C13_17  and  O1_18 
ROOT
HETATM    1  C3  UNL     1      21.859   1.937  52.160  1.00  0.00     0.135 A 
HETATM    2  N2  UNL     1      22.108   2.975  51.347  1.00  0.00    -0.224 NA
HETATM    3  C4  UNL     1      23.349   3.205  50.856  1.00  0.00     0.237 A 
HETATM    4  N3  UNL     1      24.380   2.379  51.180  1.00  0.00    -0.224 NA
HETATM    5  C5  UNL     1      24.149   1.335  51.993  1.00  0.00     0.137 A 
HETATM    6  C6  UNL     1      22.907   1.079  52.504  1.00  0.00     0.035 A 
HETATM    7  C7  UNL     1      22.863  -0.120  53.379  1.00  0.00     0.066 C 
HETATM    8  C8  UNL     1      24.325  -0.367  53.652  1.00  0.00     0.130 C 
HETATM    9  N4  UNL     1      24.960   0.296  52.529  1.00  0.00    -0.361 N 
ENDROOT
BRANCH   1  10
HETATM   10  N1  UNL     1      20.558   1.711  52.665  1.00  0.00    -0.366 N 
HETATM   11  H5  UNL     1      20.370   1.841  53.680  1.00  0.00     0.161 HD
BRANCH  10  12
HETATM   12  C2  UNL     1      19.491   1.298  51.756  1.00  0.00     0.112 C 
HETATM   13  C1  UNL     1      18.375   2.324  51.737  1.00  0.00     0.037 C 
BRANCH  12  14
HETATM   14  C16 UNL     1      18.874   0.041  52.302  1.00  0.00    -0.036 A 
HETATM   15  C17 UNL     1      17.687  -0.223  51.624  1.00  0.00     0.010 A 
HETATM   16  C18 UNL     1      16.928  -1.350  51.958  1.00  0.00     0.019 A 
HETATM   17  C19 UNL     1      17.385  -2.174  52.962  1.00  0.00     0.011 A 
HETATM   18 BR1  UNL     1      16.389  -3.721  53.456  1.00  0.00    -0.051 Br
HETATM   19  C20 UNL     1      18.555  -1.893  53.614  1.00  0.00     0.019 A 
HETATM   20  C21 UNL     1      19.308  -0.786  53.291  1.00  0.00     0.010 A 
ENDBRANCH  12  14
ENDBRANCH  10  12
ENDBRANCH   1  10
BRANCH   9  21
HETATM   21  C9  UNL     1      26.289  -0.094  52.034  1.00  0.00     0.163 C 
BRANCH  21  22
HETATM   22  C10 UNL     1      27.319   0.543  52.883  1.00  0.00    -0.040 A 
HETATM   23  C11 UNL     1      27.584   1.890  52.716  1.00  0.00     0.011 A 
HETATM   24  C12 UNL     1      28.517   2.561  53.453  1.00  0.00     0.037 A 
HETATM   25  C13 UNL     1      29.243   1.868  54.425  1.00  0.00     0.065 A 
HETATM   26  C14 UNL     1      29.011   0.525  54.625  1.00  0.00     0.037 A 
HETATM   27  C15 UNL     1      28.053  -0.100  53.845  1.00  0.00     0.011 A 
BRANCH  25  28
HETATM   28  O1  UNL     1      30.218   2.482  55.225  1.00  0.00    -0.361 OA
HETATM   29  H15 UNL     1      30.529   2.052  56.094  1.00  0.00     0.217 HD
ENDBRANCH  25  28
ENDBRANCH  21  22
ENDBRANCH   9  21
TORSDOF 6
ENDMDL
MODEL 4
REMARK VINA RESULT:      -8.4      3.793      6.525
REMARK  6 active torsions:
REMARK  status: ('A' for Active; 'I' for Inactive)
REMARK    1  A    between atoms: C2_2  and  N1_3 
REMARK    2  A    between atoms: C2_2  and  C16_21 
REMARK    3  A    between atoms: N1_3  and  C3_4 
REMARK    4  A    between atoms: N4_12  and  C9_13 
REMARK    5  A    between atoms: C9_13  and  C10_14 
REMARK    6  A    between atoms: C13_17  and  O1_18 
ROOT
HETATM    1  C3  UNL     1      22.713   2.630  51.006  1.00  0.00     0.135 A 
HETATM    2  N2  UNL     1      22.337   1.970  49.901  1.00  0.00    -0.224 NA
HETATM    3  C4  UNL     1      22.448   2.529  48.672  1.00  0.00     0.237 A 
HETATM    4  N3  UNL     1      22.950   3.785  48.533  1.00  0.00    -0.224 NA
HETATM    5  C5  UNL     1      23.331   4.461  49.629  1.00  0.00     0.137 A 
HETATM    6  C6  UNL     1      23.231   3.921  50.881  1.00  0.00     0.035 A 
HETATM    7  C7  UNL     1      23.705   4.829  51.957  1.00  0.00     0.066 C 
HETATM    8  C8  UNL     1      23.769   6.157  51.246  1.00  0.00     0.130 C 
HETATM    9  N4  UNL     1      23.883   5.752  49.858  1.00  0.00    -0.361 N 
ENDROOT
BRANCH   1  10
HETATM   10  N1  UNL     1      22.590   2.031  52.282  1.00  0.00    -0.366 N 
HETATM   11  H5  UNL     1      22.249   2.598  53.085  1.00  0.00     0.161 HD
BRANCH  10  12
HETATM   12  C2  UNL     1      22.942   0.624  52.458  1.00  0.00     0.112 C 
HETATM   13  C1  UNL     1      22.291   0.060  53.706  1.00  0.00     0.037 C 
BRANCH  12  14
HETATM   14  C16 UNL     1      24.422   0.541  52.701  1.00  0.00    -0.036 A 
HETATM   15  C17 UNL     1      24.659  -0.187  53.865  1.00  0.00     0.010 A 
HETATM   16  C18 UNL     1      25.972  -0.400  54.300  1.00  0.00     0.019 A 
HETATM   17  C19 UNL     1      27.004   0.124  53.553  1.00  0.00     0.011 A 
HETATM   18 BR1  UNL     1      28.808  -0.138  54.102  1.00  0.00    -0.051 Br
HETATM   19  C20 UNL     1      26.745   0.835  52.413  1.00  0.00     0.019 A 
HETATM   20  C21 UNL     1      25.456   1.049  51.978  1.00  0.00     0.010 A 
ENDBRANCH  12  14
ENDBRANCH  10  12
ENDBRANCH   1  10
BRANCH   9  21
HETATM   21  C9  UNL     1      24.504   6.610  48.837  1.00  0.00     0.163 C 
BRANCH  21  22
HETATM   22  C10 UNL     1      25.913   6.197  48.660  1.00  0.00    -0.040 A 
HETATM   23  C11 UNL     1      26.814   7.104  48.132  1.00  0.00     0.011 A 
HETATM   24  C12 UNL     1      28.133   6.811  47.933  1.00  0.00     0.037 A 
HETATM   25  C13 UNL     1      28.607   5.542  48.274  1.00  0.00     0.065 A 
HETATM   26  C14 UNL     1      27.744   4.608  48.804  1.00  0.00     0.037 A 
HETATM   27  C15 UNL     1      26.418   4.964  48.981  1.00  0.00     0.011 A 
BRANCH  25  28
HETATM   28  O1  UNL     1      29.947   5.161  48.102  1.00  0.00    -0.361 OA
HETATM   29  H15 UNL     1      30.211   4.484  47.390  1.00  0.00     0.217 HD
ENDBRANCH  25  28
ENDBRANCH  21  22
ENDBRANCH   9  21
TORSDOF 6
ENDMDL
MODEL 5
REMARK VINA RESULT:      -8.4      4.229      6.444
REMARK  6 active torsions:
REMARK  status: ('A' for Active; 'I' for Inactive)
REMARK    1  A    between atoms: C2_2  and  N1_3 
REMARK    2  A    between atoms: C2_2  and  C16_21 
REMARK    3  A    between atoms: N1_3  and  C3_4 
REMARK    4  A    between atoms: N4_12  and  C9_13 
REMARK    5  A    between atoms: C9_13  and  C10_14 
REMARK    6  A    between atoms: C13_17  and  O1_18 
ROOT
HETATM    1  C3  UNL     1      24.102   4.514  50.125  1.00  0.00     0.135 A 
HETATM    2  N2  UNL     1      22.988   4.813  50.809  1.00  0.00    -0.224 NA
HETATM    3  C4  UNL     1      22.750   4.289  52.035  1.00  0.00     0.237 A 
HETATM    4  N3  UNL     1      23.646   3.439  52.604  1.00  0.00    -0.224 NA
HETATM    5  C5  UNL     1      24.767   3.128  51.932  1.00  0.00     0.137 A 
HETATM    6  C6  UNL     1      25.033   3.642  50.694  1.00  0.00     0.035 A 
HETATM    7  C7  UNL     1      26.323   3.174  50.124  1.00  0.00     0.066 C 
HETATM    8  C8  UNL     1      26.655   2.001  51.011  1.00  0.00     0.130 C 
HETATM    9  N4  UNL     1      25.892   2.300  52.207  1.00  0.00    -0.361 N 
ENDROOT
BRANCH   1  10
HETATM   10  N1  UNL     1      24.335   5.070  48.845  1.00  0.00    -0.366 N 
HETATM   11  H5  UNL     1      24.359   4.448  48.011  1.00  0.00     0.161 HD
BRANCH  10  12
HETATM   12  C2  UNL     1      24.539   6.510  48.708  1.00  0.00     0.112 C 
HETATM   13  C1  UNL     1      23.662   7.074  47.608  1.00  0.00     0.037 C 
BRANCH  12  14
HETATM   14  C16 UNL     1      25.953   6.740  48.256  1.00  0.00    -0.036 A 
HETATM   15  C17 UNL     1      25.983   7.800  47.353  1.00  0.00     0.010 A 
HETATM   16  C18 UNL     1      27.199   8.204  46.790  1.00  0.00     0.019 A 
HETATM   17  C19 UNL     1      28.344   7.530  47.151  1.00  0.00     0.011 A 
HETATM   18 BR1  UNL     1      30.025   8.040  46.413  1.00  0.00    -0.051 Br
HETATM   19  C20 UNL     1      28.289   6.491  48.041  1.00  0.00     0.019 A 
HETATM   20  C21 UNL     1      27.097   6.088  48.599  1.00  0.00     0.010 A 
ENDBRANCH  12  14
ENDBRANCH  10  12
ENDBRANCH   1  10
BRANCH   9  21
HETATM   21  C9  UNL     1      26.272   1.786  53.532  1.00  0.00     0.163 C 
BRANCH  21  22
HETATM   22  C10 UNL     1      26.894   0.455  53.365  1.00  0.00    -0.040 A 
HETATM   23  C11 UNL     1      26.131  -0.581  52.858  1.00  0.00     0.011 A 
HETATM   24  C12 UNL     1      26.619  -1.842  52.670  1.00  0.00     0.037 A 
HETATM   25  C13 UNL     1      27.950  -2.112  53.001  1.00  0.00     0.065 A 
HETATM   26  C14 UNL     1      28.746  -1.109  53.509  1.00  0.00     0.037 A 
HETATM   27  C15 UNL     1      28.193   0.148  53.677  1.00  0.00     0.011 A 
BRANCH  25  28
HETATM   28  O1  UNL     1      28.530  -3.379  52.839  1.00  0.00    -0.361 OA
HETATM   29  H15 UNL     1      29.505  -3.544  53.080  1.00  0.00     0.217 HD
ENDBRANCH  25  28
ENDBRANCH  21  22
ENDBRANCH   9  21
TORSDOF 6
ENDMDL
MODEL 6
REMARK VINA RESULT:      -8.4      1.923      2.730
REMARK  6 active torsions:
REMARK  status: ('A' for Active; 'I' for Inactive)
REMARK    1  A    between atoms: C2_2  and  N1_3 
REMARK    2  A    between atoms: C2_2  and  C16_21 
REMARK    3  A    between atoms: N1_3  and  C3_4 
REMARK    4  A    between atoms: N4_12  and  C9_13 
REMARK    5  A    between atoms: C9_13  and  C10_14 
REMARK    6  A    between atoms: C13_17  and  O1_18 
ROOT
HETATM    1  C3  UNL     1      21.656   2.536  52.370  1.00  0.00     0.135 A 
HETATM    2  N2  UNL     1      21.673   3.714  51.729  1.00  0.00    -0.224 NA
HETATM    3  C4  UNL     1      22.834   4.274  51.312  1.00  0.00     0.237 A 
HETATM    4  N3  UNL     1      24.019   3.647  51.536  1.00  0.00    -0.224 NA
HETATM    5  C5  UNL     1      24.021   2.465  52.176  1.00  0.00     0.137 A 
HETATM    6  C6  UNL     1      22.865   1.877  52.608  1.00  0.00     0.035 A 
HETATM    7  C7  UNL     1      23.083   0.576  53.292  1.00  0.00     0.066 C 
HETATM    8  C8  UNL     1      24.565   0.606  53.564  1.00  0.00     0.130 C 
HETATM    9  N4  UNL     1      25.037   1.552  52.571  1.00  0.00    -0.361 N 
ENDROOT
BRANCH   1  10
HETATM   10  N1  UNL     1      20.436   1.965  52.799  1.00  0.00    -0.366 N 
HETATM   11  H5  UNL     1      20.192   1.972  53.811  1.00  0.00     0.161 HD
BRANCH  10  12
HETATM   12  C2  UNL     1      19.530   1.372  51.819  1.00  0.00     0.112 C 
HETATM   13  C1  UNL     1      18.309   2.248  51.616  1.00  0.00     0.037 C 
BRANCH  12  14
HETATM   14  C16 UNL     1      19.011   0.080  52.385  1.00  0.00    -0.036 A 
HETATM   15  C17 UNL     1      17.793  -0.232  51.785  1.00  0.00     0.010 A 
HETATM   16  C18 UNL     1      17.112  -1.397  52.152  1.00  0.00     0.019 A 
HETATM   17  C19 UNL     1      17.675  -2.212  53.109  1.00  0.00     0.011 A 
HETATM   18 BR1  UNL     1      16.788  -3.810  53.644  1.00  0.00    -0.051 Br
HETATM   19  C20 UNL     1      18.873  -1.884  53.683  1.00  0.00     0.019 A 
HETATM   20  C21 UNL     1      19.550  -0.739  53.328  1.00  0.00     0.010 A 
ENDBRANCH  12  14
ENDBRANCH  10  12
ENDBRANCH   1  10
BRANCH   9  21
HETATM   21  C9  UNL     1      26.416   1.533  52.060  1.00  0.00     0.163 C 
BRANCH  21  22
HETATM   22  C10 UNL     1      27.045   0.247  52.432  1.00  0.00    -0.040 A 
HETATM   23  C11 UNL     1      26.468  -0.931  51.994  1.00  0.00     0.011 A 
HETATM   24  C12 UNL     1      26.977  -2.163  52.289  1.00  0.00     0.037 A 
HETATM   25  C13 UNL     1      28.135  -2.252  53.066  1.00  0.00     0.065 A 
HETATM   26  C14 UNL     1      28.743  -1.104  53.523  1.00  0.00     0.037 A 
HETATM   27  C15 UNL     1      28.178   0.116  53.192  1.00  0.00     0.011 A 
BRANCH  25  28
HETATM   28  O1  UNL     1      28.723  -3.478  53.414  1.00  0.00    -0.361 OA
HETATM   29  H15 UNL     1      29.731  -3.560  53.532  1.00  0.00     0.217 HD
ENDBRANCH  25  28
ENDBRANCH  21  22
ENDBRANCH   9  21
TORSDOF 6
ENDMDL
MODEL 7
REMARK VINA RESULT:      -8.2      4.709      7.368
REMARK  6 active torsions:
REMARK  status: ('A' for Active; 'I' for Inactive)
REMARK    1  A    between atoms: C2_2  and  N1_3 
REMARK    2  A    between atoms: C2_2  and  C16_21 
REMARK    3  A    between atoms: N1_3  and  C3_4 
REMARK    4  A    between atoms: N4_12  and  C9_13 
REMARK    5  A    between atoms: C9_13  and  C10_14 
REMARK    6  A    between atoms: C13_17  and  O1_18 
ROOT
HETATM    1  C3  UNL     1      23.230   4.248  50.419  1.00  0.00     0.135 A 
HETATM    2  N2  UNL     1      22.981   5.060  51.457  1.00  0.00    -0.224 NA
HETATM    3  C4  UNL     1      22.016   4.772  52.363  1.00  0.00     0.237 A 
HETATM    4  N3  UNL     1      21.272   3.641  52.237  1.00  0.00    -0.224 NA
HETATM    5  C5  UNL     1      21.507   2.816  51.203  1.00  0.00     0.137 A 
HETATM    6  C6  UNL     1      22.475   3.082  50.274  1.00  0.00     0.035 A 
HETATM    7  C7  UNL     1      22.575   2.048  49.212  1.00  0.00     0.066 C 
HETATM    8  C8  UNL     1      21.287   1.285  49.389  1.00  0.00     0.130 C 
HETATM    9  N4  UNL     1      20.944   1.585  50.767  1.00  0.00    -0.361 N 
ENDROOT
BRANCH   1  10
HETATM   10  N1  UNL     1      24.241   4.564  49.481  1.00  0.00    -0.366 N 
HETATM   11  H5  UNL     1      24.819   3.803  49.072  1.00  0.00     0.161 HD
BRANCH  10  12
HETATM   12  C2  UNL     1      24.462   5.957  49.098  1.00  0.00     0.112 C 
HETATM   13  C1  UNL     1      23.677   6.301  47.848  1.00  0.00     0.037 C 
BRANCH  12  14
HETATM   14  C16 UNL     1      25.909   6.112  48.722  1.00  0.00    -0.036 A 
HETATM   15  C17 UNL     1      26.581   4.916  48.964  1.00  0.00     0.010 A 
HETATM   16  C18 UNL     1      27.949   4.816  48.689  1.00  0.00     0.019 A 
HETATM   17  C19 UNL     1      28.598   5.919  48.181  1.00  0.00     0.011 A 
HETATM   18 BR1  UNL     1      30.460   5.835  47.791  1.00  0.00    -0.051 Br
HETATM   19  C20 UNL     1      27.916   7.083  47.952  1.00  0.00     0.019 A 
HETATM   20  C21 UNL     1      26.569   7.191  48.219  1.00  0.00     0.010 A 
ENDBRANCH  12  14
ENDBRANCH  10  12
ENDBRANCH   1  10
BRANCH   9  21
HETATM   21  C9  UNL     1      20.108   0.691  51.581  1.00  0.00     0.163 C 
BRANCH  21  22
HETATM   22  C10 UNL     1      20.943   0.098  52.649  1.00  0.00    -0.040 A 
HETATM   23  C11 UNL     1      20.493   0.151  53.956  1.00  0.00     0.011 A 
HETATM   24  C12 UNL     1      21.196  -0.369  55.005  1.00  0.00     0.037 A 
HETATM   25  C13 UNL     1      22.425  -0.986  54.761  1.00  0.00     0.065 A 
HETATM   26  C14 UNL     1      22.911  -1.061  53.474  1.00  0.00     0.037 A 
HETATM   27  C15 UNL     1      22.153  -0.515  52.453  1.00  0.00     0.011 A 
BRANCH  25  28
HETATM   28  O1  UNL     1      23.209  -1.545  55.782  1.00  0.00    -0.361 OA
HETATM   29  H15 UNL     1      23.198  -2.547  55.961  1.00  0.00     0.217 HD
ENDBRANCH  25  28
ENDBRANCH  21  22
ENDBRANCH   9  21
TORSDOF 6
ENDMDL
MODEL 8
REMARK VINA RESULT:      -8.1      3.284      6.623
REMARK  6 active torsions:
REMARK  status: ('A' for Active; 'I' for Inactive)
REMARK    1  A    between atoms: C2_2  and  N1_3 
REMARK    2  A    between atoms: C2_2  and  C16_21 
REMARK    3  A    between atoms: N1_3  and  C3_4 
REMARK    4  A    between atoms: N4_12  and  C9_13 
REMARK    5  A    between atoms: C9_13  and  C10_14 
REMARK    6  A    between atoms: C13_17  and  O1_18 
ROOT
HETATM    1  C3  UNL     1      22.797   4.471  49.633  1.00  0.00     0.135 A 
HETATM    2  N2  UNL     1      22.183   5.460  50.301  1.00  0.00    -0.224 NA
HETATM    3  C4  UNL     1      20.930   5.308  50.792  1.00  0.00     0.237 A 
HETATM    4  N3  UNL     1      20.261   4.138  50.617  1.00  0.00    -0.224 NA
HETATM    5  C5  UNL     1      20.860   3.137  49.950  1.00  0.00     0.137 A 
HETATM    6  C6  UNL     1      22.124   3.261  49.444  1.00  0.00     0.035 A 
HETATM    7  C7  UNL     1      22.603   2.043  48.743  1.00  0.00     0.066 C 
HETATM    8  C8  UNL     1      21.327   1.264  48.551  1.00  0.00     0.130 C 
HETATM    9  N4  UNL     1      20.476   1.815  49.589  1.00  0.00    -0.361 N 
ENDROOT
BRANCH   1  10
HETATM   10  N1  UNL     1      24.105   4.645  49.127  1.00  0.00    -0.366 N 
HETATM   11  H5  UNL     1      24.262   4.659  48.098  1.00  0.00     0.161 HD
BRANCH  10  12
HETATM   12  C2  UNL     1      25.225   4.805  50.052  1.00  0.00     0.112 C 
HETATM   13  C1  UNL     1      26.545   4.786  49.307  1.00  0.00     0.037 C 
BRANCH  12  14
HETATM   14  C16 UNL     1      25.255   3.607  50.959  1.00  0.00    -0.036 A 
HETATM   15  C17 UNL     1      26.256   2.734  50.538  1.00  0.00     0.010 A 
HETATM   16  C18 UNL     1      26.477   1.539  51.231  1.00  0.00     0.019 A 
HETATM   17  C19 UNL     1      25.686   1.259  52.323  1.00  0.00     0.011 A 
HETATM   18 BR1  UNL     1      25.947  -0.355  53.301  1.00  0.00    -0.051 Br
HETATM   19  C20 UNL     1      24.709   2.133  52.717  1.00  0.00     0.019 A 
HETATM   20  C21 UNL     1      24.485   3.311  52.041  1.00  0.00     0.010 A 
ENDBRANCH  12  14
ENDBRANCH  10  12
ENDBRANCH   1  10
BRANCH   9  21
HETATM   21  C9  UNL     1      19.358   1.059  50.173  1.00  0.00     0.163 C 
BRANCH  21  22
HETATM   22  C10 UNL     1      19.824   0.396  51.410  1.00  0.00    -0.040 A 
HETATM   23  C11 UNL     1      18.889  -0.168  52.259  1.00  0.00     0.011 A 
HETATM   24  C12 UNL     1      19.226  -0.800  53.421  1.00  0.00     0.037 A 
HETATM   25  C13 UNL     1      20.573  -0.888  53.782  1.00  0.00     0.065 A 
HETATM   26  C14 UNL     1      21.538  -0.340  52.965  1.00  0.00     0.037 A 
HETATM   27  C15 UNL     1      21.133   0.289  51.800  1.00  0.00     0.011 A 
BRANCH  25  28
HETATM   28  O1  UNL     1      21.004  -1.520  54.958  1.00  0.00    -0.361 OA
HETATM   29  H15 UNL     1      20.589  -1.290  55.858  1.00  0.00     0.217 HD
ENDBRANCH  25  28
ENDBRANCH  21  22
ENDBRANCH   9  21
TORSDOF 6
ENDMDL
MODEL 9
REMARK VINA RESULT:      -8.1      1.437      2.019
REMARK  6 active torsions:
REMARK  status: ('A' for Active; 'I' for Inactive)
REMARK    1  A    between atoms: C2_2  and  N1_3 
REMARK    2  A    between atoms: C2_2  and  C16_21 
REMARK    3  A    between atoms: N1_3  and  C3_4 
REMARK    4  A    between atoms: N4_12  and  C9_13 
REMARK    5  A    between atoms: C9_13  and  C10_14 
REMARK    6  A    between atoms: C13_17  and  O1_18 
ROOT
HETATM    1  C3  UNL     1      22.479   2.114  50.598  1.00  0.00     0.135 A 
HETATM    2  N2  UNL     1      22.768   2.819  49.494  1.00  0.00    -0.224 NA
HETATM    3  C4  UNL     1      24.021   3.276  49.255  1.00  0.00     0.237 A 
HETATM    4  N3  UNL     1      25.022   3.027  50.140  1.00  0.00    -0.224 NA
HETATM    5  C5  UNL     1      24.751   2.323  51.252  1.00  0.00     0.137 A 
HETATM    6  C6  UNL     1      23.497   1.849  51.518  1.00  0.00     0.035 A 
HETATM    7  C7  UNL     1      23.407   1.097  52.796  1.00  0.00     0.066 C 
HETATM    8  C8  UNL     1      24.693   1.482  53.482  1.00  0.00     0.130 C 
HETATM    9  N4  UNL     1      25.524   1.885  52.363  1.00  0.00    -0.361 N 
ENDROOT
BRANCH   1  10
HETATM   10  N1  UNL     1      21.166   1.645  50.833  1.00  0.00    -0.366 N 
HETATM   11  H5  UNL     1      21.004   0.631  51.002  1.00  0.00     0.161 HD
BRANCH  10  12
HETATM   12  C2  UNL     1      20.050   2.588  50.834  1.00  0.00     0.112 C 
HETATM   13  C1  UNL     1      20.209   3.607  51.945  1.00  0.00     0.037 C 
BRANCH  12  14
HETATM   14  C16 UNL     1      18.796   1.826  51.160  1.00  0.00    -0.036 A 
HETATM   15  C17 UNL     1      19.113   0.488  51.383  1.00  0.00     0.010 A 
HETATM   16  C18 UNL     1      18.103  -0.424  51.706  1.00  0.00     0.019 A 
HETATM   17  C19 UNL     1      16.808   0.036  51.793  1.00  0.00     0.011 A 
HETATM   18 BR1  UNL     1      15.395  -1.166  52.229  1.00  0.00    -0.051 Br
HETATM   19  C20 UNL     1      16.522   1.356  51.570  1.00  0.00     0.019 A 
HETATM   20  C21 UNL     1      17.510   2.260  51.252  1.00  0.00     0.010 A 
ENDBRANCH  12  14
ENDBRANCH  10  12
ENDBRANCH   1  10
BRANCH   9  21
HETATM   21  C9  UNL     1      26.993   1.832  52.415  1.00  0.00     0.163 C 
BRANCH  21  22
HETATM   22  C10 UNL     1      27.411   0.432  52.648  1.00  0.00    -0.040 A 
HETATM   23  C11 UNL     1      28.576   0.191  53.355  1.00  0.00     0.011 A 
HETATM   24  C12 UNL     1      29.039  -1.066  53.617  1.00  0.00     0.037 A 
HETATM   25  C13 UNL     1      28.314  -2.168  53.157  1.00  0.00     0.065 A 
HETATM   26  C14 UNL     1      27.148  -1.974  52.449  1.00  0.00     0.037 A 
HETATM   27  C15 UNL     1      26.730  -0.675  52.214  1.00  0.00     0.011 A 
BRANCH  25  28
HETATM   28  O1  UNL     1      28.720  -3.492  53.384  1.00  0.00    -0.361 OA
HETATM   29  H15 UNL     1      29.093  -4.062  52.627  1.00  0.00     0.217 HD
ENDBRANCH  25  28
ENDBRANCH  21  22
ENDBRANCH   9  21
TORSDOF 6
ENDMDL
