MODEL 1
REMARK VINA RESULT:      -9.0      0.000      0.000
REMARK  5 active torsions:
REMARK  status: ('A' for Active; 'I' for Inactive)
REMARK    1  A    between atoms: N1_1  and  C1_2 
REMARK    2  A    between atoms: N2_6  and  C5_7 
REMARK    3  A    between atoms: C5_7  and  C6_8 
REMARK    4  A    between atoms: C13_19  and  N5_20 
REMARK    5  A    between atoms: N5_20  and  C14_21 
ROOT
HETATM    1  C1  UNL     1      21.549   1.015  50.993  1.00  0.00     0.103 A 
HETATM    2  C2  UNL     1      20.389   0.470  51.516  1.00  0.00     0.067 A 
HETATM    3  C3  UNL     1      20.816  -0.131  52.706  1.00  0.00     0.057 A 
HETATM    4  C4  UNL     1      22.168   0.114  52.770  1.00  0.00     0.142 A 
HETATM    5  N2  UNL     1      22.651   0.815  51.738  1.00  0.00    -0.313 N 
HETATM    6  N3  UNL     1      22.851  -0.287  53.783  1.00  0.00    -0.252 NA
HETATM    7  C12 UNL     1      22.281  -1.001  54.906  1.00  0.00     0.274 A 
HETATM    8  N4  UNL     1      20.891  -1.267  54.718  1.00  0.00    -0.357 N 
HETATM    9  C13 UNL     1      20.141  -0.770  53.635  1.00  0.00     0.117 A 
HETATM   10  H11 UNL     1      20.448  -1.851  55.439  1.00  0.00     0.162 HD
ENDROOT
BRANCH   5  11
HETATM   11  C5  UNL     1      23.901   1.349  51.301  1.00  0.00     0.172 C 
BRANCH  11  12
HETATM   12  C6  UNL     1      25.018   1.388  52.224  1.00  0.00    -0.018 A 
HETATM   13  C7  UNL     1      25.913   0.322  52.035  1.00  0.00     0.012 A 
HETATM   14  C8  UNL     1      27.071   0.083  52.741  1.00  0.00     0.024 A 
HETATM   15  C9  UNL     1      27.398   0.977  53.740  1.00  0.00     0.035 A 
HETATM   16 CL1  UNL     1      28.854   0.749  54.682  1.00  0.00    -0.084 Cl
HETATM   17  C10 UNL     1      26.547   2.050  53.970  1.00  0.00     0.048 A 
HETATM   18  C11 UNL     1      25.390   2.247  53.230  1.00  0.00     0.043 A 
HETATM   19 CL2  UNL     1      24.300   3.579  53.475  1.00  0.00    -0.084 Cl
ENDBRANCH  11  12
ENDBRANCH   5  11
BRANCH   1  20
HETATM   20  N1  UNL     1      21.436   1.694  49.757  1.00  0.00    -0.385 N 
HETATM   21  H1  UNL     1      21.212   2.412  49.096  1.00  0.00     0.157 HD
HETATM   22  H2  UNL     1      21.838   1.141  48.963  1.00  0.00     0.157 HD
ENDBRANCH   1  20
BRANCH   9  23
HETATM   23  N5  UNL     1      18.756  -0.974  53.668  1.00  0.00    -0.342 N 
HETATM   24  H12 UNL     1      18.117  -0.189  53.999  1.00  0.00     0.167 HD
BRANCH  23  25
HETATM   25  C14 UNL     1      17.741  -1.953  53.386  1.00  0.00     0.034 A 
HETATM   26  C15 UNL     1      17.673  -3.278  53.764  1.00  0.00     0.029 A 
HETATM   27  C16 UNL     1      16.621  -4.056  53.385  1.00  0.00     0.004 A 
HETATM   28  C17 UNL     1      15.625  -3.518  52.624  1.00  0.00     0.019 A 
HETATM   29  C18 UNL     1      15.616  -2.213  52.208  1.00  0.00     0.013 A 
HETATM   30 BR1  UNL     1      14.179  -1.557  51.139  1.00  0.00    -0.051 Br
HETATM   31  C19 UNL     1      16.703  -1.428  52.605  1.00  0.00     0.048 A 
ENDBRANCH  23  25
ENDBRANCH   9  23
TORSDOF 5
ENDMDL
MODEL 2
REMARK VINA RESULT:      -8.8      5.141      6.797
REMARK  5 active torsions:
REMARK  status: ('A' for Active; 'I' for Inactive)
REMARK    1  A    between atoms: N1_1  and  C1_2 
REMARK    2  A    between atoms: N2_6  and  C5_7 
REMARK    3  A    between atoms: C5_7  and  C6_8 
REMARK    4  A    between atoms: C13_19  and  N5_20 
REMARK    5  A    between atoms: N5_20  and  C14_21 
ROOT
HETATM    1  C1  UNL     1      23.848   5.879  51.201  1.00  0.00     0.103 A 
HETATM    2  C2  UNL     1      23.205   4.869  51.897  1.00  0.00     0.067 A 
HETATM    3  C3  UNL     1      22.754   4.010  50.887  1.00  0.00     0.057 A 
HETATM    4  C4  UNL     1      23.169   4.587  49.710  1.00  0.00     0.142 A 
HETATM    5  N2  UNL     1      23.843   5.732  49.864  1.00  0.00    -0.313 N 
HETATM    6  N3  UNL     1      22.935   4.006  48.587  1.00  0.00    -0.252 NA
HETATM    7  C12 UNL     1      22.243   2.739  48.465  1.00  0.00     0.274 A 
HETATM    8  N4  UNL     1      21.795   2.254  49.730  1.00  0.00    -0.357 N 
HETATM    9  C13 UNL     1      22.110   2.867  50.958  1.00  0.00     0.117 A 
HETATM   10  H11 UNL     1      21.217   1.404  49.702  1.00  0.00     0.162 HD
ENDROOT
BRANCH   5  11
HETATM   11  C5  UNL     1      24.492   6.707  49.048  1.00  0.00     0.172 C 
BRANCH  11  12
HETATM   12  C6  UNL     1      25.893   6.538  48.718  1.00  0.00    -0.018 A 
HETATM   13  C7  UNL     1      26.351   5.231  48.956  1.00  0.00     0.012 A 
HETATM   14  C8  UNL     1      27.622   4.751  48.737  1.00  0.00     0.024 A 
HETATM   15  C9  UNL     1      28.554   5.634  48.229  1.00  0.00     0.035 A 
HETATM   16 CL1  UNL     1      30.190   5.104  47.917  1.00  0.00    -0.084 Cl
HETATM   17  C10 UNL     1      28.154   6.939  47.974  1.00  0.00     0.048 A 
HETATM   18  C11 UNL     1      26.858   7.375  48.213  1.00  0.00     0.043 A 
HETATM   19 CL2  UNL     1      26.310   8.995  47.900  1.00  0.00    -0.084 Cl
ENDBRANCH  11  12
ENDBRANCH   5  11
BRANCH   1  20
HETATM   20  N1  UNL     1      24.411   6.926  51.968  1.00  0.00    -0.385 N 
HETATM   21  H1  UNL     1      24.617   7.507  52.757  1.00  0.00     0.157 HD
HETATM   22  H2  UNL     1      25.054   7.529  51.402  1.00  0.00     0.157 HD
ENDBRANCH   1  20
BRANCH   9  23
HETATM   23  N5  UNL     1      21.740   2.189  52.127  1.00  0.00    -0.342 N 
HETATM   24  H12 UNL     1      20.872   2.496  52.660  1.00  0.00     0.167 HD
BRANCH  23  25
HETATM   25  C14 UNL     1      22.127   1.101  52.984  1.00  0.00     0.034 A 
HETATM   26  C15 UNL     1      21.380   0.412  53.916  1.00  0.00     0.029 A 
HETATM   27  C16 UNL     1      21.936  -0.595  54.645  1.00  0.00     0.004 A 
HETATM   28  C17 UNL     1      23.246  -0.925  54.450  1.00  0.00     0.019 A 
HETATM   29  C18 UNL     1      24.055  -0.292  53.544  1.00  0.00     0.013 A 
HETATM   30 BR1  UNL     1      25.877  -0.822  53.351  1.00  0.00    -0.051 Br
HETATM   31  C19 UNL     1      23.469   0.740  52.805  1.00  0.00     0.048 A 
ENDBRANCH  23  25
ENDBRANCH   9  23
TORSDOF 5
ENDMDL
MODEL 3
REMARK VINA RESULT:      -8.2      4.280      6.785
REMARK  5 active torsions:
REMARK  status: ('A' for Active; 'I' for Inactive)
REMARK    1  A    between atoms: N1_1  and  C1_2 
REMARK    2  A    between atoms: N2_6  and  C5_7 
REMARK    3  A    between atoms: C5_7  and  C6_8 
REMARK    4  A    between atoms: C13_19  and  N5_20 
REMARK    5  A    between atoms: N5_20  and  C14_21 
ROOT
HETATM    1  C1  UNL     1      25.285   2.965  50.761  1.00  0.00     0.103 A 
HETATM    2  C2  UNL     1      24.498   3.044  49.625  1.00  0.00     0.067 A 
HETATM    3  C3  UNL     1      23.385   2.255  49.939  1.00  0.00     0.057 A 
HETATM    4  C4  UNL     1      23.620   1.792  51.213  1.00  0.00     0.142 A 
HETATM    5  N2  UNL     1      24.773   2.208  51.749  1.00  0.00    -0.313 N 
HETATM    6  N3  UNL     1      22.746   1.057  51.805  1.00  0.00    -0.252 NA
HETATM    7  C12 UNL     1      21.484   0.668  51.208  1.00  0.00     0.274 A 
HETATM    8  N4  UNL     1      21.363   1.139  49.866  1.00  0.00    -0.357 N 
HETATM    9  C13 UNL     1      22.297   1.993  49.251  1.00  0.00     0.117 A 
HETATM   10  H11 UNL     1      20.529   0.819  49.356  1.00  0.00     0.162 HD
ENDROOT
BRANCH   5  11
HETATM   11  C5  UNL     1      25.493   2.069  52.973  1.00  0.00     0.172 C 
BRANCH  11  12
HETATM   12  C6  UNL     1      26.516   1.047  53.084  1.00  0.00    -0.018 A 
HETATM   13  C7  UNL     1      26.015  -0.246  52.860  1.00  0.00     0.012 A 
HETATM   14  C8  UNL     1      26.729  -1.422  52.884  1.00  0.00     0.024 A 
HETATM   15  C9  UNL     1      28.081  -1.336  53.153  1.00  0.00     0.035 A 
HETATM   16 CL1  UNL     1      29.062  -2.781  53.199  1.00  0.00    -0.084 Cl
HETATM   17  C10 UNL     1      28.628  -0.080  53.383  1.00  0.00     0.048 A 
HETATM   18  C11 UNL     1      27.863   1.077  53.347  1.00  0.00     0.043 A 
HETATM   19 CL2  UNL     1      28.507   2.670  53.617  1.00  0.00    -0.084 Cl
ENDBRANCH  11  12
ENDBRANCH   5  11
BRANCH   1  20
HETATM   20  N1  UNL     1      26.512   3.668  50.740  1.00  0.00    -0.385 N 
HETATM   21  H1  UNL     1      27.419   3.984  51.023  1.00  0.00     0.157 HD
HETATM   22  H2  UNL     1      26.606   4.275  49.891  1.00  0.00     0.157 HD
ENDBRANCH   1  20
BRANCH   9  23
HETATM   23  N5  UNL     1      21.965   2.504  47.990  1.00  0.00    -0.342 N 
HETATM   24  H12 UNL     1      21.633   1.843  47.225  1.00  0.00     0.167 HD
BRANCH  23  25
HETATM   25  C14 UNL     1      21.885   3.731  47.243  1.00  0.00     0.034 A 
HETATM   26  C15 UNL     1      21.973   3.934  45.882  1.00  0.00     0.029 A 
HETATM   27  C16 UNL     1      21.881   5.189  45.359  1.00  0.00     0.004 A 
HETATM   28  C17 UNL     1      21.701   6.255  46.192  1.00  0.00     0.019 A 
HETATM   29  C18 UNL     1      21.603   6.138  47.554  1.00  0.00     0.013 A 
HETATM   30 BR1  UNL     1      21.360   7.691  48.634  1.00  0.00    -0.051 Br
HETATM   31  C19 UNL     1      21.700   4.844  48.073  1.00  0.00     0.048 A 
ENDBRANCH  23  25
ENDBRANCH   9  23
TORSDOF 5
ENDMDL
MODEL 4
REMARK VINA RESULT:      -8.2      5.440      9.453
REMARK  5 active torsions:
REMARK  status: ('A' for Active; 'I' for Inactive)
REMARK    1  A    between atoms: N1_1  and  C1_2 
REMARK    2  A    between atoms: N2_6  and  C5_7 
REMARK    3  A    between atoms: C5_7  and  C6_8 
REMARK    4  A    between atoms: C13_19  and  N5_20 
REMARK    5  A    between atoms: N5_20  and  C14_21 
ROOT
HETATM    1  C1  UNL     1      25.920   1.342  51.663  1.00  0.00     0.103 A 
HETATM    2  C2  UNL     1      26.065   2.313  50.687  1.00  0.00     0.067 A 
HETATM    3  C3  UNL     1      25.116   3.280  51.040  1.00  0.00     0.057 A 
HETATM    4  C4  UNL     1      24.511   2.793  52.174  1.00  0.00     0.142 A 
HETATM    5  N2  UNL     1      24.978   1.609  52.586  1.00  0.00    -0.313 N 
HETATM    6  N3  UNL     1      23.603   3.483  52.771  1.00  0.00    -0.252 NA
HETATM    7  C12 UNL     1      23.158   4.786  52.320  1.00  0.00     0.274 A 
HETATM    8  N4  UNL     1      23.794   5.175  51.103  1.00  0.00    -0.357 N 
HETATM    9  C13 UNL     1      24.828   4.439  50.494  1.00  0.00     0.117 A 
HETATM   10  H11 UNL     1      23.454   6.049  50.682  1.00  0.00     0.162 HD
ENDROOT
BRANCH   5  11
HETATM   11  C5  UNL     1      24.754   0.683  53.649  1.00  0.00     0.172 C 
BRANCH  11  12
HETATM   12  C6  UNL     1      23.452   0.062  53.788  1.00  0.00    -0.018 A 
HETATM   13  C7  UNL     1      22.542   0.488  52.806  1.00  0.00     0.012 A 
HETATM   14  C8  UNL     1      21.236   0.080  52.660  1.00  0.00     0.024 A 
HETATM   15  C9  UNL     1      20.758  -0.846  53.565  1.00  0.00     0.035 A 
HETATM   16 CL1  UNL     1      19.111  -1.421  53.449  1.00  0.00    -0.084 Cl
HETATM   17  C10 UNL     1      21.616  -1.302  54.558  1.00  0.00     0.048 A 
HETATM   18  C11 UNL     1      22.927  -0.858  54.662  1.00  0.00     0.043 A 
HETATM   19 CL2  UNL     1      24.039  -1.407  55.880  1.00  0.00    -0.084 Cl
ENDBRANCH  11  12
ENDBRANCH   5  11
BRANCH   1  20
HETATM   20  N1  UNL     1      26.756   0.206  51.565  1.00  0.00    -0.385 N 
HETATM   21  H1  UNL     1      27.210  -0.596  51.173  1.00  0.00     0.157 HD
HETATM   22  H2  UNL     1      27.290   0.030  52.450  1.00  0.00     0.157 HD
ENDBRANCH   1  20
BRANCH   9  23
HETATM   23  N5  UNL     1      25.468   5.025  49.394  1.00  0.00    -0.342 N 
HETATM   24  H12 UNL     1      24.916   5.217  48.505  1.00  0.00     0.167 HD
BRANCH  23  25
HETATM   25  C14 UNL     1      26.740   5.533  48.953  1.00  0.00     0.034 A 
HETATM   26  C15 UNL     1      27.877   4.846  48.583  1.00  0.00     0.029 A 
HETATM   27  C16 UNL     1      28.999   5.515  48.200  1.00  0.00     0.004 A 
HETATM   28  C17 UNL     1      28.998   6.880  48.183  1.00  0.00     0.019 A 
HETATM   29  C18 UNL     1      27.911   7.636  48.534  1.00  0.00     0.013 A 
HETATM   30 BR1  UNL     1      28.011   9.541  48.484  1.00  0.00    -0.051 Br
HETATM   31  C19 UNL     1      26.767   6.933  48.925  1.00  0.00     0.048 A 
ENDBRANCH  23  25
ENDBRANCH   9  23
TORSDOF 5
ENDMDL
MODEL 5
REMARK VINA RESULT:      -8.0      6.203     10.500
REMARK  5 active torsions:
REMARK  status: ('A' for Active; 'I' for Inactive)
REMARK    1  A    between atoms: N1_1  and  C1_2 
REMARK    2  A    between atoms: N2_6  and  C5_7 
REMARK    3  A    between atoms: C5_7  and  C6_8 
REMARK    4  A    between atoms: C13_19  and  N5_20 
REMARK    5  A    between atoms: N5_20  and  C14_21 
ROOT
HETATM    1  C1  UNL     1      25.885   2.460  51.330  1.00  0.00     0.103 A 
HETATM    2  C2  UNL     1      26.469   3.159  50.286  1.00  0.00     0.067 A 
HETATM    3  C3  UNL     1      25.708   4.331  50.208  1.00  0.00     0.057 A 
HETATM    4  C4  UNL     1      24.762   4.213  51.200  1.00  0.00     0.142 A 
HETATM    5  N2  UNL     1      24.841   3.080  51.907  1.00  0.00    -0.313 N 
HETATM    6  N3  UNL     1      23.922   5.164  51.408  1.00  0.00    -0.252 NA
HETATM    7  C12 UNL     1      23.899   6.399  50.651  1.00  0.00     0.274 A 
HETATM    8  N4  UNL     1      24.871   6.400  49.605  1.00  0.00    -0.357 N 
HETATM    9  C13 UNL     1      25.824   5.380  49.426  1.00  0.00     0.117 A 
HETATM   10  H11 UNL     1      24.845   7.210  48.973  1.00  0.00     0.162 HD
ENDROOT
BRANCH   5  11
HETATM   11  C5  UNL     1      24.173   2.458  53.004  1.00  0.00     0.172 C 
BRANCH  11  12
HETATM   12  C6  UNL     1      23.001   1.643  52.752  1.00  0.00    -0.018 A 
HETATM   13  C7  UNL     1      21.904   2.397  52.305  1.00  0.00     0.012 A 
HETATM   14  C8  UNL     1      20.656   1.920  51.973  1.00  0.00     0.024 A 
HETATM   15  C9  UNL     1      20.449   0.560  52.085  1.00  0.00     0.035 A 
HETATM   16 CL1  UNL     1      18.894  -0.129  51.679  1.00  0.00    -0.084 Cl
HETATM   17  C10 UNL     1      21.501  -0.234  52.523  1.00  0.00     0.048 A 
HETATM   18  C11 UNL     1      22.742   0.297  52.846  1.00  0.00     0.043 A 
HETATM   19 CL2  UNL     1      24.091  -0.657  53.388  1.00  0.00    -0.084 Cl
ENDBRANCH  11  12
ENDBRANCH   5  11
BRANCH   1  20
HETATM   20  N1  UNL     1      26.443   1.199  51.646  1.00  0.00    -0.385 N 
HETATM   21  H1  UNL     1      27.120   0.510  51.910  1.00  0.00     0.157 HD
HETATM   22  H2  UNL     1      25.732   0.429  51.600  1.00  0.00     0.157 HD
ENDBRANCH   1  20
BRANCH   9  23
HETATM   23  N5  UNL     1      26.818   5.594  48.461  1.00  0.00    -0.342 N 
HETATM   24  H12 UNL     1      26.724   5.143  47.502  1.00  0.00     0.167 HD
BRANCH  23  25
HETATM   25  C14 UNL     1      28.065   6.276  48.242  1.00  0.00     0.034 A 
HETATM   26  C15 UNL     1      28.316   7.628  48.132  1.00  0.00     0.029 A 
HETATM   27  C16 UNL     1      29.580   8.085  47.913  1.00  0.00     0.004 A 
HETATM   28  C17 UNL     1      30.608   7.194  47.802  1.00  0.00     0.019 A 
HETATM   29  C18 UNL     1      30.444   5.838  47.900  1.00  0.00     0.013 A 
HETATM   30 BR1  UNL     1      31.946   4.675  47.722  1.00  0.00    -0.051 Br
HETATM   31  C19 UNL     1      29.140   5.387  48.124  1.00  0.00     0.048 A 
ENDBRANCH  23  25
ENDBRANCH   9  23
TORSDOF 5
ENDMDL
MODEL 6
REMARK VINA RESULT:      -8.0      2.205      3.199
REMARK  5 active torsions:
REMARK  status: ('A' for Active; 'I' for Inactive)
REMARK    1  A    between atoms: N1_1  and  C1_2 
REMARK    2  A    between atoms: N2_6  and  C5_7 
REMARK    3  A    between atoms: C5_7  and  C6_8 
REMARK    4  A    between atoms: C13_19  and  N5_20 
REMARK    5  A    between atoms: N5_20  and  C14_21 
ROOT
HETATM    1  C1  UNL     1      20.630   0.997  50.567  1.00  0.00     0.103 A 
HETATM    2  C2  UNL     1      19.622   0.347  51.259  1.00  0.00     0.067 A 
HETATM    3  C3  UNL     1      20.245  -0.059  52.445  1.00  0.00     0.057 A 
HETATM    4  C4  UNL     1      21.542   0.385  52.340  1.00  0.00     0.142 A 
HETATM    5  N2  UNL     1      21.814   1.037  51.204  1.00  0.00    -0.313 N 
HETATM    6  N3  UNL     1      22.370   0.195  53.306  1.00  0.00    -0.252 NA
HETATM    7  C12 UNL     1      22.024  -0.475  54.543  1.00  0.00     0.274 A 
HETATM    8  N4  UNL     1      20.681  -0.956  54.530  1.00  0.00    -0.357 N 
HETATM    9  C13 UNL     1      19.766  -0.689  53.494  1.00  0.00     0.117 A 
HETATM   10  H11 UNL     1      20.402  -1.520  55.343  1.00  0.00     0.162 HD
ENDROOT
BRANCH   5  11
HETATM   11  C5  UNL     1      22.920   1.697  50.590  1.00  0.00     0.172 C 
BRANCH  11  12
HETATM   12  C6  UNL     1      23.128   3.111  50.835  1.00  0.00    -0.018 A 
HETATM   13  C7  UNL     1      22.673   3.916  49.778  1.00  0.00     0.012 A 
HETATM   14  C8  UNL     1      22.719   5.290  49.710  1.00  0.00     0.024 A 
HETATM   15  C9  UNL     1      23.264   5.959  50.787  1.00  0.00     0.035 A 
HETATM   16 CL1  UNL     1      23.357   7.705  50.784  1.00  0.00    -0.084 Cl
HETATM   17  C10 UNL     1      23.731   5.211  51.861  1.00  0.00     0.048 A 
HETATM   18  C11 UNL     1      23.662   3.825  51.881  1.00  0.00     0.043 A 
HETATM   19 CL2  UNL     1      24.222   2.848  53.205  1.00  0.00    -0.084 Cl
ENDBRANCH  11  12
ENDBRANCH   5  11
BRANCH   1  20
HETATM   20  N1  UNL     1      20.299   1.520  49.295  1.00  0.00    -0.385 N 
HETATM   21  H1  UNL     1      20.411   1.943  48.395  1.00  0.00     0.157 HD
HETATM   22  H2  UNL     1      19.275   1.437  49.087  1.00  0.00     0.157 HD
ENDBRANCH   1  20
BRANCH   9  23
HETATM   23  N5  UNL     1      18.438  -1.086  53.693  1.00  0.00    -0.342 N 
HETATM   24  H12 UNL     1      17.782  -0.465  54.256  1.00  0.00     0.167 HD
BRANCH  23  25
HETATM   25  C14 UNL     1      17.504  -2.137  53.386  1.00  0.00     0.034 A 
HETATM   26  C15 UNL     1      17.532  -3.467  53.751  1.00  0.00     0.029 A 
HETATM   27  C16 UNL     1      16.548  -4.318  53.350  1.00  0.00     0.004 A 
HETATM   28  C17 UNL     1      15.525  -3.849  52.578  1.00  0.00     0.019 A 
HETATM   29  C18 UNL     1      15.423  -2.544  52.174  1.00  0.00     0.013 A 
HETATM   30 BR1  UNL     1      13.955  -1.988  51.089  1.00  0.00    -0.051 Br
HETATM   31  C19 UNL     1      16.441  -1.684  52.595  1.00  0.00     0.048 A 
ENDBRANCH  23  25
ENDBRANCH   9  23
TORSDOF 5
ENDMDL
MODEL 7
REMARK VINA RESULT:      -8.0      6.441      8.858
REMARK  5 active torsions:
REMARK  status: ('A' for Active; 'I' for Inactive)
REMARK    1  A    between atoms: N1_1  and  C1_2 
REMARK    2  A    between atoms: N2_6  and  C5_7 
REMARK    3  A    between atoms: C5_7  and  C6_8 
REMARK    4  A    between atoms: C13_19  and  N5_20 
REMARK    5  A    between atoms: N5_20  and  C14_21 
ROOT
HETATM    1  C1  UNL     1      27.055   5.199  49.020  1.00  0.00     0.103 A 
HETATM    2  C2  UNL     1      26.513   4.030  49.526  1.00  0.00     0.067 A 
HETATM    3  C3  UNL     1      25.354   4.462  50.183  1.00  0.00     0.057 A 
HETATM    4  C4  UNL     1      25.325   5.825  50.002  1.00  0.00     0.142 A 
HETATM    5  N2  UNL     1      26.350   6.312  49.294  1.00  0.00    -0.313 N 
HETATM    6  N3  UNL     1      24.345   6.518  50.465  1.00  0.00    -0.252 NA
HETATM    7  C12 UNL     1      23.226   5.947  51.187  1.00  0.00     0.274 A 
HETATM    8  N4  UNL     1      23.379   4.541  51.381  1.00  0.00    -0.357 N 
HETATM    9  C13 UNL     1      24.424   3.785  50.817  1.00  0.00     0.117 A 
HETATM   10  H11 UNL     1      22.663   4.091  51.965  1.00  0.00     0.162 HD
ENDROOT
BRANCH   5  11
HETATM   11  C5  UNL     1      26.809   7.572  48.806  1.00  0.00     0.172 C 
BRANCH  11  12
HETATM   12  C6  UNL     1      26.610   7.908  47.410  1.00  0.00    -0.018 A 
HETATM   13  C7  UNL     1      25.255   7.900  47.039  1.00  0.00     0.012 A 
HETATM   14  C8  UNL     1      24.739   8.183  45.796  1.00  0.00     0.024 A 
HETATM   15  C9  UNL     1      25.636   8.514  44.799  1.00  0.00     0.035 A 
HETATM   16 CL1  UNL     1      25.064   8.893  43.191  1.00  0.00    -0.084 Cl
HETATM   17  C10 UNL     1      26.989   8.538  45.112  1.00  0.00     0.048 A 
HETATM   18  C11 UNL     1      27.459   8.243  46.384  1.00  0.00     0.043 A 
HETATM   19 CL2  UNL     1      29.141   8.270  46.823  1.00  0.00    -0.084 Cl
ENDBRANCH  11  12
ENDBRANCH   5  11
BRANCH   1  20
HETATM   20  N1  UNL     1      28.267   5.082  48.299  1.00  0.00    -0.385 N 
HETATM   21  H1  UNL     1      29.165   4.739  48.019  1.00  0.00     0.157 HD
HETATM   22  H2  UNL     1      28.337   5.788  47.527  1.00  0.00     0.157 HD
ENDBRANCH   1  20
BRANCH   9  23
HETATM   23  N5  UNL     1      24.355   2.393  50.956  1.00  0.00    -0.342 N 
HETATM   24  H12 UNL     1      23.867   1.813  50.209  1.00  0.00     0.167 HD
BRANCH  23  25
HETATM   25  C14 UNL     1      24.744   1.314  51.825  1.00  0.00     0.034 A 
HETATM   26  C15 UNL     1      25.978   0.719  51.984  1.00  0.00     0.029 A 
HETATM   27  C16 UNL     1      26.145  -0.309  52.862  1.00  0.00     0.004 A 
HETATM   28  C17 UNL     1      25.081  -0.754  53.590  1.00  0.00     0.019 A 
HETATM   29  C18 UNL     1      23.824  -0.218  53.491  1.00  0.00     0.013 A 
HETATM   30 BR1  UNL     1      22.398  -0.917  54.548  1.00  0.00    -0.051 Br
HETATM   31  C19 UNL     1      23.669   0.836  52.586  1.00  0.00     0.048 A 
ENDBRANCH  23  25
ENDBRANCH   9  23
TORSDOF 5
ENDMDL
MODEL 8
REMARK VINA RESULT:      -7.9      6.623     10.356
REMARK  5 active torsions:
REMARK  status: ('A' for Active; 'I' for Inactive)
REMARK    1  A    between atoms: N1_1  and  C1_2 
REMARK    2  A    between atoms: N2_6  and  C5_7 
REMARK    3  A    between atoms: C5_7  and  C6_8 
REMARK    4  A    between atoms: C13_19  and  N5_20 
REMARK    5  A    between atoms: N5_20  and  C14_21 
ROOT
HETATM    1  C1  UNL     1      25.430   4.076  49.812  1.00  0.00     0.103 A 
HETATM    2  C2  UNL     1      25.740   5.420  49.931  1.00  0.00     0.067 A 
HETATM    3  C3  UNL     1      24.534   6.001  50.342  1.00  0.00     0.057 A 
HETATM    4  C4  UNL     1      23.641   4.958  50.424  1.00  0.00     0.142 A 
HETATM    5  N2  UNL     1      24.155   3.764  50.108  1.00  0.00    -0.313 N 
HETATM    6  N3  UNL     1      22.435   5.168  50.818  1.00  0.00    -0.252 NA
HETATM    7  C12 UNL     1      21.929   6.471  51.200  1.00  0.00     0.274 A 
HETATM    8  N4  UNL     1      22.906   7.496  51.018  1.00  0.00    -0.357 N 
HETATM    9  C13 UNL     1      24.240   7.245  50.645  1.00  0.00     0.117 A 
HETATM   10  H11 UNL     1      22.580   8.457  51.184  1.00  0.00     0.162 HD
ENDROOT
BRANCH   5  11
HETATM   11  C5  UNL     1      23.729   2.404  50.034  1.00  0.00     0.172 C 
BRANCH  11  12
HETATM   12  C6  UNL     1      23.424   1.688  51.257  1.00  0.00    -0.018 A 
HETATM   13  C7  UNL     1      22.047   1.645  51.530  1.00  0.00     0.012 A 
HETATM   14  C8  UNL     1      21.438   1.036  52.604  1.00  0.00     0.024 A 
HETATM   15  C9  UNL     1      22.254   0.396  53.514  1.00  0.00     0.035 A 
HETATM   16 CL1  UNL     1      21.561  -0.407  54.904  1.00  0.00    -0.084 Cl
HETATM   17  C10 UNL     1      23.625   0.407  53.293  1.00  0.00     0.048 A 
HETATM   18  C11 UNL     1      24.191   1.036  52.192  1.00  0.00     0.043 A 
HETATM   19 CL2  UNL     1      25.899   1.067  51.869  1.00  0.00    -0.084 Cl
ENDBRANCH  11  12
ENDBRANCH   5  11
BRANCH   1  20
HETATM   20  N1  UNL     1      26.469   3.215  49.391  1.00  0.00    -0.385 N 
HETATM   21  H1  UNL     1      26.951   2.506  48.872  1.00  0.00     0.157 HD
HETATM   22  H2  UNL     1      27.354   3.367  49.932  1.00  0.00     0.157 HD
ENDBRANCH   1  20
BRANCH   9  23
HETATM   23  N5  UNL     1      25.126   8.330  50.664  1.00  0.00    -0.342 N 
HETATM   24  H12 UNL     1      25.398   8.769  51.595  1.00  0.00     0.167 HD
BRANCH  23  25
HETATM   25  C14 UNL     1      25.908   9.178  49.805  1.00  0.00     0.034 A 
HETATM   26  C15 UNL     1      25.491  10.107  48.876  1.00  0.00     0.029 A 
HETATM   27  C16 UNL     1      26.396  10.813  48.144  1.00  0.00     0.004 A 
HETATM   28  C17 UNL     1      27.731  10.598  48.334  1.00  0.00     0.019 A 
HETATM   29  C18 UNL     1      28.227   9.696  49.237  1.00  0.00     0.013 A 
HETATM   30 BR1  UNL     1      30.112   9.463  49.422  1.00  0.00    -0.051 Br
HETATM   31  C19 UNL     1      27.284   8.979  49.979  1.00  0.00     0.048 A 
ENDBRANCH  23  25
ENDBRANCH   9  23
TORSDOF 5
ENDMDL
MODEL 9
REMARK VINA RESULT:      -7.8      7.683     11.690
REMARK  5 active torsions:
REMARK  status: ('A' for Active; 'I' for Inactive)
REMARK    1  A    between atoms: N1_1  and  C1_2 
REMARK    2  A    between atoms: N2_6  and  C5_7 
REMARK    3  A    between atoms: C5_7  and  C6_8 
REMARK    4  A    between atoms: C13_19  and  N5_20 
REMARK    5  A    between atoms: N5_20  and  C14_21 
ROOT
HETATM    1  C1  UNL     1      23.594   6.892  50.608  1.00  0.00     0.103 A 
HETATM    2  C2  UNL     1      24.624   7.818  50.601  1.00  0.00     0.067 A 
HETATM    3  C3  UNL     1      25.677   7.134  49.982  1.00  0.00     0.057 A 
HETATM    4  C4  UNL     1      25.174   5.889  49.686  1.00  0.00     0.142 A 
HETATM    5  N2  UNL     1      23.901   5.705  50.054  1.00  0.00    -0.313 N 
HETATM    6  N3  UNL     1      25.902   5.027  49.069  1.00  0.00    -0.252 NA
HETATM    7  C12 UNL     1      27.263   5.281  48.643  1.00  0.00     0.274 A 
HETATM    8  N4  UNL     1      27.717   6.571  49.052  1.00  0.00    -0.357 N 
HETATM    9  C13 UNL     1      26.892   7.528  49.673  1.00  0.00     0.117 A 
HETATM   10  H11 UNL     1      28.706   6.777  48.860  1.00  0.00     0.162 HD
ENDROOT
BRANCH   5  11
HETATM   11  C5  UNL     1      22.908   4.682  49.992  1.00  0.00     0.172 C 
BRANCH  11  12
HETATM   12  C6  UNL     1      23.116   3.446  50.721  1.00  0.00    -0.018 A 
HETATM   13  C7  UNL     1      23.704   3.653  51.980  1.00  0.00     0.012 A 
HETATM   14  C8  UNL     1      24.019   2.690  52.911  1.00  0.00     0.024 A 
HETATM   15  C9  UNL     1      23.731   1.379  52.588  1.00  0.00     0.035 A 
HETATM   16 CL1  UNL     1      24.095   0.094  53.715  1.00  0.00    -0.084 Cl
HETATM   17  C10 UNL     1      23.148   1.117  51.354  1.00  0.00     0.048 A 
HETATM   18  C11 UNL     1      22.850   2.126  50.449  1.00  0.00     0.043 A 
HETATM   19 CL2  UNL     1      22.111   1.848  48.900  1.00  0.00    -0.084 Cl
ENDBRANCH  11  12
ENDBRANCH   5  11
BRANCH   1  20
HETATM   20  N1  UNL     1      22.373   7.298  51.194  1.00  0.00    -0.385 N 
HETATM   21  H1  UNL     1      21.734   7.775  51.800  1.00  0.00     0.157 HD
HETATM   22  H2  UNL     1      21.545   6.841  50.742  1.00  0.00     0.157 HD
ENDBRANCH   1  20
BRANCH   9  23
HETATM   23  N5  UNL     1      27.429   8.807  49.869  1.00  0.00    -0.342 N 
HETATM   24  H12 UNL     1      26.969   9.469  50.564  1.00  0.00     0.167 HD
BRANCH  23  25
HETATM   25  C14 UNL     1      28.496   9.672  49.444  1.00  0.00     0.034 A 
HETATM   26  C15 UNL     1      29.857   9.447  49.440  1.00  0.00     0.029 A 
HETATM   27  C16 UNL     1      30.719  10.406  49.002  1.00  0.00     0.004 A 
HETATM   28  C17 UNL     1      30.229  11.602  48.562  1.00  0.00     0.019 A 
HETATM   29  C18 UNL     1      28.894  11.903  48.531  1.00  0.00     0.013 A 
HETATM   30 BR1  UNL     1      28.310  13.608  47.904  1.00  0.00    -0.051 Br
HETATM   31  C19 UNL     1      28.023  10.908  48.985  1.00  0.00     0.048 A 
ENDBRANCH  23  25
ENDBRANCH   9  23
TORSDOF 5
ENDMDL
