MODEL 1
REMARK VINA RESULT:      -7.7      0.000      0.000
REMARK  4 active torsions:
REMARK  status: ('A' for Active; 'I' for Inactive)
REMARK    1  A    between atoms: P1_2  and  C1_3 
REMARK    2  A    between atoms: C4_7  and  S1_8 
REMARK    3  A    between atoms: S1_8  and  N2_9 
REMARK    4  A    between atoms: N2_9  and  C5_10 
ROOT
HETATM    1  C1  UNL     1      28.629   7.703  48.515  1.00  0.00     0.003 C 
HETATM    2  C2  UNL     1      27.348   7.843  48.799  1.00  0.00     0.018 C 
HETATM    3  C3  UNL     1      26.804   6.588  48.322  1.00  0.00     0.142 A 
HETATM    4  N1  UNL     1      25.728   5.910  48.970  1.00  0.00    -0.371 N 
HETATM    5  C4  UNL     1      26.522   4.726  49.199  1.00  0.00     0.096 A 
HETATM    6  C11 UNL     1      27.528   5.374  48.603  1.00  0.00     0.003 A 
HETATM    7  C12 UNL     1      28.950   5.330  48.233  1.00  0.00     0.013 C 
HETATM    8  C13 UNL     1      29.518   6.559  48.207  1.00  0.00     0.015 C 
HETATM    9  H3  UNL     1      24.720   6.099  49.232  1.00  0.00     0.161 HD
ENDROOT
BRANCH   5  10
HETATM   10  S1  UNL     1      26.247   3.130  49.947  1.00  0.00     0.004 SA
BRANCH  10  11
HETATM   11  N2  UNL     1      26.663   3.098  51.630  1.00  0.00    -0.325 N 
HETATM   12  H4  UNL     1      26.392   4.006  52.069  1.00  0.00     0.174 HD
BRANCH  11  13
HETATM   13  C5  UNL     1      27.277   2.027  52.334  1.00  0.00     0.040 A 
HETATM   14  C6  UNL     1      28.277   2.346  53.229  1.00  0.00     0.033 A 
HETATM   15  C7  UNL     1      28.848   1.282  53.893  1.00  0.00     0.046 A 
HETATM   16  C8  UNL     1      28.428  -0.012  53.660  1.00  0.00     0.138 A 
HETATM   17  F1  UNL     1      28.940  -1.105  54.272  1.00  0.00    -0.204 F 
HETATM   18  C9  UNL     1      27.412  -0.276  52.743  1.00  0.00     0.074 A 
HETATM   19 CL1  UNL     1      26.833  -1.914  52.404  1.00  0.00    -0.081 Cl
HETATM   20  C10 UNL     1      26.812   0.757  52.056  1.00  0.00     0.057 A 
ENDBRANCH  11  13
ENDBRANCH  10  11
ENDBRANCH   5  10
BRANCH   1  21
HETATM   21  P1  UNL     1      29.753   9.135  48.925  1.00  0.00     0.161 P 
HETATM   22  O1  UNL     1      31.277   9.002  48.836  1.00  0.00    -0.198 OA
ENDBRANCH   1  21
TORSDOF 4
ENDMDL
MODEL 2
REMARK VINA RESULT:      -7.6      2.065      2.468
REMARK  4 active torsions:
REMARK  status: ('A' for Active; 'I' for Inactive)
REMARK    1  A    between atoms: P1_2  and  C1_3 
REMARK    2  A    between atoms: C4_7  and  S1_8 
REMARK    3  A    between atoms: S1_8  and  N2_9 
REMARK    4  A    between atoms: N2_9  and  C5_10 
ROOT
HETATM    1  C1  UNL     1      26.149   5.828  48.778  1.00  0.00     0.003 C 
HETATM    2  C2  UNL     1      24.937   6.075  49.238  1.00  0.00     0.018 C 
HETATM    3  C3  UNL     1      24.478   4.745  49.584  1.00  0.00     0.142 A 
HETATM    4  N1  UNL     1      23.640   4.478  50.707  1.00  0.00    -0.371 N 
HETATM    5  C4  UNL     1      24.608   3.590  51.305  1.00  0.00     0.096 A 
HETATM    6  C11 UNL     1      25.392   3.856  50.257  1.00  0.00     0.003 A 
HETATM    7  C12 UNL     1      26.713   3.651  49.646  1.00  0.00     0.013 C 
HETATM    8  C13 UNL     1      27.104   4.701  48.886  1.00  0.00     0.015 C 
HETATM    9  H3  UNL     1      22.682   4.760  51.062  1.00  0.00     0.161 HD
ENDROOT
BRANCH   5  10
HETATM   10  S1  UNL     1      24.684   2.598  52.786  1.00  0.00     0.004 SA
BRANCH  10  11
HETATM   11  N2  UNL     1      26.271   2.561  53.486  1.00  0.00    -0.325 N 
HETATM   12  H4  UNL     1      26.459   3.472  53.960  1.00  0.00     0.174 HD
BRANCH  11  13
HETATM   13  C5  UNL     1      27.194   1.482  53.443  1.00  0.00     0.040 A 
HETATM   14  C6  UNL     1      28.492   1.742  53.831  1.00  0.00     0.033 A 
HETATM   15  C7  UNL     1      29.360   0.672  53.776  1.00  0.00     0.046 A 
HETATM   16  C8  UNL     1      28.931  -0.571  53.357  1.00  0.00     0.138 A 
HETATM   17  F1  UNL     1      29.722  -1.667  53.277  1.00  0.00    -0.204 F 
HETATM   18  C9  UNL     1      27.607  -0.777  52.977  1.00  0.00     0.074 A 
HETATM   19 CL1  UNL     1      27.001  -2.348  52.431  1.00  0.00    -0.081 Cl
HETATM   20  C10 UNL     1      26.704   0.264  53.015  1.00  0.00     0.057 A 
ENDBRANCH  11  13
ENDBRANCH  10  11
ENDBRANCH   5  10
BRANCH   1  21
HETATM   21  P1  UNL     1      27.136   7.284  48.158  1.00  0.00     0.161 P 
HETATM   22  O1  UNL     1      27.957   8.156  49.114  1.00  0.00    -0.198 OA
ENDBRANCH   1  21
TORSDOF 4
ENDMDL
MODEL 3
REMARK VINA RESULT:      -7.4      2.296      2.880
REMARK  4 active torsions:
REMARK  status: ('A' for Active; 'I' for Inactive)
REMARK    1  A    between atoms: P1_2  and  C1_3 
REMARK    2  A    between atoms: C4_7  and  S1_8 
REMARK    3  A    between atoms: S1_8  and  N2_9 
REMARK    4  A    between atoms: N2_9  and  C5_10 
ROOT
HETATM    1  C1  UNL     1      26.771   5.682  48.620  1.00  0.00     0.003 C 
HETATM    2  C2  UNL     1      25.648   6.357  48.772  1.00  0.00     0.018 C 
HETATM    3  C3  UNL     1      24.713   5.299  49.096  1.00  0.00     0.142 A 
HETATM    4  N1  UNL     1      23.633   5.468  50.013  1.00  0.00    -0.371 N 
HETATM    5  C4  UNL     1      24.113   4.416  50.878  1.00  0.00     0.096 A 
HETATM    6  C11 UNL     1      25.127   4.273  50.020  1.00  0.00     0.003 A 
HETATM    7  C12 UNL     1      26.395   3.582  49.744  1.00  0.00     0.013 C 
HETATM    8  C13 UNL     1      27.253   4.340  49.021  1.00  0.00     0.015 C 
HETATM    9  H3  UNL     1      22.776   6.081  50.120  1.00  0.00     0.161 HD
ENDROOT
BRANCH   5  10
HETATM   10  S1  UNL     1      23.566   3.669  52.403  1.00  0.00     0.004 SA
BRANCH  10  11
HETATM   11  N2  UNL     1      24.883   3.156  53.408  1.00  0.00    -0.325 N 
HETATM   12  H4  UNL     1      25.005   3.840  54.188  1.00  0.00     0.174 HD
BRANCH  11  13
HETATM   13  C5  UNL     1      25.688   1.999  53.231  1.00  0.00     0.040 A 
HETATM   14  C6  UNL     1      25.105   0.908  52.622  1.00  0.00     0.033 A 
HETATM   15  C7  UNL     1      25.916  -0.196  52.468  1.00  0.00     0.046 A 
HETATM   16  C8  UNL     1      27.226  -0.184  52.903  1.00  0.00     0.138 A 
HETATM   17  F1  UNL     1      28.081  -1.227  52.787  1.00  0.00    -0.204 F 
HETATM   18  C9  UNL     1      27.763   0.947  53.513  1.00  0.00     0.074 A 
HETATM   19 CL1  UNL     1      29.434   1.020  54.091  1.00  0.00    -0.081 Cl
HETATM   20  C10 UNL     1      26.989   2.075  53.689  1.00  0.00     0.057 A 
ENDBRANCH  11  13
ENDBRANCH  10  11
ENDBRANCH   5  10
BRANCH   1  21
HETATM   21  P1  UNL     1      28.289   6.655  48.141  1.00  0.00     0.161 P 
HETATM   22  O1  UNL     1      29.583   5.954  47.714  1.00  0.00    -0.198 OA
ENDBRANCH   1  21
TORSDOF 4
ENDMDL
MODEL 4
REMARK VINA RESULT:      -7.4      5.145      7.580
REMARK  4 active torsions:
REMARK  status: ('A' for Active; 'I' for Inactive)
REMARK    1  A    between atoms: P1_2  and  C1_3 
REMARK    2  A    between atoms: C4_7  and  S1_8 
REMARK    3  A    between atoms: S1_8  and  N2_9 
REMARK    4  A    between atoms: N2_9  and  C5_10 
ROOT
HETATM    1  C1  UNL     1      26.342   0.578  54.058  1.00  0.00     0.003 C 
HETATM    2  C2  UNL     1      25.631  -0.525  53.923  1.00  0.00     0.018 C 
HETATM    3  C3  UNL     1      24.282   0.000  53.877  1.00  0.00     0.142 A 
HETATM    4  N1  UNL     1      23.253  -0.567  53.067  1.00  0.00    -0.371 N 
HETATM    5  C4  UNL     1      23.056   0.661  52.335  1.00  0.00     0.096 A 
HETATM    6  C11 UNL     1      24.030   1.181  53.089  1.00  0.00     0.003 A 
HETATM    7  C12 UNL     1      24.881   2.354  53.333  1.00  0.00     0.013 C 
HETATM    8  C13 UNL     1      26.097   2.021  53.827  1.00  0.00     0.015 C 
HETATM    9  H3  UNL     1      22.756  -1.497  52.958  1.00  0.00     0.161 HD
ENDROOT
BRANCH   5  10
HETATM   10  S1  UNL     1      21.982   1.204  51.019  1.00  0.00     0.004 SA
BRANCH  10  11
HETATM   11  N2  UNL     1      22.810   2.150  49.825  1.00  0.00    -0.325 N 
HETATM   12  H4  UNL     1      22.705   1.694  48.892  1.00  0.00     0.174 HD
BRANCH  11  13
HETATM   13  C5  UNL     1      23.527   3.358  50.043  1.00  0.00     0.040 A 
HETATM   14  C6  UNL     1      22.915   4.330  50.806  1.00  0.00     0.033 A 
HETATM   15  C7  UNL     1      23.640   5.487  50.997  1.00  0.00     0.046 A 
HETATM   16  C8  UNL     1      24.898   5.638  50.448  1.00  0.00     0.138 A 
HETATM   17  F1  UNL     1      25.668   6.741  50.591  1.00  0.00    -0.204 F 
HETATM   18  C9  UNL     1      25.468   4.621  49.685  1.00  0.00     0.074 A 
HETATM   19 CL1  UNL     1      27.075   4.758  48.957  1.00  0.00    -0.081 Cl
HETATM   20  C10 UNL     1      24.779   3.447  49.468  1.00  0.00     0.057 A 
ENDBRANCH  11  13
ENDBRANCH  10  11
ENDBRANCH   5  10
BRANCH   1  21
HETATM   21  P1  UNL     1      28.192   0.386  54.207  1.00  0.00     0.161 P 
HETATM   22  O1  UNL     1      29.042   1.415  54.958  1.00  0.00    -0.198 OA
ENDBRANCH   1  21
TORSDOF 4
ENDMDL
MODEL 5
REMARK VINA RESULT:      -7.3      5.217      7.643
REMARK  4 active torsions:
REMARK  status: ('A' for Active; 'I' for Inactive)
REMARK    1  A    between atoms: P1_2  and  C1_3 
REMARK    2  A    between atoms: C4_7  and  S1_8 
REMARK    3  A    between atoms: S1_8  and  N2_9 
REMARK    4  A    between atoms: N2_9  and  C5_10 
ROOT
HETATM    1  C1  UNL     1      27.014  -0.088  53.683  1.00  0.00     0.003 C 
HETATM    2  C2  UNL     1      25.988  -0.858  53.376  1.00  0.00     0.018 C 
HETATM    3  C3  UNL     1      24.869   0.009  53.683  1.00  0.00     0.142 A 
HETATM    4  N1  UNL     1      23.660   0.017  52.925  1.00  0.00    -0.371 N 
HETATM    5  C4  UNL     1      23.803   1.413  52.583  1.00  0.00     0.096 A 
HETATM    6  C11 UNL     1      24.941   1.392  53.284  1.00  0.00     0.003 A 
HETATM    7  C12 UNL     1      26.129   2.155  53.691  1.00  0.00     0.013 C 
HETATM    8  C13 UNL     1      27.213   1.366  53.882  1.00  0.00     0.015 C 
HETATM    9  H3  UNL     1      22.893  -0.662  52.655  1.00  0.00     0.161 HD
ENDROOT
BRANCH   5  10
HETATM   10  S1  UNL     1      22.860   2.599  51.643  1.00  0.00     0.004 SA
BRANCH  10  11
HETATM   11  N2  UNL     1      23.715   4.086  51.390  1.00  0.00    -0.325 N 
HETATM   12  H4  UNL     1      23.270   4.840  51.960  1.00  0.00     0.174 HD
BRANCH  11  13
HETATM   13  C5  UNL     1      24.844   4.287  50.551  1.00  0.00     0.040 A 
HETATM   14  C6  UNL     1      25.588   3.175  50.213  1.00  0.00     0.033 A 
HETATM   15  C7  UNL     1      26.676   3.408  49.398  1.00  0.00     0.046 A 
HETATM   16  C8  UNL     1      26.979   4.682  48.961  1.00  0.00     0.138 A 
HETATM   17  F1  UNL     1      28.027   4.987  48.162  1.00  0.00    -0.204 F 
HETATM   18  C9  UNL     1      26.191   5.769  49.335  1.00  0.00     0.074 A 
HETATM   19 CL1  UNL     1      26.532   7.423  48.806  1.00  0.00    -0.081 Cl
HETATM   20  C10 UNL     1      25.094   5.584  50.148  1.00  0.00     0.057 A 
ENDBRANCH  11  13
ENDBRANCH  10  11
ENDBRANCH   5  10
BRANCH   1  21
HETATM   21  P1  UNL     1      28.718  -0.820  53.482  1.00  0.00     0.161 P 
HETATM   22  O1  UNL     1      28.937  -2.337  53.471  1.00  0.00    -0.198 OA
ENDBRANCH   1  21
TORSDOF 4
ENDMDL
MODEL 6
REMARK VINA RESULT:      -7.2      1.457      1.839
REMARK  4 active torsions:
REMARK  status: ('A' for Active; 'I' for Inactive)
REMARK    1  A    between atoms: P1_2  and  C1_3 
REMARK    2  A    between atoms: C4_7  and  S1_8 
REMARK    3  A    between atoms: S1_8  and  N2_9 
REMARK    4  A    between atoms: N2_9  and  C5_10 
ROOT
HETATM    1  C1  UNL     1      28.963   7.868  48.482  1.00  0.00     0.003 C 
HETATM    2  C2  UNL     1      27.672   8.026  48.701  1.00  0.00     0.018 C 
HETATM    3  C3  UNL     1      27.130   6.798  48.157  1.00  0.00     0.142 A 
HETATM    4  N1  UNL     1      26.008   6.124  48.725  1.00  0.00    -0.371 N 
HETATM    5  C4  UNL     1      26.764   4.917  48.960  1.00  0.00     0.096 A 
HETATM    6  C11 UNL     1      27.813   5.560  48.439  1.00  0.00     0.003 A 
HETATM    7  C12 UNL     1      29.252   5.498  48.146  1.00  0.00     0.013 C 
HETATM    8  C13 UNL     1      29.845   6.714  48.187  1.00  0.00     0.015 C 
HETATM    9  H3  UNL     1      24.990   6.327  48.938  1.00  0.00     0.161 HD
ENDROOT
BRANCH   5  10
HETATM   10  S1  UNL     1      26.417   3.306  49.643  1.00  0.00     0.004 SA
BRANCH  10  11
HETATM   11  N2  UNL     1      26.724   3.221  51.348  1.00  0.00    -0.325 N 
HETATM   12  H4  UNL     1      27.196   4.099  51.657  1.00  0.00     0.174 HD
BRANCH  11  13
HETATM   13  C5  UNL     1      26.399   2.146  52.218  1.00  0.00     0.040 A 
HETATM   14  C6  UNL     1      25.122   1.630  52.140  1.00  0.00     0.033 A 
HETATM   15  C7  UNL     1      24.843   0.588  52.999  1.00  0.00     0.046 A 
HETATM   16  C8  UNL     1      25.799   0.109  53.872  1.00  0.00     0.138 A 
HETATM   17  F1  UNL     1      25.600  -0.907  54.742  1.00  0.00    -0.204 F 
HETATM   18  C9  UNL     1      27.074   0.669  53.908  1.00  0.00     0.074 A 
HETATM   19 CL1  UNL     1      28.339   0.096  55.005  1.00  0.00    -0.081 Cl
HETATM   20  C10 UNL     1      27.398   1.713  53.067  1.00  0.00     0.057 A 
ENDBRANCH  11  13
ENDBRANCH  10  11
ENDBRANCH   5  10
BRANCH   1  21
HETATM   21  P1  UNL     1      30.091   9.262  48.995  1.00  0.00     0.161 P 
HETATM   22  O1  UNL     1      31.602   9.196  48.750  1.00  0.00    -0.198 OA
ENDBRANCH   1  21
TORSDOF 4
ENDMDL
MODEL 7
REMARK VINA RESULT:      -7.0      5.888      7.521
REMARK  4 active torsions:
REMARK  status: ('A' for Active; 'I' for Inactive)
REMARK    1  A    between atoms: P1_2  and  C1_3 
REMARK    2  A    between atoms: C4_7  and  S1_8 
REMARK    3  A    between atoms: S1_8  and  N2_9 
REMARK    4  A    between atoms: N2_9  and  C5_10 
ROOT
HETATM    1  C1  UNL     1      27.383   0.643  53.015  1.00  0.00     0.003 C 
HETATM    2  C2  UNL     1      27.599   1.858  52.549  1.00  0.00     0.018 C 
HETATM    3  C3  UNL     1      26.453   2.047  51.683  1.00  0.00     0.142 A 
HETATM    4  N1  UNL     1      25.803   3.306  51.517  1.00  0.00    -0.371 N 
HETATM    5  C4  UNL     1      24.538   2.793  51.987  1.00  0.00     0.096 A 
HETATM    6  C11 UNL     1      25.159   1.621  52.152  1.00  0.00     0.003 A 
HETATM    7  C12 UNL     1      25.035   0.240  52.641  1.00  0.00     0.013 C 
HETATM    8  C13 UNL     1      26.208  -0.254  53.105  1.00  0.00     0.015 C 
HETATM    9  H3  UNL     1      26.047   4.285  51.191  1.00  0.00     0.161 HD
ENDROOT
BRANCH   5  10
HETATM   10  S1  UNL     1      22.901   3.458  52.226  1.00  0.00     0.004 SA
BRANCH  10  11
HETATM   11  N2  UNL     1      21.673   2.514  51.445  1.00  0.00    -0.325 N 
HETATM   12  H4  UNL     1      21.551   2.853  50.465  1.00  0.00     0.174 HD
BRANCH  11  13
HETATM   13  C5  UNL     1      20.931   1.444  52.014  1.00  0.00     0.040 A 
HETATM   14  C6  UNL     1      19.669   1.208  51.509  1.00  0.00     0.033 A 
HETATM   15  C7  UNL     1      18.980   0.162  52.086  1.00  0.00     0.046 A 
HETATM   16  C8  UNL     1      19.539  -0.586  53.102  1.00  0.00     0.138 A 
HETATM   17  F1  UNL     1      18.925  -1.624  53.715  1.00  0.00    -0.204 F 
HETATM   18  C9  UNL     1      20.819  -0.302  53.573  1.00  0.00     0.074 A 
HETATM   19 CL1  UNL     1      21.587  -1.226  54.873  1.00  0.00    -0.081 Cl
HETATM   20  C10 UNL     1      21.546   0.734  53.026  1.00  0.00     0.057 A 
ENDBRANCH  11  13
ENDBRANCH  10  11
ENDBRANCH   5  10
BRANCH   1  21
HETATM   21  P1  UNL     1      28.662  -0.063  54.175  1.00  0.00     0.161 P 
HETATM   22  O1  UNL     1      30.116  -0.261  53.733  1.00  0.00    -0.198 OA
ENDBRANCH   1  21
TORSDOF 4
ENDMDL
MODEL 8
REMARK VINA RESULT:      -7.0      2.548      2.970
REMARK  4 active torsions:
REMARK  status: ('A' for Active; 'I' for Inactive)
REMARK    1  A    between atoms: P1_2  and  C1_3 
REMARK    2  A    between atoms: C4_7  and  S1_8 
REMARK    3  A    between atoms: S1_8  and  N2_9 
REMARK    4  A    between atoms: N2_9  and  C5_10 
ROOT
HETATM    1  C1  UNL     1      25.462   7.845  47.320  1.00  0.00     0.003 C 
HETATM    2  C2  UNL     1      26.750   7.600  47.464  1.00  0.00     0.018 C 
HETATM    3  C3  UNL     1      26.778   6.926  48.746  1.00  0.00     0.142 A 
HETATM    4  N1  UNL     1      27.681   5.862  49.046  1.00  0.00    -0.371 N 
HETATM    5  C4  UNL     1      26.607   4.936  49.319  1.00  0.00     0.096 A 
HETATM    6  C11 UNL     1      25.769   5.934  49.023  1.00  0.00     0.003 A 
HETATM    7  C12 UNL     1      24.365   6.324  48.835  1.00  0.00     0.013 C 
HETATM    8  C13 UNL     1      24.218   7.317  47.926  1.00  0.00     0.015 C 
HETATM    9  H3  UNL     1      28.727   5.702  49.085  1.00  0.00     0.161 HD
ENDROOT
BRANCH   5  10
HETATM   10  S1  UNL     1      26.492   3.229  49.824  1.00  0.00     0.004 SA
BRANCH  10  11
HETATM   11  N2  UNL     1      26.565   3.033  51.546  1.00  0.00    -0.325 N 
HETATM   12  H4  UNL     1      26.041   3.812  52.003  1.00  0.00     0.174 HD
BRANCH  11  13
HETATM   13  C5  UNL     1      27.223   1.993  52.256  1.00  0.00     0.040 A 
HETATM   14  C6  UNL     1      28.251   2.355  53.102  1.00  0.00     0.033 A 
HETATM   15  C7  UNL     1      28.866   1.319  53.774  1.00  0.00     0.046 A 
HETATM   16  C8  UNL     1      28.458   0.013  53.595  1.00  0.00     0.138 A 
HETATM   17  F1  UNL     1      29.012  -1.053  54.218  1.00  0.00    -0.204 F 
HETATM   18  C9  UNL     1      27.413  -0.294  52.727  1.00  0.00     0.074 A 
HETATM   19 CL1  UNL     1      26.848  -1.950  52.458  1.00  0.00    -0.081 Cl
HETATM   20  C10 UNL     1      26.769   0.708  52.034  1.00  0.00     0.057 A 
ENDBRANCH  11  13
ENDBRANCH  10  11
ENDBRANCH   5  10
BRANCH   1  21
HETATM   21  P1  UNL     1      24.938   8.766  45.784  1.00  0.00     0.161 P 
HETATM   22  O1  UNL     1      23.519   9.324  45.636  1.00  0.00    -0.198 OA
ENDBRANCH   1  21
TORSDOF 4
ENDMDL
MODEL 9
REMARK VINA RESULT:      -6.9      5.388      6.065
REMARK  4 active torsions:
REMARK  status: ('A' for Active; 'I' for Inactive)
REMARK    1  A    between atoms: P1_2  and  C1_3 
REMARK    2  A    between atoms: C4_7  and  S1_8 
REMARK    3  A    between atoms: S1_8  and  N2_9 
REMARK    4  A    between atoms: N2_9  and  C5_10 
ROOT
HETATM    1  C1  UNL     1      21.370   2.547  48.548  1.00  0.00     0.003 C 
HETATM    2  C2  UNL     1      20.905   1.795  49.527  1.00  0.00     0.018 C 
HETATM    3  C3  UNL     1      22.129   1.329  50.145  1.00  0.00     0.142 A 
HETATM    4  N1  UNL     1      22.263   1.127  51.552  1.00  0.00    -0.371 N 
HETATM    5  C4  UNL     1      23.344   2.078  51.655  1.00  0.00     0.096 A 
HETATM    6  C11 UNL     1      23.203   2.271  50.340  1.00  0.00     0.003 A 
HETATM    7  C12 UNL     1      23.645   3.048  49.173  1.00  0.00     0.013 C 
HETATM    8  C13 UNL     1      22.667   3.198  48.248  1.00  0.00     0.015 C 
HETATM    9  H3  UNL     1      21.810   0.545  52.312  1.00  0.00     0.161 HD
ENDROOT
BRANCH   5  10
HETATM   10  S1  UNL     1      24.381   2.693  52.970  1.00  0.00     0.004 SA
BRANCH  10  11
HETATM   11  N2  UNL     1      26.062   2.710  52.546  1.00  0.00    -0.325 N 
HETATM   12  H4  UNL     1      26.271   3.574  51.999  1.00  0.00     0.174 HD
BRANCH  11  13
HETATM   13  C5  UNL     1      27.032   1.723  52.872  1.00  0.00     0.040 A 
HETATM   14  C6  UNL     1      28.216   2.157  53.430  1.00  0.00     0.033 A 
HETATM   15  C7  UNL     1      29.132   1.172  53.733  1.00  0.00     0.046 A 
HETATM   16  C8  UNL     1      28.856  -0.158  53.484  1.00  0.00     0.138 A 
HETATM   17  F1  UNL     1      29.703  -1.178  53.753  1.00  0.00    -0.204 F 
HETATM   18  C9  UNL     1      27.642  -0.539  52.917  1.00  0.00     0.074 A 
HETATM   19 CL1  UNL     1      27.234  -2.227  52.576  1.00  0.00    -0.081 Cl
HETATM   20  C10 UNL     1      26.696   0.412  52.598  1.00  0.00     0.057 A 
ENDBRANCH  11  13
ENDBRANCH  10  11
ENDBRANCH   5  10
BRANCH   1  21
HETATM   21  P1  UNL     1      20.118   3.348  47.421  1.00  0.00     0.161 P 
HETATM   22  O1  UNL     1      18.646   3.473  47.827  1.00  0.00    -0.198 OA
ENDBRANCH   1  21
TORSDOF 4
ENDMDL
