MODEL 1
REMARK VINA RESULT:      -7.1      0.000      0.000
REMARK  4 active torsions:
REMARK  status: ('A' for Active; 'I' for Inactive)
REMARK    1  A    between atoms: C2_2  and  C3_4 
REMARK    2  A    between atoms: C3_4  and  N1_5 
REMARK    3  A    between atoms: N1_5  and  C4_6 
REMARK    4  A    between atoms: C8_12  and  O1_13 
ROOT
HETATM    1  C4  UNL     1      26.616   0.513  54.755  1.00  0.00     0.243 C 
HETATM    2  N2  UNL     1      26.007  -0.505  55.283  1.00  0.00    -0.202 NA
HETATM    3  C5  UNL     1      24.653  -0.813  55.183  1.00  0.00     0.236 C 
HETATM    4  N3  UNL     1      23.703  -1.536  55.599  1.00  0.00    -0.254 NA
HETATM    5  C6  UNL     1      22.375  -1.435  55.118  1.00  0.00     0.120 C 
HETATM    6  C7  UNL     1      21.267  -1.169  54.486  1.00  0.00     0.058 C 
HETATM    7  C8  UNL     1      20.807  -0.388  53.369  1.00  0.00     0.091 C 
HETATM    8  C10 UNL     1      21.373   0.415  52.492  1.00  0.00     0.171 C 
HETATM    9  O2  UNL     1      22.261   1.176  51.754  1.00  0.00    -0.360 OA
HETATM   10  C11 UNL     1      23.355   1.778  52.468  1.00  0.00     0.176 C 
HETATM   11  C12 UNL     1      24.657   1.311  51.908  1.00  0.00     0.053 C 
HETATM   12  C13 UNL     1      25.855   1.778  52.745  1.00  0.00     0.181 C 
HETATM   13  O3  UNL     1      25.684   1.253  54.060  1.00  0.00    -0.321 OA
ENDROOT
BRANCH   1  14
HETATM   14  N1  UNL     1      28.004   0.686  54.954  1.00  0.00    -0.350 N 
HETATM   15  H5  UNL     1      28.191   0.939  55.967  1.00  0.00     0.163 HD
BRANCH  14  16
HETATM   16  C3  UNL     1      28.890   0.506  53.843  1.00  0.00     0.173 C 
BRANCH  16  17
HETATM   17  C2  UNL     1      28.948  -0.935  53.396  1.00  0.00     0.020 C 
HETATM   18  C1  UNL     1      29.649  -2.064  53.442  1.00  0.00     0.034 C 
HETATM   19 CL1  UNL     1      27.546  -1.374  52.399  1.00  0.00    -0.088 Cl
ENDBRANCH  16  17
ENDBRANCH  14  16
ENDBRANCH   1  14
BRANCH   7  20
HETATM   20  O1  UNL     1      19.453  -0.449  53.090  1.00  0.00    -0.354 OA
HETATM   21  C9  UNL     1      18.867   0.100  51.924  1.00  0.00     0.210 C 
ENDBRANCH   7  20
TORSDOF 4
ENDMDL
MODEL 2
REMARK VINA RESULT:      -7.0      1.958      3.336
REMARK  4 active torsions:
REMARK  status: ('A' for Active; 'I' for Inactive)
REMARK    1  A    between atoms: C2_2  and  C3_4 
REMARK    2  A    between atoms: C3_4  and  N1_5 
REMARK    3  A    between atoms: N1_5  and  C4_6 
REMARK    4  A    between atoms: C8_12  and  O1_13 
ROOT
HETATM    1  C4  UNL     1      24.952  -0.285  53.963  1.00  0.00     0.243 C 
HETATM    2  N2  UNL     1      24.924   0.603  53.016  1.00  0.00    -0.202 NA
HETATM    3  C5  UNL     1      23.855   0.890  52.171  1.00  0.00     0.236 C 
HETATM    4  N3  UNL     1      23.464   1.500  51.135  1.00  0.00    -0.254 NA
HETATM    5  C6  UNL     1      22.132   1.455  50.657  1.00  0.00     0.120 C 
HETATM    6  C7  UNL     1      20.856   1.282  50.459  1.00  0.00     0.058 C 
HETATM    7  C8  UNL     1      19.716   0.708  51.122  1.00  0.00     0.091 C 
HETATM    8  C10 UNL     1      19.511   0.093  52.269  1.00  0.00     0.171 C 
HETATM    9  O2  UNL     1      19.646  -0.496  53.512  1.00  0.00    -0.360 OA
HETATM   10  C11 UNL     1      20.878  -1.191  53.776  1.00  0.00     0.176 C 
HETATM   11  C12 UNL     1      21.564  -0.596  54.960  1.00  0.00     0.053 C 
HETATM   12  C13 UNL     1      22.966  -1.179  55.177  1.00  0.00     0.181 C 
HETATM   13  O3  UNL     1      23.724  -0.908  54.000  1.00  0.00    -0.321 OA
ENDROOT
BRANCH   1  14
HETATM   14  N1  UNL     1      26.124  -0.456  54.734  1.00  0.00    -0.350 N 
HETATM   15  H5  UNL     1      25.954  -1.186  55.485  1.00  0.00     0.163 HD
BRANCH  14  16
HETATM   16  C3  UNL     1      27.284   0.320  54.413  1.00  0.00     0.173 C 
BRANCH  16  17
HETATM   17  C2  UNL     1      28.387  -0.530  53.828  1.00  0.00     0.020 C 
HETATM   18  C1  UNL     1      29.702  -0.706  53.749  1.00  0.00     0.034 C 
HETATM   19 CL1  UNL     1      27.744  -1.849  52.829  1.00  0.00    -0.088 Cl
ENDBRANCH  16  17
ENDBRANCH  14  16
ENDBRANCH   1  14
BRANCH   7  20
HETATM   20  O1  UNL     1      18.509   0.784  50.450  1.00  0.00    -0.354 OA
HETATM   21  C9  UNL     1      17.457  -0.148  50.620  1.00  0.00     0.210 C 
ENDBRANCH   7  20
TORSDOF 4
ENDMDL
MODEL 3
REMARK VINA RESULT:      -7.0      2.489      3.619
REMARK  4 active torsions:
REMARK  status: ('A' for Active; 'I' for Inactive)
REMARK    1  A    between atoms: C2_2  and  C3_4 
REMARK    2  A    between atoms: C3_4  and  N1_5 
REMARK    3  A    between atoms: N1_5  and  C4_6 
REMARK    4  A    between atoms: C8_12  and  O1_13 
ROOT
HETATM    1  C4  UNL     1      25.370   0.226  53.686  1.00  0.00     0.243 C 
HETATM    2  N2  UNL     1      25.451   1.513  53.536  1.00  0.00    -0.202 NA
HETATM    3  C5  UNL     1      24.445   2.367  53.094  1.00  0.00     0.236 C 
HETATM    4  N3  UNL     1      24.148   3.532  52.702  1.00  0.00    -0.254 NA
HETATM    5  C6  UNL     1      22.839   3.921  52.329  1.00  0.00     0.120 C 
HETATM    6  C7  UNL     1      21.563   4.028  52.086  1.00  0.00     0.058 C 
HETATM    7  C8  UNL     1      20.354   3.263  52.240  1.00  0.00     0.091 C 
HETATM    8  C10 UNL     1      20.054   2.075  52.722  1.00  0.00     0.171 C 
HETATM    9  O2  UNL     1      20.089   0.814  53.289  1.00  0.00    -0.360 OA
HETATM   10  C11 UNL     1      21.251   0.010  53.022  1.00  0.00     0.176 C 
HETATM   11  C12 UNL     1      21.928  -0.360  54.300  1.00  0.00     0.053 C 
HETATM   12  C13 UNL     1      23.271  -1.064  54.067  1.00  0.00     0.181 C 
HETATM   13  O3  UNL     1      24.098  -0.166  53.331  1.00  0.00    -0.321 OA
ENDROOT
BRANCH   1  14
HETATM   14  N1  UNL     1      26.491  -0.503  54.146  1.00  0.00    -0.350 N 
HETATM   15  H5  UNL     1      26.433  -1.504  53.800  1.00  0.00     0.163 HD
BRANCH  14  16
HETATM   16  C3  UNL     1      27.469   0.167  54.950  1.00  0.00     0.173 C 
BRANCH  16  17
HETATM   17  C2  UNL     1      28.739   0.440  54.182  1.00  0.00     0.020 C 
HETATM   18  C1  UNL     1      29.802  -0.110  53.601  1.00  0.00     0.034 C 
HETATM   19 CL1  UNL     1      28.982   2.176  53.903  1.00  0.00    -0.088 Cl
ENDBRANCH  16  17
ENDBRANCH  14  16
ENDBRANCH   1  14
BRANCH   7  20
HETATM   20  O1  UNL     1      19.187   3.858  51.795  1.00  0.00    -0.354 OA
HETATM   21  C9  UNL     1      18.022   3.134  51.447  1.00  0.00     0.210 C 
ENDBRANCH   7  20
TORSDOF 4
ENDMDL
MODEL 4
REMARK VINA RESULT:      -6.9      2.127      2.567
REMARK  4 active torsions:
REMARK  status: ('A' for Active; 'I' for Inactive)
REMARK    1  A    between atoms: C2_2  and  C3_4 
REMARK    2  A    between atoms: C3_4  and  N1_5 
REMARK    3  A    between atoms: N1_5  and  C4_6 
REMARK    4  A    between atoms: C8_12  and  O1_13 
ROOT
HETATM    1  C4  UNL     1      25.736  -0.020  53.793  1.00  0.00     0.243 C 
HETATM    2  N2  UNL     1      24.658  -0.742  53.845  1.00  0.00    -0.202 NA
HETATM    3  C5  UNL     1      23.347  -0.298  53.697  1.00  0.00     0.236 C 
HETATM    4  N3  UNL     1      22.120  -0.583  53.801  1.00  0.00    -0.254 NA
HETATM    5  C6  UNL     1      21.078   0.325  53.495  1.00  0.00     0.120 C 
HETATM    6  C7  UNL     1      20.327   1.320  53.115  1.00  0.00     0.058 C 
HETATM    7  C8  UNL     1      20.457   2.611  52.494  1.00  0.00     0.091 C 
HETATM    8  C10 UNL     1      21.459   3.334  52.038  1.00  0.00     0.171 C 
HETATM    9  O2  UNL     1      22.703   3.812  51.668  1.00  0.00    -0.360 OA
HETATM   10  C11 UNL     1      23.815   3.462  52.510  1.00  0.00     0.176 C 
HETATM   11  C12 UNL     1      24.844   2.719  51.725  1.00  0.00     0.053 C 
HETATM   12  C13 UNL     1      25.966   2.164  52.610  1.00  0.00     0.181 C 
HETATM   13  O3  UNL     1      25.363   1.286  53.559  1.00  0.00    -0.321 OA
ENDROOT
BRANCH   1  14
HETATM   14  N1  UNL     1      27.001  -0.626  53.967  1.00  0.00    -0.350 N 
HETATM   15  H5  UNL     1      27.101  -1.443  53.298  1.00  0.00     0.163 HD
BRANCH  14  16
HETATM   16  C3  UNL     1      27.898  -0.087  54.945  1.00  0.00     0.173 C 
BRANCH  16  17
HETATM   17  C2  UNL     1      28.942   0.807  54.321  1.00  0.00     0.020 C 
HETATM   18  C1  UNL     1      29.346   2.063  54.156  1.00  0.00     0.034 C 
HETATM   19 CL1  UNL     1      30.158  -0.126  53.424  1.00  0.00    -0.088 Cl
ENDBRANCH  16  17
ENDBRANCH  14  16
ENDBRANCH   1  14
BRANCH   7  20
HETATM   20  O1  UNL     1      19.286   3.322  52.298  1.00  0.00    -0.354 OA
HETATM   21  C9  UNL     1      18.920   3.903  51.061  1.00  0.00     0.210 C 
ENDBRANCH   7  20
TORSDOF 4
ENDMDL
MODEL 5
REMARK VINA RESULT:      -6.6      1.772      2.122
REMARK  4 active torsions:
REMARK  status: ('A' for Active; 'I' for Inactive)
REMARK    1  A    between atoms: C2_2  and  C3_4 
REMARK    2  A    between atoms: C3_4  and  N1_5 
REMARK    3  A    between atoms: N1_5  and  C4_6 
REMARK    4  A    between atoms: C8_12  and  O1_13 
ROOT
HETATM    1  C4  UNL     1      24.916   0.504  53.249  1.00  0.00     0.243 C 
HETATM    2  N2  UNL     1      24.374  -0.531  53.815  1.00  0.00    -0.202 NA
HETATM    3  C5  UNL     1      23.015  -0.827  53.888  1.00  0.00     0.236 C 
HETATM    4  N3  UNL     1      22.122  -1.560  54.401  1.00  0.00    -0.254 NA
HETATM    5  C6  UNL     1      20.742  -1.432  54.110  1.00  0.00     0.120 C 
HETATM    6  C7  UNL     1      19.562  -1.134  53.646  1.00  0.00     0.058 C 
HETATM    7  C8  UNL     1      18.963  -0.305  52.634  1.00  0.00     0.091 C 
HETATM    8  C10 UNL     1      19.413   0.530  51.721  1.00  0.00     0.171 C 
HETATM    9  O2  UNL     1      20.202   1.315  50.900  1.00  0.00    -0.360 OA
HETATM   10  C11 UNL     1      21.389   1.881  51.481  1.00  0.00     0.176 C 
HETATM   11  C12 UNL     1      22.598   1.429  50.731  1.00  0.00     0.053 C 
HETATM   12  C13 UNL     1      23.904   1.855  51.414  1.00  0.00     0.181 C 
HETATM   13  O3  UNL     1      23.907   1.277  52.718  1.00  0.00    -0.321 OA
ENDROOT
BRANCH   1  14
HETATM   14  N1  UNL     1      26.321   0.661  53.264  1.00  0.00    -0.350 N 
HETATM   15  H5  UNL     1      26.576   1.547  53.788  1.00  0.00     0.163 HD
BRANCH  14  16
HETATM   16  C3  UNL     1      27.134  -0.327  52.619  1.00  0.00     0.173 C 
BRANCH  16  17
HETATM   17  C2  UNL     1      28.347  -0.683  53.443  1.00  0.00     0.020 C 
HETATM   18  C1  UNL     1      29.469  -1.396  53.480  1.00  0.00     0.034 C 
HETATM   19 CL1  UNL     1      28.346   0.145  55.013  1.00  0.00    -0.088 Cl
ENDBRANCH  16  17
ENDBRANCH  14  16
ENDBRANCH   1  14
BRANCH   7  20
HETATM   20  O1  UNL     1      17.583  -0.346  52.541  1.00  0.00    -0.354 OA
HETATM   21  C9  UNL     1      16.883  -0.428  51.314  1.00  0.00     0.210 C 
ENDBRANCH   7  20
TORSDOF 4
ENDMDL
MODEL 6
REMARK VINA RESULT:      -6.6      4.373      5.606
REMARK  4 active torsions:
REMARK  status: ('A' for Active; 'I' for Inactive)
REMARK    1  A    between atoms: C2_2  and  C3_4 
REMARK    2  A    between atoms: C3_4  and  N1_5 
REMARK    3  A    between atoms: N1_5  and  C4_6 
REMARK    4  A    between atoms: C8_12  and  O1_13 
ROOT
HETATM    1  C4  UNL     1      26.055   4.123  50.216  1.00  0.00     0.243 C 
HETATM    2  N2  UNL     1      26.758   3.064  50.480  1.00  0.00    -0.202 NA
HETATM    3  C5  UNL     1      26.404   2.014  51.323  1.00  0.00     0.236 C 
HETATM    4  N3  UNL     1      26.785   0.969  51.923  1.00  0.00    -0.254 NA
HETATM    5  C6  UNL     1      25.939   0.186  52.745  1.00  0.00     0.120 C 
HETATM    6  C7  UNL     1      24.960  -0.366  53.403  1.00  0.00     0.058 C 
HETATM    7  C8  UNL     1      23.537  -0.226  53.565  1.00  0.00     0.091 C 
HETATM    8  C10 UNL     1      22.613   0.573  53.073  1.00  0.00     0.171 C 
HETATM    9  O2  UNL     1      21.921   1.551  52.383  1.00  0.00    -0.360 OA
HETATM   10  C11 UNL     1      22.602   2.798  52.160  1.00  0.00     0.176 C 
HETATM   11  C12 UNL     1      22.701   3.079  50.698  1.00  0.00     0.053 C 
HETATM   12  C13 UNL     1      23.575   4.303  50.395  1.00  0.00     0.181 C 
HETATM   13  O3  UNL     1      24.874   4.037  50.920  1.00  0.00    -0.321 OA
ENDROOT
BRANCH   1  14
HETATM   14  N1  UNL     1      26.562   5.104  49.334  1.00  0.00    -0.350 N 
HETATM   15  H5  UNL     1      25.928   5.955  49.344  1.00  0.00     0.163 HD
BRANCH  14  16
HETATM   16  C3  UNL     1      27.767   4.828  48.611  1.00  0.00     0.173 C 
BRANCH  16  17
HETATM   17  C2  UNL     1      28.430   6.092  48.118  1.00  0.00     0.020 C 
HETATM   18  C1  UNL     1      28.226   7.322  47.656  1.00  0.00     0.034 C 
HETATM   19 CL1  UNL     1      30.200   5.956  48.130  1.00  0.00    -0.088 Cl
ENDBRANCH  16  17
ENDBRANCH  14  16
ENDBRANCH   1  14
BRANCH   7  20
HETATM   20  O1  UNL     1      22.925  -1.114  54.433  1.00  0.00    -0.354 OA
HETATM   21  C9  UNL     1      21.528  -1.158  54.652  1.00  0.00     0.210 C 
ENDBRANCH   7  20
TORSDOF 4
ENDMDL
MODEL 7
REMARK VINA RESULT:      -6.5      2.963      7.121
REMARK  4 active torsions:
REMARK  status: ('A' for Active; 'I' for Inactive)
REMARK    1  A    between atoms: C2_2  and  C3_4 
REMARK    2  A    between atoms: C3_4  and  N1_5 
REMARK    3  A    between atoms: N1_5  and  C4_6 
REMARK    4  A    between atoms: C8_12  and  O1_13 
ROOT
HETATM    1  C4  UNL     1      20.644  -0.893  53.972  1.00  0.00     0.243 C 
HETATM    2  N2  UNL     1      21.411  -1.287  54.942  1.00  0.00    -0.202 NA
HETATM    3  C5  UNL     1      22.787  -1.100  55.048  1.00  0.00     0.236 C 
HETATM    4  N3  UNL     1      23.847  -1.399  55.669  1.00  0.00    -0.254 NA
HETATM    5  C6  UNL     1      25.120  -0.877  55.339  1.00  0.00     0.120 C 
HETATM    6  C7  UNL     1      26.147  -0.232  54.861  1.00  0.00     0.058 C 
HETATM    7  C8  UNL     1      26.436   0.815  53.918  1.00  0.00     0.091 C 
HETATM    8  C10 UNL     1      25.721   1.579  53.119  1.00  0.00     0.171 C 
HETATM    9  O2  UNL     1      24.700   2.197  52.421  1.00  0.00    -0.360 OA
HETATM   10  C11 UNL     1      23.576   1.380  52.049  1.00  0.00     0.176 C 
HETATM   11  C12 UNL     1      22.319   1.932  52.636  1.00  0.00     0.053 C 
HETATM   12  C13 UNL     1      21.117   1.003  52.423  1.00  0.00     0.181 C 
HETATM   13  O3  UNL     1      21.428  -0.241  53.045  1.00  0.00    -0.321 OA
ENDROOT
BRANCH   1  14
HETATM   14  N1  UNL     1      19.258  -1.165  54.014  1.00  0.00    -0.350 N 
HETATM   15  H5  UNL     1      18.992  -1.523  54.977  1.00  0.00     0.163 HD
BRANCH  14  16
HETATM   16  C3  UNL     1      18.472  -0.934  52.839  1.00  0.00     0.173 C 
BRANCH  16  17
HETATM   17  C2  UNL     1      17.215  -1.770  52.828  1.00  0.00     0.020 C 
HETATM   18  C1  UNL     1      15.951  -1.835  52.418  1.00  0.00     0.034 C 
HETATM   19 CL1  UNL     1      17.434  -3.302  53.697  1.00  0.00    -0.088 Cl
ENDBRANCH  16  17
ENDBRANCH  14  16
ENDBRANCH   1  14
BRANCH   7  20
HETATM   20  O1  UNL     1      27.769   1.153  53.763  1.00  0.00    -0.354 OA
HETATM   21  C9  UNL     1      28.836   0.418  54.332  1.00  0.00     0.210 C 
ENDBRANCH   7  20
TORSDOF 4
ENDMDL
MODEL 8
REMARK VINA RESULT:      -6.5      2.547      3.498
REMARK  4 active torsions:
REMARK  status: ('A' for Active; 'I' for Inactive)
REMARK    1  A    between atoms: C2_2  and  C3_4 
REMARK    2  A    between atoms: C3_4  and  N1_5 
REMARK    3  A    between atoms: N1_5  and  C4_6 
REMARK    4  A    between atoms: C8_12  and  O1_13 
ROOT
HETATM    1  C4  UNL     1      25.136   2.349  53.347  1.00  0.00     0.243 C 
HETATM    2  N2  UNL     1      24.408   3.414  53.202  1.00  0.00    -0.202 NA
HETATM    3  C5  UNL     1      23.094   3.472  52.746  1.00  0.00     0.236 C 
HETATM    4  N3  UNL     1      22.146   4.211  52.354  1.00  0.00    -0.254 NA
HETATM    5  C6  UNL     1      20.879   3.715  51.961  1.00  0.00     0.120 C 
HETATM    6  C7  UNL     1      19.812   3.015  51.699  1.00  0.00     0.058 C 
HETATM    7  C8  UNL     1      19.331   1.666  51.831  1.00  0.00     0.091 C 
HETATM    8  C10 UNL     1      19.821   0.539  52.304  1.00  0.00     0.171 C 
HETATM    9  O2  UNL     1      20.620  -0.439  52.868  1.00  0.00    -0.360 OA
HETATM   10  C11 UNL     1      22.033  -0.352  52.617  1.00  0.00     0.176 C 
HETATM   11  C12 UNL     1      22.781  -0.242  53.904  1.00  0.00     0.053 C 
HETATM   12  C13 UNL     1      24.275   0.035  53.691  1.00  0.00     0.181 C 
HETATM   13  O3  UNL     1      24.380   1.261  52.971  1.00  0.00    -0.321 OA
ENDROOT
BRANCH   1  14
HETATM   14  N1  UNL     1      26.463   2.460  53.822  1.00  0.00    -0.350 N 
HETATM   15  H5  UNL     1      26.472   3.002  54.734  1.00  0.00     0.163 HD
BRANCH  14  16
HETATM   16  C3  UNL     1      27.522   1.868  53.062  1.00  0.00     0.173 C 
BRANCH  16  17
HETATM   17  C2  UNL     1      28.041   0.605  53.706  1.00  0.00     0.020 C 
HETATM   18  C1  UNL     1      28.732   0.105  54.726  1.00  0.00     0.034 C 
HETATM   19 CL1  UNL     1      27.582  -0.842  52.785  1.00  0.00    -0.088 Cl
ENDBRANCH  16  17
ENDBRANCH  14  16
ENDBRANCH   1  14
BRANCH   7  20
HETATM   20  O1  UNL     1      18.049   1.420  51.369  1.00  0.00    -0.354 OA
HETATM   21  C9  UNL     1      17.475   0.129  51.301  1.00  0.00     0.210 C 
ENDBRANCH   7  20
TORSDOF 4
ENDMDL
MODEL 9
REMARK VINA RESULT:      -6.2      4.212      5.533
REMARK  4 active torsions:
REMARK  status: ('A' for Active; 'I' for Inactive)
REMARK    1  A    between atoms: C2_2  and  C3_4 
REMARK    2  A    between atoms: C3_4  and  N1_5 
REMARK    3  A    between atoms: N1_5  and  C4_6 
REMARK    4  A    between atoms: C8_12  and  O1_13 
ROOT
HETATM    1  C4  UNL     1      25.757   3.583  50.653  1.00  0.00     0.243 C 
HETATM    2  N2  UNL     1      24.477   3.767  50.770  1.00  0.00    -0.202 NA
HETATM    3  C5  UNL     1      23.557   2.897  51.348  1.00  0.00     0.236 C 
HETATM    4  N3  UNL     1      22.337   2.624  51.536  1.00  0.00    -0.254 NA
HETATM    5  C6  UNL     1      21.891   1.501  52.273  1.00  0.00     0.120 C 
HETATM    6  C7  UNL     1      21.751   0.440  53.015  1.00  0.00     0.058 C 
HETATM    7  C8  UNL     1      22.557  -0.460  53.797  1.00  0.00     0.091 C 
HETATM    8  C10 UNL     1      23.838  -0.561  54.082  1.00  0.00     0.171 C 
HETATM    9  O2  UNL     1      25.206  -0.377  54.177  1.00  0.00    -0.360 OA
HETATM   10  C11 UNL     1      25.878   0.137  53.014  1.00  0.00     0.176 C 
HETATM   11  C12 UNL     1      26.570   1.419  53.341  1.00  0.00     0.053 C 
HETATM   12  C13 UNL     1      27.151   2.103  52.097  1.00  0.00     0.181 C 
HETATM   13  O3  UNL     1      26.065   2.361  51.210  1.00  0.00    -0.321 OA
ENDROOT
BRANCH   1  14
HETATM   14  N1  UNL     1      26.558   4.569  50.034  1.00  0.00    -0.350 N 
HETATM   15  H5  UNL     1      27.559   4.225  49.964  1.00  0.00     0.163 HD
BRANCH  14  16
HETATM   16  C3  UNL     1      25.947   5.798  49.621  1.00  0.00     0.173 C 
BRANCH  16  17
HETATM   17  C2  UNL     1      26.734   6.478  48.526  1.00  0.00     0.020 C 
HETATM   18  C1  UNL     1      26.734   7.466  47.637  1.00  0.00     0.034 C 
HETATM   19 CL1  UNL     1      28.305   5.696  48.259  1.00  0.00    -0.088 Cl
ENDBRANCH  16  17
ENDBRANCH  14  16
ENDBRANCH   1  14
BRANCH   7  20
HETATM   20  O1  UNL     1      21.889  -1.494  54.430  1.00  0.00    -0.354 OA
HETATM   21  C9  UNL     1      20.509  -1.755  54.260  1.00  0.00     0.210 C 
ENDBRANCH   7  20
TORSDOF 4
ENDMDL
