MODEL 1
REMARK VINA RESULT:      -8.6      0.000      0.000
REMARK  6 active torsions:
REMARK  status: ('A' for Active; 'I' for Inactive)
REMARK    1  A    between atoms: O1_2  and  C2_3 
REMARK    2  A    between atoms: C6_7  and  C7_8 
REMARK    3  A    between atoms: C7_8  and  N1_9 
REMARK    4  A    between atoms: N1_9  and  C8_10 
REMARK    5  A    between atoms: C10_12  and  N2_13 
REMARK    6  A    between atoms: N2_13  and  C11_14 
ROOT
HETATM    1  C8  UNL     1      22.403   0.530  52.273  1.00  0.00     0.120 C 
HETATM    2  C9  UNL     1      22.991  -0.207  53.231  1.00  0.00     0.068 C 
HETATM    3  C10 UNL     1      24.421  -0.349  53.425  1.00  0.00     0.142 C 
HETATM    4  N3  UNL     1      24.765  -0.868  54.533  1.00  0.00    -0.224 NA
HETATM    5  C17 UNL     1      23.833  -1.319  55.502  1.00  0.00     0.230 C 
HETATM    6  N4  UNL     1      22.522  -1.282  55.315  1.00  0.00    -0.260 NA
HETATM    7  C18 UNL     1      21.944  -0.823  54.131  1.00  0.00     0.232 C 
HETATM    8  S1  UNL     1      20.758   0.524  54.106  1.00  0.00    -0.021 SA
HETATM    9  N5  UNL     1      20.949   0.690  52.276  1.00  0.00    -0.314 N 
HETATM   10  H17 UNL     1      20.309   0.840  51.498  1.00  0.00     0.175 HD
ENDROOT
BRANCH   1  11
HETATM   11  N1  UNL     1      23.056   1.319  51.234  1.00  0.00    -0.371 N 
HETATM   12  H9  UNL     1      23.401   1.091  50.276  1.00  0.00     0.161 HD
BRANCH  11  13
HETATM   13  C7  UNL     1      23.220   2.679  51.709  1.00  0.00     0.160 C 
BRANCH  13  14
HETATM   14  C6  UNL     1      24.229   3.450  50.942  1.00  0.00    -0.038 A 
HETATM   15  C5  UNL     1      25.226   2.845  50.195  1.00  0.00     0.009 A 
HETATM   16  C4  UNL     1      26.105   3.658  49.525  1.00  0.00     0.003 A 
HETATM   17  C3  UNL     1      26.086   5.031  49.527  1.00  0.00     0.037 A 
HETATM   18  C2  UNL     1      25.084   5.604  50.276  1.00  0.00     0.068 A 
HETATM   19  C19 UNL     1      24.167   4.830  50.976  1.00  0.00     0.045 A 
BRANCH  18  20
HETATM   20  O1  UNL     1      24.928   6.991  50.381  1.00  0.00    -0.356 OA
HETATM   21  C1  UNL     1      23.767   7.623  50.831  1.00  0.00     0.210 C 
ENDBRANCH  18  20
ENDBRANCH  13  14
ENDBRANCH  11  13
ENDBRANCH   1  11
BRANCH   3  22
HETATM   22  N2  UNL     1      25.429   0.021  52.521  1.00  0.00    -0.340 N 
HETATM   23  H10 UNL     1      25.296  -0.162  51.526  1.00  0.00     0.167 HD
BRANCH  22  24
HETATM   24  C11 UNL     1      26.623   0.643  53.008  1.00  0.00     0.035 A 
HETATM   25  C12 UNL     1      26.882   1.956  53.341  1.00  0.00     0.029 A 
HETATM   26  C13 UNL     1      28.123   2.309  53.790  1.00  0.00     0.004 A 
HETATM   27  C14 UNL     1      29.156   1.409  53.933  1.00  0.00     0.024 A 
HETATM   28  C15 UNL     1      28.896   0.091  53.598  1.00  0.00     0.036 A 
HETATM   29 CL1  UNL     1      30.215  -1.062  53.780  1.00  0.00    -0.084 Cl
HETATM   30  C16 UNL     1      27.641  -0.305  53.137  1.00  0.00     0.053 A 
ENDBRANCH  22  24
ENDBRANCH   3  22
TORSDOF 6
ENDMDL
MODEL 2
REMARK VINA RESULT:      -8.5      3.029      6.059
REMARK  6 active torsions:
REMARK  status: ('A' for Active; 'I' for Inactive)
REMARK    1  A    between atoms: O1_2  and  C2_3 
REMARK    2  A    between atoms: C6_7  and  C7_8 
REMARK    3  A    between atoms: C7_8  and  N1_9 
REMARK    4  A    between atoms: N1_9  and  C8_10 
REMARK    5  A    between atoms: C10_12  and  N2_13 
REMARK    6  A    between atoms: N2_13  and  C11_14 
ROOT
HETATM    1  C8  UNL     1      24.254   3.195  51.107  1.00  0.00     0.120 C 
HETATM    2  C9  UNL     1      22.917   3.198  51.239  1.00  0.00     0.068 C 
HETATM    3  C10 UNL     1      22.103   2.052  51.594  1.00  0.00     0.142 C 
HETATM    4  N3  UNL     1      20.905   2.323  51.922  1.00  0.00    -0.224 NA
HETATM    5  C17 UNL     1      20.374   3.638  51.908  1.00  0.00     0.230 C 
HETATM    6  N4  UNL     1      21.068   4.692  51.506  1.00  0.00    -0.260 NA
HETATM    7  C18 UNL     1      22.376   4.594  51.029  1.00  0.00     0.232 C 
HETATM    8  S1  UNL     1      23.732   5.510  51.765  1.00  0.00    -0.021 SA
HETATM    9  N5  UNL     1      24.959   4.455  50.875  1.00  0.00    -0.314 N 
HETATM   10  H17 UNL     1      25.832   4.631  50.380  1.00  0.00     0.175 HD
ENDROOT
BRANCH   1  11
HETATM   11  N1  UNL     1      25.159   2.063  51.274  1.00  0.00    -0.371 N 
HETATM   12  H9  UNL     1      25.016   1.029  51.269  1.00  0.00     0.161 HD
BRANCH  11  13
HETATM   13  C7  UNL     1      26.504   2.563  51.480  1.00  0.00     0.160 C 
BRANCH  13  14
HETATM   14  C6  UNL     1      27.303   1.727  52.411  1.00  0.00    -0.038 A 
HETATM   15  C5  UNL     1      28.215   2.263  53.305  1.00  0.00     0.009 A 
HETATM   16  C4  UNL     1      28.898   1.394  54.119  1.00  0.00     0.003 A 
HETATM   17  C3  UNL     1      28.758   0.029  54.127  1.00  0.00     0.037 A 
HETATM   18  C2  UNL     1      27.846  -0.475  53.229  1.00  0.00     0.068 A 
HETATM   19  C19 UNL     1      27.126   0.357  52.381  1.00  0.00     0.045 A 
BRANCH  18  20
HETATM   20  O1  UNL     1      27.586  -1.845  53.114  1.00  0.00    -0.356 OA
HETATM   21  C1  UNL     1      28.569  -2.836  53.085  1.00  0.00     0.210 C 
ENDBRANCH  18  20
ENDBRANCH  13  14
ENDBRANCH  11  13
ENDBRANCH   1  11
BRANCH   3  22
HETATM   22  N2  UNL     1      22.508   0.708  51.602  1.00  0.00    -0.340 N 
HETATM   23  H10 UNL     1      22.895   0.301  50.751  1.00  0.00     0.167 HD
BRANCH  22  24
HETATM   24  C11 UNL     1      22.369  -0.066  52.798  1.00  0.00     0.035 A 
HETATM   25  C12 UNL     1      21.272  -0.710  53.331  1.00  0.00     0.029 A 
HETATM   26  C13 UNL     1      21.394  -1.395  54.507  1.00  0.00     0.004 A 
HETATM   27  C14 UNL     1      22.576  -1.481  55.210  1.00  0.00     0.024 A 
HETATM   28  C15 UNL     1      23.677  -0.834  54.674  1.00  0.00     0.036 A 
HETATM   29 CL1  UNL     1      25.190  -0.943  55.569  1.00  0.00    -0.084 Cl
HETATM   30  C16 UNL     1      23.589  -0.126  53.476  1.00  0.00     0.053 A 
ENDBRANCH  22  24
ENDBRANCH   3  22
TORSDOF 6
ENDMDL
MODEL 3
REMARK VINA RESULT:      -8.4      3.065      5.924
REMARK  6 active torsions:
REMARK  status: ('A' for Active; 'I' for Inactive)
REMARK    1  A    between atoms: O1_2  and  C2_3 
REMARK    2  A    between atoms: C6_7  and  C7_8 
REMARK    3  A    between atoms: C7_8  and  N1_9 
REMARK    4  A    between atoms: N1_9  and  C8_10 
REMARK    5  A    between atoms: C10_12  and  N2_13 
REMARK    6  A    between atoms: N2_13  and  C11_14 
ROOT
HETATM    1  C8  UNL     1      23.776   3.651  51.939  1.00  0.00     0.120 C 
HETATM    2  C9  UNL     1      24.902   3.707  51.207  1.00  0.00     0.068 C 
HETATM    3  C10 UNL     1      25.899   2.658  51.115  1.00  0.00     0.142 C 
HETATM    4  N3  UNL     1      26.743   2.800  50.175  1.00  0.00    -0.224 NA
HETATM    5  C17 UNL     1      26.753   3.915  49.300  1.00  0.00     0.230 C 
HETATM    6  N4  UNL     1      25.909   4.930  49.416  1.00  0.00    -0.260 NA
HETATM    7  C18 UNL     1      24.957   5.005  50.433  1.00  0.00     0.232 C 
HETATM    8  S1  UNL     1      23.204   5.174  50.089  1.00  0.00    -0.021 SA
HETATM    9  N5  UNL     1      22.794   4.731  51.834  1.00  0.00    -0.314 N 
HETATM   10  H17 UNL     1      22.133   5.078  52.527  1.00  0.00     0.175 HD
ENDROOT
BRANCH   1  11
HETATM   11  N1  UNL     1      23.325   2.557  52.790  1.00  0.00    -0.371 N 
HETATM   12  H9  UNL     1      23.535   2.287  53.777  1.00  0.00     0.161 HD
BRANCH  11  13
HETATM   13  C7  UNL     1      22.402   1.727  52.040  1.00  0.00     0.160 C 
BRANCH  13  14
HETATM   14  C6  UNL     1      21.877   0.580  52.822  1.00  0.00    -0.038 A 
HETATM   15  C5  UNL     1      22.687  -0.231  53.599  1.00  0.00     0.009 A 
HETATM   16  C4  UNL     1      22.092  -1.263  54.280  1.00  0.00     0.003 A 
HETATM   17  C3  UNL     1      20.753  -1.567  54.263  1.00  0.00     0.037 A 
HETATM   18  C2  UNL     1      19.974  -0.744  53.484  1.00  0.00     0.068 A 
HETATM   19  C19 UNL     1      20.522   0.316  52.771  1.00  0.00     0.045 A 
BRANCH  18  20
HETATM   20  O1  UNL     1      18.591  -0.920  53.360  1.00  0.00    -0.356 OA
HETATM   21  C1  UNL     1      17.926  -2.129  53.572  1.00  0.00     0.210 C 
ENDBRANCH  18  20
ENDBRANCH  13  14
ENDBRANCH  11  13
ENDBRANCH   1  11
BRANCH   3  22
HETATM   22  N2  UNL     1      26.012   1.535  51.949  1.00  0.00    -0.340 N 
HETATM   23  H10 UNL     1      25.236   0.875  52.002  1.00  0.00     0.167 HD
BRANCH  22  24
HETATM   24  C11 UNL     1      27.208   1.336  52.709  1.00  0.00     0.035 A 
HETATM   25  C12 UNL     1      27.979   2.229  53.424  1.00  0.00     0.029 A 
HETATM   26  C13 UNL     1      29.096   1.788  54.077  1.00  0.00     0.004 A 
HETATM   27  C14 UNL     1      29.507   0.473  54.063  1.00  0.00     0.024 A 
HETATM   28  C15 UNL     1      28.731  -0.423  53.345  1.00  0.00     0.036 A 
HETATM   29 CL1  UNL     1      29.254  -2.105  53.327  1.00  0.00    -0.084 Cl
HETATM   30  C16 UNL     1      27.586  -0.008  52.667  1.00  0.00     0.053 A 
ENDBRANCH  22  24
ENDBRANCH   3  22
TORSDOF 6
ENDMDL
MODEL 4
REMARK VINA RESULT:      -8.3      1.067      1.592
REMARK  6 active torsions:
REMARK  status: ('A' for Active; 'I' for Inactive)
REMARK    1  A    between atoms: O1_2  and  C2_3 
REMARK    2  A    between atoms: C6_7  and  C7_8 
REMARK    3  A    between atoms: C7_8  and  N1_9 
REMARK    4  A    between atoms: N1_9  and  C8_10 
REMARK    5  A    between atoms: C10_12  and  N2_13 
REMARK    6  A    between atoms: N2_13  and  C11_14 
ROOT
HETATM    1  C8  UNL     1      22.408   0.327  52.452  1.00  0.00     0.120 C 
HETATM    2  C9  UNL     1      23.058  -0.362  53.405  1.00  0.00     0.068 C 
HETATM    3  C10 UNL     1      24.498  -0.428  53.563  1.00  0.00     0.142 C 
HETATM    4  N3  UNL     1      24.897  -0.909  54.670  1.00  0.00    -0.224 NA
HETATM    5  C17 UNL     1      24.015  -1.390  55.671  1.00  0.00     0.230 C 
HETATM    6  N4  UNL     1      22.700  -1.422  55.519  1.00  0.00    -0.260 NA
HETATM    7  C18 UNL     1      22.068  -1.015  54.344  1.00  0.00     0.232 C 
HETATM    8  S1  UNL     1      20.814   0.269  54.329  1.00  0.00    -0.021 SA
HETATM    9  N5  UNL     1      20.948   0.412  52.492  1.00  0.00    -0.314 N 
HETATM   10  H17 UNL     1      20.280   0.515  51.730  1.00  0.00     0.175 HD
ENDROOT
BRANCH   1  11
HETATM   11  N1  UNL     1      22.991   1.129  51.383  1.00  0.00    -0.371 N 
HETATM   12  H9  UNL     1      23.248   0.920  50.393  1.00  0.00     0.161 HD
BRANCH  11  13
HETATM   13  C7  UNL     1      23.231   2.470  51.879  1.00  0.00     0.160 C 
BRANCH  13  14
HETATM   14  C6  UNL     1      23.789   3.384  50.851  1.00  0.00    -0.038 A 
HETATM   15  C5  UNL     1      23.012   4.303  50.164  1.00  0.00     0.009 A 
HETATM   16  C4  UNL     1      23.636   5.098  49.236  1.00  0.00     0.003 A 
HETATM   17  C3  UNL     1      24.972   5.065  48.922  1.00  0.00     0.037 A 
HETATM   18  C2  UNL     1      25.718   4.144  49.621  1.00  0.00     0.068 A 
HETATM   19  C19 UNL     1      25.140   3.313  50.572  1.00  0.00     0.045 A 
BRANCH  18  20
HETATM   20  O1  UNL     1      27.093   3.987  49.419  1.00  0.00    -0.356 OA
HETATM   21  C1  UNL     1      27.883   4.845  48.652  1.00  0.00     0.210 C 
ENDBRANCH  18  20
ENDBRANCH  13  14
ENDBRANCH  11  13
ENDBRANCH   1  11
BRANCH   3  22
HETATM   22  N2  UNL     1      25.461  -0.023  52.626  1.00  0.00    -0.340 N 
HETATM   23  H10 UNL     1      25.288  -0.183  51.634  1.00  0.00     0.167 HD
BRANCH  22  24
HETATM   24  C11 UNL     1      26.667   0.603  53.077  1.00  0.00     0.035 A 
HETATM   25  C12 UNL     1      26.936   1.919  53.391  1.00  0.00     0.029 A 
HETATM   26  C13 UNL     1      28.188   2.274  53.805  1.00  0.00     0.004 A 
HETATM   27  C14 UNL     1      29.225   1.375  53.928  1.00  0.00     0.024 A 
HETATM   28  C15 UNL     1      28.955   0.054  53.612  1.00  0.00     0.036 A 
HETATM   29 CL1  UNL     1      30.277  -1.098  53.769  1.00  0.00    -0.084 Cl
HETATM   30  C16 UNL     1      27.688  -0.345  53.187  1.00  0.00     0.053 A 
ENDBRANCH  22  24
ENDBRANCH   3  22
TORSDOF 6
ENDMDL
MODEL 5
REMARK VINA RESULT:      -8.2      2.613      3.804
REMARK  6 active torsions:
REMARK  status: ('A' for Active; 'I' for Inactive)
REMARK    1  A    between atoms: O1_2  and  C2_3 
REMARK    2  A    between atoms: C6_7  and  C7_8 
REMARK    3  A    between atoms: C7_8  and  N1_9 
REMARK    4  A    between atoms: N1_9  and  C8_10 
REMARK    5  A    between atoms: C10_12  and  N2_13 
REMARK    6  A    between atoms: N2_13  and  C11_14 
ROOT
HETATM    1  C8  UNL     1      24.652   3.823  51.123  1.00  0.00     0.120 C 
HETATM    2  C9  UNL     1      24.081   2.715  51.623  1.00  0.00     0.068 C 
HETATM    3  C10 UNL     1      24.770   1.475  51.924  1.00  0.00     0.142 C 
HETATM    4  N3  UNL     1      24.109   0.649  52.629  1.00  0.00    -0.224 NA
HETATM    5  C17 UNL     1      22.780   0.886  53.062  1.00  0.00     0.230 C 
HETATM    6  N4  UNL     1      22.095   1.970  52.729  1.00  0.00    -0.260 NA
HETATM    7  C18 UNL     1      22.614   2.961  51.894  1.00  0.00     0.232 C 
HETATM    8  S1  UNL     1      22.730   4.677  52.406  1.00  0.00    -0.021 SA
HETATM    9  N5  UNL     1      23.860   5.047  50.992  1.00  0.00    -0.314 N 
HETATM   10  H17 UNL     1      23.948   5.811  50.325  1.00  0.00     0.175 HD
ENDROOT
BRANCH   1  11
HETATM   11  N1  UNL     1      26.053   4.017  50.768  1.00  0.00    -0.371 N 
HETATM   12  H9  UNL     1      26.918   4.165  51.332  1.00  0.00     0.161 HD
BRANCH  11  13
HETATM   13  C7  UNL     1      26.181   3.980  49.324  1.00  0.00     0.160 C 
BRANCH  13  14
HETATM   14  C6  UNL     1      26.896   5.157  48.769  1.00  0.00    -0.038 A 
HETATM   15  C5  UNL     1      26.264   6.358  48.496  1.00  0.00     0.009 A 
HETATM   16  C4  UNL     1      27.025   7.379  47.986  1.00  0.00     0.003 A 
HETATM   17  C3  UNL     1      28.371   7.318  47.719  1.00  0.00     0.037 A 
HETATM   18  C2  UNL     1      28.972   6.113  48.001  1.00  0.00     0.068 A 
HETATM   19  C19 UNL     1      28.251   5.045  48.518  1.00  0.00     0.045 A 
BRANCH  18  20
HETATM   20  O1  UNL     1      30.336   5.889  47.786  1.00  0.00    -0.356 OA
HETATM   21  C1  UNL     1      31.312   5.939  48.783  1.00  0.00     0.210 C 
ENDBRANCH  18  20
ENDBRANCH  13  14
ENDBRANCH  11  13
ENDBRANCH   1  11
BRANCH   3  22
HETATM   22  N2  UNL     1      26.063   1.116  51.514  1.00  0.00    -0.340 N 
HETATM   23  H10 UNL     1      26.227   0.880  50.535  1.00  0.00     0.167 HD
BRANCH  22  24
HETATM   24  C11 UNL     1      27.126   1.084  52.472  1.00  0.00     0.035 A 
HETATM   25  C12 UNL     1      27.645   2.079  53.275  1.00  0.00     0.029 A 
HETATM   26  C13 UNL     1      28.679   1.796  54.122  1.00  0.00     0.004 A 
HETATM   27  C14 UNL     1      29.248   0.545  54.224  1.00  0.00     0.024 A 
HETATM   28  C15 UNL     1      28.726  -0.454  53.419  1.00  0.00     0.036 A 
HETATM   29 CL1  UNL     1      29.451  -2.054  53.549  1.00  0.00    -0.084 Cl
HETATM   30  C16 UNL     1      27.672  -0.200  52.543  1.00  0.00     0.053 A 
ENDBRANCH  22  24
ENDBRANCH   3  22
TORSDOF 6
ENDMDL
MODEL 6
REMARK VINA RESULT:      -8.2      2.903      5.764
REMARK  6 active torsions:
REMARK  status: ('A' for Active; 'I' for Inactive)
REMARK    1  A    between atoms: O1_2  and  C2_3 
REMARK    2  A    between atoms: C6_7  and  C7_8 
REMARK    3  A    between atoms: C7_8  and  N1_9 
REMARK    4  A    between atoms: N1_9  and  C8_10 
REMARK    5  A    between atoms: C10_12  and  N2_13 
REMARK    6  A    between atoms: N2_13  and  C11_14 
ROOT
HETATM    1  C8  UNL     1      23.506   3.733  51.495  1.00  0.00     0.120 C 
HETATM    2  C9  UNL     1      24.744   3.773  50.974  1.00  0.00     0.068 C 
HETATM    3  C10 UNL     1      25.820   2.855  51.291  1.00  0.00     0.142 C 
HETATM    4  N3  UNL     1      26.817   2.902  50.504  1.00  0.00    -0.224 NA
HETATM    5  C17 UNL     1      26.906   3.808  49.416  1.00  0.00     0.230 C 
HETATM    6  N4  UNL     1      25.978   4.716  49.155  1.00  0.00    -0.260 NA
HETATM    7  C18 UNL     1      24.843   4.882  49.951  1.00  0.00     0.232 C 
HETATM    8  S1  UNL     1      23.182   4.764  49.282  1.00  0.00    -0.021 SA
HETATM    9  N5  UNL     1      22.479   4.642  50.985  1.00  0.00    -0.314 N 
HETATM   10  H17 UNL     1      21.670   5.041  51.458  1.00  0.00     0.175 HD
ENDROOT
BRANCH   1  11
HETATM   11  N1  UNL     1      22.987   2.790  52.479  1.00  0.00    -0.371 N 
HETATM   12  H9  UNL     1      22.987   2.776  53.523  1.00  0.00     0.161 HD
BRANCH  11  13
HETATM   13  C7  UNL     1      22.363   1.681  51.784  1.00  0.00     0.160 C 
BRANCH  13  14
HETATM   14  C6  UNL     1      21.885   0.612  52.696  1.00  0.00    -0.038 A 
HETATM   15  C5  UNL     1      20.579   0.150  52.691  1.00  0.00     0.009 A 
HETATM   16  C4  UNL     1      20.251  -0.843  53.578  1.00  0.00     0.003 A 
HETATM   17  C3  UNL     1      21.106  -1.427  54.480  1.00  0.00     0.037 A 
HETATM   18  C2  UNL     1      22.396  -0.949  54.461  1.00  0.00     0.068 A 
HETATM   19  C19 UNL     1      22.786   0.056  53.584  1.00  0.00     0.045 A 
BRANCH  18  20
HETATM   20  O1  UNL     1      23.388  -1.440  55.316  1.00  0.00    -0.356 OA
HETATM   21  C1  UNL     1      24.722  -1.027  55.298  1.00  0.00     0.210 C 
ENDBRANCH  18  20
ENDBRANCH  13  14
ENDBRANCH  11  13
ENDBRANCH   1  11
BRANCH   3  22
HETATM   22  N2  UNL     1      25.860   1.949  52.362  1.00  0.00    -0.340 N 
HETATM   23  H10 UNL     1      24.985   1.569  52.723  1.00  0.00     0.167 HD
BRANCH  22  24
HETATM   24  C11 UNL     1      27.120   1.576  52.928  1.00  0.00     0.035 A 
HETATM   25  C12 UNL     1      28.093   2.338  53.540  1.00  0.00     0.029 A 
HETATM   26  C13 UNL     1      29.229   1.740  54.006  1.00  0.00     0.004 A 
HETATM   27  C14 UNL     1      29.468   0.388  53.896  1.00  0.00     0.024 A 
HETATM   28  C15 UNL     1      28.491  -0.378  53.281  1.00  0.00     0.036 A 
HETATM   29 CL1  UNL     1      28.793  -2.107  53.140  1.00  0.00    -0.084 Cl
HETATM   30  C16 UNL     1      27.319   0.199  52.794  1.00  0.00     0.053 A 
ENDBRANCH  22  24
ENDBRANCH   3  22
TORSDOF 6
ENDMDL
MODEL 7
REMARK VINA RESULT:      -8.2      3.225      5.179
REMARK  6 active torsions:
REMARK  status: ('A' for Active; 'I' for Inactive)
REMARK    1  A    between atoms: O1_2  and  C2_3 
REMARK    2  A    between atoms: C6_7  and  C7_8 
REMARK    3  A    between atoms: C7_8  and  N1_9 
REMARK    4  A    between atoms: N1_9  and  C8_10 
REMARK    5  A    between atoms: C10_12  and  N2_13 
REMARK    6  A    between atoms: N2_13  and  C11_14 
ROOT
HETATM    1  C8  UNL     1      26.881   1.799  53.502  1.00  0.00     0.120 C 
HETATM    2  C9  UNL     1      26.951   0.459  53.436  1.00  0.00     0.068 C 
HETATM    3  C10 UNL     1      25.988  -0.403  52.778  1.00  0.00     0.142 C 
HETATM    4  N3  UNL     1      26.371  -1.602  52.602  1.00  0.00    -0.224 NA
HETATM    5  C17 UNL     1      27.626  -2.090  53.046  1.00  0.00     0.230 C 
HETATM    6  N4  UNL     1      28.489  -1.349  53.726  1.00  0.00    -0.260 NA
HETATM    7  C18 UNL     1      28.223  -0.029  54.092  1.00  0.00     0.232 C 
HETATM    8  S1  UNL     1      29.296   1.329  53.618  1.00  0.00    -0.021 SA
HETATM    9  N5  UNL     1      27.993   2.552  54.084  1.00  0.00    -0.314 N 
HETATM   10  H17 UNL     1      27.989   3.447  54.571  1.00  0.00     0.175 HD
ENDROOT
BRANCH   1  11
HETATM   11  N1  UNL     1      25.840   2.662  52.954  1.00  0.00    -0.371 N 
HETATM   12  H9  UNL     1      24.984   3.096  53.365  1.00  0.00     0.161 HD
BRANCH  11  13
HETATM   13  C7  UNL     1      26.129   2.918  51.557  1.00  0.00     0.160 C 
BRANCH  13  14
HETATM   14  C6  UNL     1      25.024   3.610  50.848  1.00  0.00    -0.038 A 
HETATM   15  C5  UNL     1      25.143   4.077  49.549  1.00  0.00     0.009 A 
HETATM   16  C4  UNL     1      24.056   4.702  48.993  1.00  0.00     0.003 A 
HETATM   17  C3  UNL     1      22.848   4.908  49.612  1.00  0.00     0.037 A 
HETATM   18  C2  UNL     1      22.759   4.433  50.900  1.00  0.00     0.068 A 
HETATM   19  C19 UNL     1      23.828   3.793  51.514  1.00  0.00     0.045 A 
BRANCH  18  20
HETATM   20  O1  UNL     1      21.595   4.563  51.667  1.00  0.00    -0.356 OA
HETATM   21  C1  UNL     1      20.924   3.499  52.272  1.00  0.00     0.210 C 
ENDBRANCH  18  20
ENDBRANCH  13  14
ENDBRANCH  11  13
ENDBRANCH   1  11
BRANCH   3  22
HETATM   22  N2  UNL     1      24.706  -0.041  52.336  1.00  0.00    -0.340 N 
HETATM   23  H10 UNL     1      24.604   0.420  51.432  1.00  0.00     0.167 HD
BRANCH  22  24
HETATM   24  C11 UNL     1      23.569  -0.322  53.157  1.00  0.00     0.035 A 
HETATM   25  C12 UNL     1      23.487  -0.790  54.453  1.00  0.00     0.029 A 
HETATM   26  C13 UNL     1      22.263  -0.982  55.028  1.00  0.00     0.004 A 
HETATM   27  C14 UNL     1      21.076  -0.730  54.375  1.00  0.00     0.024 A 
HETATM   28  C15 UNL     1      21.158  -0.260  53.074  1.00  0.00     0.036 A 
HETATM   29 CL1  UNL     1      19.643   0.063  52.237  1.00  0.00    -0.084 Cl
HETATM   30  C16 UNL     1      22.391  -0.053  52.456  1.00  0.00     0.053 A 
ENDBRANCH  22  24
ENDBRANCH   3  22
TORSDOF 6
ENDMDL
MODEL 8
REMARK VINA RESULT:      -8.2      2.445      3.573
REMARK  6 active torsions:
REMARK  status: ('A' for Active; 'I' for Inactive)
REMARK    1  A    between atoms: O1_2  and  C2_3 
REMARK    2  A    between atoms: C6_7  and  C7_8 
REMARK    3  A    between atoms: C7_8  and  N1_9 
REMARK    4  A    between atoms: N1_9  and  C8_10 
REMARK    5  A    between atoms: C10_12  and  N2_13 
REMARK    6  A    between atoms: N2_13  and  C11_14 
ROOT
HETATM    1  C8  UNL     1      24.925   3.295  50.385  1.00  0.00     0.120 C 
HETATM    2  C9  UNL     1      24.466   2.432  51.307  1.00  0.00     0.068 C 
HETATM    3  C10 UNL     1      25.067   2.185  52.603  1.00  0.00     0.142 C 
HETATM    4  N3  UNL     1      24.340   1.538  53.420  1.00  0.00    -0.224 NA
HETATM    5  C17 UNL     1      23.050   1.049  53.093  1.00  0.00     0.230 C 
HETATM    6  N4  UNL     1      22.511   1.184  51.890  1.00  0.00    -0.260 NA
HETATM    7  C18 UNL     1      23.181   1.793  50.829  1.00  0.00     0.232 C 
HETATM    8  S1  UNL     1      22.502   3.203  49.953  1.00  0.00    -0.021 SA
HETATM    9  N5  UNL     1      24.142   3.540  49.173  1.00  0.00    -0.314 N 
HETATM   10  H17 UNL     1      24.452   3.805  48.240  1.00  0.00     0.175 HD
ENDROOT
BRANCH   1  11
HETATM   11  N1  UNL     1      26.108   4.143  50.474  1.00  0.00    -0.371 N 
HETATM   12  H9  UNL     1      26.441   4.830  51.186  1.00  0.00     0.161 HD
BRANCH  11  13
HETATM   13  C7  UNL     1      26.933   3.925  49.302  1.00  0.00     0.160 C 
BRANCH  13  14
HETATM   14  C6  UNL     1      27.409   5.185  48.679  1.00  0.00    -0.038 A 
HETATM   15  C5  UNL     1      28.721   5.371  48.273  1.00  0.00     0.009 A 
HETATM   16  C4  UNL     1      29.049   6.578  47.708  1.00  0.00     0.003 A 
HETATM   17  C3  UNL     1      28.187   7.627  47.506  1.00  0.00     0.037 A 
HETATM   18  C2  UNL     1      26.893   7.413  47.917  1.00  0.00     0.068 A 
HETATM   19  C19 UNL     1      26.503   6.212  48.496  1.00  0.00     0.045 A 
BRANCH  18  20
HETATM   20  O1  UNL     1      25.893   8.383  47.781  1.00  0.00    -0.356 OA
HETATM   21  C1  UNL     1      24.948   8.688  48.762  1.00  0.00     0.210 C 
ENDBRANCH  18  20
ENDBRANCH  13  14
ENDBRANCH  11  13
ENDBRANCH   1  11
BRANCH   3  22
HETATM   22  N2  UNL     1      26.347   2.583  53.021  1.00  0.00    -0.340 N 
HETATM   23  H10 UNL     1      26.538   3.575  53.162  1.00  0.00     0.167 HD
BRANCH  22  24
HETATM   24  C11 UNL     1      27.359   1.595  53.239  1.00  0.00     0.035 A 
HETATM   25  C12 UNL     1      28.636   1.711  53.748  1.00  0.00     0.029 A 
HETATM   26  C13 UNL     1      29.424   0.601  53.858  1.00  0.00     0.004 A 
HETATM   27  C14 UNL     1      29.011  -0.658  53.481  1.00  0.00     0.024 A 
HETATM   28  C15 UNL     1      27.728  -0.774  52.970  1.00  0.00     0.036 A 
HETATM   29 CL1  UNL     1      27.196  -2.382  52.487  1.00  0.00    -0.084 Cl
HETATM   30  C16 UNL     1      26.896   0.337  52.843  1.00  0.00     0.053 A 
ENDBRANCH  22  24
ENDBRANCH   3  22
TORSDOF 6
ENDMDL
MODEL 9
REMARK VINA RESULT:      -8.1      4.053      7.363
REMARK  6 active torsions:
REMARK  status: ('A' for Active; 'I' for Inactive)
REMARK    1  A    between atoms: O1_2  and  C2_3 
REMARK    2  A    between atoms: C6_7  and  C7_8 
REMARK    3  A    between atoms: C7_8  and  N1_9 
REMARK    4  A    between atoms: N1_9  and  C8_10 
REMARK    5  A    between atoms: C10_12  and  N2_13 
REMARK    6  A    between atoms: N2_13  and  C11_14 
ROOT
HETATM    1  C8  UNL     1      25.521   4.408  50.255  1.00  0.00     0.120 C 
HETATM    2  C9  UNL     1      24.407   5.027  49.828  1.00  0.00     0.068 C 
HETATM    3  C10 UNL     1      23.122   5.005  50.498  1.00  0.00     0.142 C 
HETATM    4  N3  UNL     1      22.280   5.860  50.077  1.00  0.00    -0.224 NA
HETATM    5  C17 UNL     1      22.546   6.749  49.004  1.00  0.00     0.230 C 
HETATM    6  N4  UNL     1      23.678   6.732  48.317  1.00  0.00    -0.260 NA
HETATM    7  C18 UNL     1      24.698   5.814  48.570  1.00  0.00     0.232 C 
HETATM    8  S1  UNL     1      26.370   6.329  48.969  1.00  0.00    -0.021 SA
HETATM    9  N5  UNL     1      26.783   4.625  49.548  1.00  0.00    -0.314 N 
HETATM   10  H17 UNL     1      27.585   4.006  49.443  1.00  0.00     0.175 HD
ENDROOT
BRANCH   1  11
HETATM   11  N1  UNL     1      25.676   3.586  51.450  1.00  0.00    -0.371 N 
HETATM   12  H9  UNL     1      25.339   3.686  52.433  1.00  0.00     0.161 HD
BRANCH  11  13
HETATM   13  C7  UNL     1      26.468   2.418  51.118  1.00  0.00     0.160 C 
BRANCH  13  14
HETATM   14  C6  UNL     1      26.204   1.259  52.006  1.00  0.00    -0.038 A 
HETATM   15  C5  UNL     1      24.925   0.858  52.355  1.00  0.00     0.009 A 
HETATM   16  C4  UNL     1      24.800  -0.229  53.183  1.00  0.00     0.003 A 
HETATM   17  C3  UNL     1      25.838  -0.962  53.703  1.00  0.00     0.037 A 
HETATM   18  C2  UNL     1      27.095  -0.541  53.339  1.00  0.00     0.068 A 
HETATM   19  C19 UNL     1      27.282   0.553  52.504  1.00  0.00     0.045 A 
BRANCH  18  20
HETATM   20  O1  UNL     1      28.257  -1.182  53.784  1.00  0.00    -0.356 OA
HETATM   21  C1  UNL     1      29.549  -0.676  53.625  1.00  0.00     0.210 C 
ENDBRANCH  18  20
ENDBRANCH  13  14
ENDBRANCH  11  13
ENDBRANCH   1  11
BRANCH   3  22
HETATM   22  N2  UNL     1      22.734   4.146  51.538  1.00  0.00    -0.340 N 
HETATM   23  H10 UNL     1      22.827   4.461  52.504  1.00  0.00     0.167 HD
BRANCH  22  24
HETATM   24  C11 UNL     1      22.221   2.847  51.228  1.00  0.00     0.035 A 
HETATM   25  C12 UNL     1      22.204   2.145  50.041  1.00  0.00     0.029 A 
HETATM   26  C13 UNL     1      21.645   0.899  49.999  1.00  0.00     0.004 A 
HETATM   27  C14 UNL     1      21.083   0.287  51.098  1.00  0.00     0.024 A 
HETATM   28  C15 UNL     1      21.100   0.992  52.290  1.00  0.00     0.036 A 
HETATM   29 CL1  UNL     1      20.383   0.213  53.697  1.00  0.00    -0.084 Cl
HETATM   30  C16 UNL     1      21.662   2.266  52.370  1.00  0.00     0.053 A 
ENDBRANCH  22  24
ENDBRANCH   3  22
TORSDOF 6
ENDMDL
