MODEL 1
REMARK VINA RESULT:      -8.1      0.000      0.000
REMARK  6 active torsions:
REMARK  status: ('A' for Active; 'I' for Inactive)
REMARK    1  A    between atoms: C2_2  and  C3_3 
REMARK    2  A    between atoms: C3_3  and  C4_4 
REMARK    3  A    between atoms: C4_4  and  O1_5 
REMARK    4  A    between atoms: O1_5  and  C5_6 
REMARK    5  A    between atoms: C11_12  and  N1_13 
REMARK    6  A    between atoms: C16_19  and  O2_20 
ROOT
HETATM    1  C5  UNL     1      22.058  -0.563  53.422  1.00  0.00     0.069 A 
HETATM    2  C6  UNL     1      22.020   0.392  52.432  1.00  0.00     0.037 A 
HETATM    3  C7  UNL     1      23.158   1.088  52.008  1.00  0.00     0.011 A 
HETATM    4  C8  UNL     1      24.320   0.739  52.664  1.00  0.00    -0.044 A 
HETATM    5  C9  UNL     1      24.394  -0.227  53.675  1.00  0.00    -0.016 A 
HETATM    6  C10 UNL     1      23.235  -0.871  54.039  1.00  0.00     0.046 A 
HETATM    7  C11 UNL     1      25.531  -0.759  54.511  1.00  0.00     0.254 C 
HETATM    8  C12 UNL     1      26.479   0.434  54.694  1.00  0.00     0.078 C 
HETATM    9  C13 UNL     1      27.662   0.401  53.809  1.00  0.00     0.079 C 
HETATM   10  C14 UNL     1      28.856  -0.151  54.526  1.00  0.00     0.046 C 
HETATM   11  N2  UNL     1      27.428  -0.039  52.455  1.00  0.00    -0.376 N 
HETATM   12  C15 UNL     1      26.729   1.233  52.466  1.00  0.00     0.042 C 
HETATM   13  C16 UNL     1      27.885   1.670  53.023  1.00  0.00     0.093 C 
HETATM   14  C17 UNL     1      25.347   1.630  52.011  1.00  0.00     0.098 C 
HETATM   15  H21 UNL     1      27.808  -0.966  52.069  1.00  0.00     0.160 HD
ENDROOT
BRANCH   1  16
HETATM   16  O1  UNL     1      20.876  -1.177  53.750  1.00  0.00    -0.351 OA
BRANCH  16  17
HETATM   17  C4  UNL     1      19.665  -0.456  53.608  1.00  0.00     0.175 C 
BRANCH  17  18
HETATM   18  C3  UNL     1      18.571  -1.459  53.334  1.00  0.00     0.026 C 
BRANCH  18  19
HETATM   19  C2  UNL     1      17.675  -0.893  52.248  1.00  0.00    -0.002 C 
HETATM   20  C1  UNL     1      18.428   0.012  51.314  1.00  0.00     0.005 C 
ENDBRANCH  18  19
ENDBRANCH  17  18
ENDBRANCH  16  17
ENDBRANCH   1  16
BRANCH   7  21
HETATM   21  N1  UNL     1      25.000  -1.219  55.784  1.00  0.00     0.087 N 
HETATM   22  H14 UNL     1      25.739  -1.610  56.404  1.00  0.00     0.313 HD
HETATM   23  H15 UNL     1      24.219  -1.922  55.634  1.00  0.00     0.313 HD
ENDBRANCH   7  21
BRANCH  13  24
HETATM   24  O2  UNL     1      28.979   2.561  53.188  1.00  0.00    -0.360 OA
HETATM   25  H22 UNL     1      29.142   3.188  52.405  1.00  0.00     0.217 HD
ENDBRANCH  13  24
TORSDOF 6
ENDMDL
MODEL 2
REMARK VINA RESULT:      -7.7      2.155      3.397
REMARK  6 active torsions:
REMARK  status: ('A' for Active; 'I' for Inactive)
REMARK    1  A    between atoms: C2_2  and  C3_3 
REMARK    2  A    between atoms: C3_3  and  C4_4 
REMARK    3  A    between atoms: C4_4  and  O1_5 
REMARK    4  A    between atoms: O1_5  and  C5_6 
REMARK    5  A    between atoms: C11_12  and  N1_13 
REMARK    6  A    between atoms: C16_19  and  O2_20 
ROOT
HETATM    1  C5  UNL     1      22.073   1.205  52.423  1.00  0.00     0.069 A 
HETATM    2  C6  UNL     1      22.073  -0.082  52.908  1.00  0.00     0.037 A 
HETATM    3  C7  UNL     1      23.223  -0.702  53.408  1.00  0.00     0.011 A 
HETATM    4  C8  UNL     1      24.357   0.082  53.375  1.00  0.00    -0.044 A 
HETATM    5  C9  UNL     1      24.393   1.395  52.888  1.00  0.00    -0.016 A 
HETATM    6  C10 UNL     1      23.223   1.939  52.413  1.00  0.00     0.046 A 
HETATM    7  C11 UNL     1      25.494   2.416  52.759  1.00  0.00     0.254 C 
HETATM    8  C12 UNL     1      26.763   1.597  52.486  1.00  0.00     0.078 C 
HETATM    9  C13 UNL     1      27.629   1.422  53.671  1.00  0.00     0.079 C 
HETATM   10  C14 UNL     1      28.749   2.417  53.672  1.00  0.00     0.046 C 
HETATM   11  N2  UNL     1      26.953   1.171  54.920  1.00  0.00    -0.376 N 
HETATM   12  C15 UNL     1      26.679  -0.057  54.195  1.00  0.00     0.042 C 
HETATM   13  C16 UNL     1      28.012  -0.011  53.954  1.00  0.00     0.093 C 
HETATM   14  C17 UNL     1      25.405  -0.830  53.962  1.00  0.00     0.098 C 
HETATM   15  H21 UNL     1      26.939   1.877  55.728  1.00  0.00     0.160 HD
ENDROOT
BRANCH   1  16
HETATM   16  O1  UNL     1      20.882   1.705  51.959  1.00  0.00    -0.351 OA
BRANCH  16  17
HETATM   17  C4  UNL     1      20.844   2.306  50.677  1.00  0.00     0.175 C 
BRANCH  17  18
HETATM   18  C3  UNL     1      20.541   1.216  49.676  1.00  0.00     0.026 C 
BRANCH  18  19
HETATM   19  C2  UNL     1      21.598   1.269  48.588  1.00  0.00    -0.002 C 
HETATM   20  C1  UNL     1      22.567   2.398  48.802  1.00  0.00     0.005 C 
ENDBRANCH  18  19
ENDBRANCH  17  18
ENDBRANCH  16  17
ENDBRANCH   1  16
BRANCH   7  21
HETATM   21  N1  UNL     1      25.182   3.303  51.650  1.00  0.00     0.087 N 
HETATM   22  H14 UNL     1      25.691   3.043  50.779  1.00  0.00     0.313 HD
HETATM   23  H15 UNL     1      25.368   4.314  51.912  1.00  0.00     0.313 HD
ENDBRANCH   7  21
BRANCH  13  24
HETATM   24  O2  UNL     1      29.324  -0.549  53.860  1.00  0.00    -0.360 OA
HETATM   25  H22 UNL     1      29.939  -0.066  53.210  1.00  0.00     0.217 HD
ENDBRANCH  13  24
TORSDOF 6
ENDMDL
MODEL 3
REMARK VINA RESULT:      -7.6      2.549      7.069
REMARK  6 active torsions:
REMARK  status: ('A' for Active; 'I' for Inactive)
REMARK    1  A    between atoms: C2_2  and  C3_3 
REMARK    2  A    between atoms: C3_3  and  C4_4 
REMARK    3  A    between atoms: C4_4  and  O1_5 
REMARK    4  A    between atoms: O1_5  and  C5_6 
REMARK    5  A    between atoms: C11_12  and  N1_13 
REMARK    6  A    between atoms: C16_19  and  O2_20 
ROOT
HETATM    1  C5  UNL     1      26.307   1.078  54.146  1.00  0.00     0.069 A 
HETATM    2  C6  UNL     1      25.820  -0.183  54.402  1.00  0.00     0.037 A 
HETATM    3  C7  UNL     1      24.566  -0.614  53.957  1.00  0.00     0.011 A 
HETATM    4  C8  UNL     1      23.857   0.328  53.240  1.00  0.00    -0.044 A 
HETATM    5  C9  UNL     1      24.323   1.619  52.961  1.00  0.00    -0.016 A 
HETATM    6  C10 UNL     1      25.566   1.973  53.431  1.00  0.00     0.046 A 
HETATM    7  C11 UNL     1      23.733   2.787  52.212  1.00  0.00     0.254 C 
HETATM    8  C12 UNL     1      22.221   2.690  52.454  1.00  0.00     0.078 C 
HETATM    9  C13 UNL     1      21.469   2.116  51.319  1.00  0.00     0.079 C 
HETATM   10  C14 UNL     1      20.864   3.193  50.472  1.00  0.00     0.046 C 
HETATM   11  N2  UNL     1      22.090   1.001  50.645  1.00  0.00    -0.376 N 
HETATM   12  C15 UNL     1      21.767   0.412  51.932  1.00  0.00     0.042 C 
HETATM   13  C16 UNL     1      20.556   0.973  51.693  1.00  0.00     0.093 C 
HETATM   14  C17 UNL     1      22.583  -0.405  52.902  1.00  0.00     0.098 C 
HETATM   15  H21 UNL     1      22.465   1.062  49.642  1.00  0.00     0.160 HD
ENDROOT
BRANCH   1  16
HETATM   16  O1  UNL     1      27.551   1.385  54.636  1.00  0.00    -0.351 OA
BRANCH  16  17
HETATM   17  C4  UNL     1      28.472   0.335  54.874  1.00  0.00     0.175 C 
BRANCH  17  18
HETATM   18  C3  UNL     1      29.442   0.315  53.717  1.00  0.00     0.026 C 
BRANCH  18  19
HETATM   19  C2  UNL     1      30.037  -1.078  53.625  1.00  0.00    -0.002 C 
HETATM   20  C1  UNL     1      29.016  -2.098  53.206  1.00  0.00     0.005 C 
ENDBRANCH  18  19
ENDBRANCH  17  18
ENDBRANCH  16  17
ENDBRANCH   1  16
BRANCH   7  21
HETATM   21  N1  UNL     1      24.283   4.018  52.758  1.00  0.00     0.087 N 
HETATM   22  H14 UNL     1      25.285   4.148  52.508  1.00  0.00     0.313 HD
HETATM   23  H15 UNL     1      24.144   4.059  53.809  1.00  0.00     0.313 HD
ENDBRANCH   7  21
BRANCH  13  24
HETATM   24  O2  UNL     1      19.137   0.997  51.636  1.00  0.00    -0.360 OA
HETATM   25  H22 UNL     1      18.748   1.250  50.732  1.00  0.00     0.217 HD
ENDBRANCH  13  24
TORSDOF 6
ENDMDL
MODEL 4
REMARK VINA RESULT:      -7.5      3.003      4.520
REMARK  6 active torsions:
REMARK  status: ('A' for Active; 'I' for Inactive)
REMARK    1  A    between atoms: C2_2  and  C3_3 
REMARK    2  A    between atoms: C3_3  and  C4_4 
REMARK    3  A    between atoms: C4_4  and  O1_5 
REMARK    4  A    between atoms: O1_5  and  C5_6 
REMARK    5  A    between atoms: C11_12  and  N1_13 
REMARK    6  A    between atoms: C16_19  and  O2_20 
ROOT
HETATM    1  C5  UNL     1      23.299   3.197  52.456  1.00  0.00     0.069 A 
HETATM    2  C6  UNL     1      22.454   2.124  52.619  1.00  0.00     0.037 A 
HETATM    3  C7  UNL     1      22.917   0.822  52.838  1.00  0.00     0.011 A 
HETATM    4  C8  UNL     1      24.291   0.702  52.876  1.00  0.00    -0.044 A 
HETATM    5  C9  UNL     1      25.180   1.772  52.714  1.00  0.00    -0.016 A 
HETATM    6  C10 UNL     1      24.652   3.024  52.504  1.00  0.00     0.046 A 
HETATM    7  C11 UNL     1      26.684   1.871  52.719  1.00  0.00     0.254 C 
HETATM    8  C12 UNL     1      27.171   0.539  52.132  1.00  0.00     0.078 C 
HETATM    9  C13 UNL     1      27.644  -0.425  53.146  1.00  0.00     0.079 C 
HETATM   10  C14 UNL     1      29.137  -0.389  53.270  1.00  0.00     0.046 C 
HETATM   11  N2  UNL     1      26.871  -0.498  54.363  1.00  0.00    -0.376 N 
HETATM   12  C15 UNL     1      25.940  -1.056  53.399  1.00  0.00     0.042 C 
HETATM   13  C16 UNL     1      27.019  -1.795  53.041  1.00  0.00     0.093 C 
HETATM   14  C17 UNL     1      24.485  -0.774  53.120  1.00  0.00     0.098 C 
HETATM   15  H21 UNL     1      27.246  -0.167  55.312  1.00  0.00     0.160 HD
ENDROOT
BRANCH   1  16
HETATM   16  O1  UNL     1      22.725   4.426  52.248  1.00  0.00    -0.351 OA
BRANCH  16  17
HETATM   17  C4  UNL     1      23.215   5.243  51.199  1.00  0.00     0.175 C 
BRANCH  17  18
HETATM   18  C3  UNL     1      22.453   4.876  49.948  1.00  0.00     0.026 C 
BRANCH  18  19
HETATM   19  C2  UNL     1      23.423   4.225  48.979  1.00  0.00    -0.002 C 
HETATM   20  C1  UNL     1      23.079   2.785  48.724  1.00  0.00     0.005 C 
ENDBRANCH  18  19
ENDBRANCH  17  18
ENDBRANCH  16  17
ENDBRANCH   1  16
BRANCH   7  21
HETATM   21  N1  UNL     1      27.081   2.998  51.890  1.00  0.00     0.087 N 
HETATM   22  H14 UNL     1      28.074   2.934  51.585  1.00  0.00     0.313 HD
HETATM   23  H15 UNL     1      26.894   3.916  52.388  1.00  0.00     0.313 HD
ENDBRANCH   7  21
BRANCH  13  24
HETATM   24  O2  UNL     1      27.702  -2.990  52.688  1.00  0.00    -0.360 OA
HETATM   25  H22 UNL     1      27.231  -3.563  51.994  1.00  0.00     0.217 HD
ENDBRANCH  13  24
TORSDOF 6
ENDMDL
MODEL 5
REMARK VINA RESULT:      -7.5      1.707      2.738
REMARK  6 active torsions:
REMARK  status: ('A' for Active; 'I' for Inactive)
REMARK    1  A    between atoms: C2_2  and  C3_3 
REMARK    2  A    between atoms: C3_3  and  C4_4 
REMARK    3  A    between atoms: C4_4  and  O1_5 
REMARK    4  A    between atoms: O1_5  and  C5_6 
REMARK    5  A    between atoms: C11_12  and  N1_13 
REMARK    6  A    between atoms: C16_19  and  O2_20 
ROOT
HETATM    1  C5  UNL     1      21.924   1.260  52.540  1.00  0.00     0.069 A 
HETATM    2  C6  UNL     1      21.951  -0.061  52.922  1.00  0.00     0.037 A 
HETATM    3  C7  UNL     1      23.124  -0.707  53.331  1.00  0.00     0.011 A 
HETATM    4  C8  UNL     1      24.250   0.090  53.320  1.00  0.00    -0.044 A 
HETATM    5  C9  UNL     1      24.258   1.437  52.937  1.00  0.00    -0.016 A 
HETATM    6  C10 UNL     1      23.067   2.005  52.548  1.00  0.00     0.046 A 
HETATM    7  C11 UNL     1      25.346   2.477  52.850  1.00  0.00     0.254 C 
HETATM    8  C12 UNL     1      26.611   1.695  52.469  1.00  0.00     0.078 C 
HETATM    9  C13 UNL     1      27.520   1.437  53.605  1.00  0.00     0.079 C 
HETATM   10  C14 UNL     1      28.631   2.441  53.645  1.00  0.00     0.046 C 
HETATM   11  N2  UNL     1      26.891   1.082  54.853  1.00  0.00    -0.376 N 
HETATM   12  C15 UNL     1      26.601  -0.088  54.044  1.00  0.00     0.042 C 
HETATM   13  C16 UNL     1      27.924  -0.009  53.761  1.00  0.00     0.093 C 
HETATM   14  C17 UNL     1      25.326  -0.854  53.796  1.00  0.00     0.098 C 
HETATM   15  H21 UNL     1      26.900   1.722  55.714  1.00  0.00     0.160 HD
ENDROOT
BRANCH   1  16
HETATM   16  O1  UNL     1      20.713   1.782  52.160  1.00  0.00    -0.351 OA
BRANCH  16  17
HETATM   17  C4  UNL     1      19.941   1.088  51.195  1.00  0.00     0.175 C 
BRANCH  17  18
HETATM   18  C3  UNL     1      18.545   0.945  51.753  1.00  0.00     0.026 C 
BRANCH  18  19
HETATM   19  C2  UNL     1      18.198  -0.532  51.781  1.00  0.00    -0.002 C 
HETATM   20  C1  UNL     1      18.231  -1.090  53.177  1.00  0.00     0.005 C 
ENDBRANCH  18  19
ENDBRANCH  17  18
ENDBRANCH  16  17
ENDBRANCH   1  16
BRANCH   7  21
HETATM   21  N1  UNL     1      24.987   3.445  51.826  1.00  0.00     0.087 N 
HETATM   22  H14 UNL     1      24.491   4.271  52.218  1.00  0.00     0.313 HD
HETATM   23  H15 UNL     1      24.415   2.986  51.058  1.00  0.00     0.313 HD
ENDBRANCH   7  21
BRANCH  13  24
HETATM   24  O2  UNL     1      29.235  -0.524  53.578  1.00  0.00    -0.360 OA
HETATM   25  H22 UNL     1      29.370  -1.478  53.903  1.00  0.00     0.217 HD
ENDBRANCH  13  24
TORSDOF 6
ENDMDL
MODEL 6
REMARK VINA RESULT:      -7.1      2.029      6.942
REMARK  6 active torsions:
REMARK  status: ('A' for Active; 'I' for Inactive)
REMARK    1  A    between atoms: C2_2  and  C3_3 
REMARK    2  A    between atoms: C3_3  and  C4_4 
REMARK    3  A    between atoms: C4_4  and  O1_5 
REMARK    4  A    between atoms: O1_5  and  C5_6 
REMARK    5  A    between atoms: C11_12  and  N1_13 
REMARK    6  A    between atoms: C16_19  and  O2_20 
ROOT
HETATM    1  C5  UNL     1      26.557   1.936  52.022  1.00  0.00     0.069 A 
HETATM    2  C6  UNL     1      26.186   2.663  50.915  1.00  0.00     0.037 A 
HETATM    3  C7  UNL     1      24.862   2.738  50.468  1.00  0.00     0.011 A 
HETATM    4  C8  UNL     1      23.960   2.024  51.228  1.00  0.00    -0.044 A 
HETATM    5  C9  UNL     1      24.303   1.274  52.360  1.00  0.00    -0.016 A 
HETATM    6  C10 UNL     1      25.624   1.246  52.740  1.00  0.00     0.046 A 
HETATM    7  C11 UNL     1      23.501   0.434  53.321  1.00  0.00     0.254 C 
HETATM    8  C12 UNL     1      22.369  -0.165  52.475  1.00  0.00     0.078 C 
HETATM    9  C13 UNL     1      21.071   0.522  52.639  1.00  0.00     0.079 C 
HETATM   10  C14 UNL     1      20.194  -0.207  53.611  1.00  0.00     0.046 C 
HETATM   11  N2  UNL     1      21.121   1.961  52.728  1.00  0.00    -0.376 N 
HETATM   12  C15 UNL     1      21.511   1.747  51.346  1.00  0.00     0.042 C 
HETATM   13  C16 UNL     1      20.421   0.940  51.342  1.00  0.00     0.093 C 
HETATM   14  C17 UNL     1      22.653   2.289  50.523  1.00  0.00     0.098 C 
HETATM   15  H21 UNL     1      20.886   2.498  53.626  1.00  0.00     0.160 HD
ENDROOT
BRANCH   1  16
HETATM   16  O1  UNL     1      27.887   1.939  52.361  1.00  0.00    -0.351 OA
BRANCH  16  17
HETATM   17  C4  UNL     1      28.258   2.321  53.674  1.00  0.00     0.175 C 
BRANCH  17  18
HETATM   18  C3  UNL     1      29.371   1.401  54.114  1.00  0.00     0.026 C 
BRANCH  18  19
HETATM   19  C2  UNL     1      28.810  -0.007  54.204  1.00  0.00    -0.002 C 
HETATM   20  C1  UNL     1      29.702  -1.010  53.527  1.00  0.00     0.005 C 
ENDBRANCH  18  19
ENDBRANCH  17  18
ENDBRANCH  16  17
ENDBRANCH   1  16
BRANCH   7  21
HETATM   21  N1  UNL     1      24.363  -0.601  53.870  1.00  0.00     0.087 N 
HETATM   22  H14 UNL     1      24.311  -0.650  54.908  1.00  0.00     0.313 HD
HETATM   23  H15 UNL     1      25.365  -0.468  53.544  1.00  0.00     0.313 HD
ENDBRANCH   7  21
BRANCH  13  24
HETATM   24  O2  UNL     1      19.213   0.410  50.815  1.00  0.00    -0.360 OA
HETATM   25  H22 UNL     1      18.711  -0.214  51.440  1.00  0.00     0.217 HD
ENDBRANCH  13  24
TORSDOF 6
ENDMDL
MODEL 7
REMARK VINA RESULT:      -6.8      2.818      4.111
REMARK  6 active torsions:
REMARK  status: ('A' for Active; 'I' for Inactive)
REMARK    1  A    between atoms: C2_2  and  C3_3 
REMARK    2  A    between atoms: C3_3  and  C4_4 
REMARK    3  A    between atoms: C4_4  and  O1_5 
REMARK    4  A    between atoms: O1_5  and  C5_6 
REMARK    5  A    between atoms: C11_12  and  N1_13 
REMARK    6  A    between atoms: C16_19  and  O2_20 
ROOT
HETATM    1  C5  UNL     1      23.025  -0.027  52.994  1.00  0.00     0.069 A 
HETATM    2  C6  UNL     1      24.315  -0.336  53.358  1.00  0.00     0.037 A 
HETATM    3  C7  UNL     1      25.427   0.351  52.857  1.00  0.00     0.011 A 
HETATM    4  C8  UNL     1      25.124   1.362  51.969  1.00  0.00    -0.044 A 
HETATM    5  C9  UNL     1      23.823   1.703  51.577  1.00  0.00    -0.016 A 
HETATM    6  C10 UNL     1      22.779   0.984  52.111  1.00  0.00     0.046 A 
HETATM    7  C11 UNL     1      23.269   2.747  50.642  1.00  0.00     0.254 C 
HETATM    8  C12 UNL     1      24.329   2.896  49.542  1.00  0.00     0.078 C 
HETATM    9  C13 UNL     1      25.190   4.087  49.697  1.00  0.00     0.079 C 
HETATM   10  C14 UNL     1      24.710   5.215  48.837  1.00  0.00     0.046 C 
HETATM   11  N2  UNL     1      25.606   4.398  51.043  1.00  0.00    -0.376 N 
HETATM   12  C15 UNL     1      26.333   3.166  50.799  1.00  0.00     0.042 C 
HETATM   13  C16 UNL     1      26.670   3.794  49.646  1.00  0.00     0.093 C 
HETATM   14  C17 UNL     1      26.485   1.905  51.611  1.00  0.00     0.098 C 
HETATM   15  H21 UNL     1      25.264   5.266  51.573  1.00  0.00     0.160 HD
ENDROOT
BRANCH   1  16
HETATM   16  O1  UNL     1      22.017  -0.772  53.553  1.00  0.00    -0.351 OA
BRANCH  16  17
HETATM   17  C4  UNL     1      20.848  -0.112  54.006  1.00  0.00     0.175 C 
BRANCH  17  18
HETATM   18  C3  UNL     1      19.666  -0.790  53.353  1.00  0.00     0.026 C 
BRANCH  18  19
HETATM   19  C2  UNL     1      19.212   0.073  52.190  1.00  0.00    -0.002 C 
HETATM   20  C1  UNL     1      17.758  -0.136  51.871  1.00  0.00     0.005 C 
ENDBRANCH  18  19
ENDBRANCH  17  18
ENDBRANCH  16  17
ENDBRANCH   1  16
BRANCH   7  21
HETATM   21  N1  UNL     1      22.005   2.271  50.105  1.00  0.00     0.087 N 
HETATM   22  H14 UNL     1      22.016   2.203  49.067  1.00  0.00     0.313 HD
HETATM   23  H15 UNL     1      21.201   2.878  50.438  1.00  0.00     0.313 HD
ENDBRANCH   7  21
BRANCH  13  24
HETATM   24  O2  UNL     1      27.561   4.222  48.625  1.00  0.00    -0.360 OA
HETATM   25  H22 UNL     1      28.537   3.981  48.780  1.00  0.00     0.217 HD
ENDBRANCH  13  24
TORSDOF 6
ENDMDL
MODEL 8
REMARK VINA RESULT:      -6.7      3.428      7.171
REMARK  6 active torsions:
REMARK  status: ('A' for Active; 'I' for Inactive)
REMARK    1  A    between atoms: C2_2  and  C3_3 
REMARK    2  A    between atoms: C3_3  and  C4_4 
REMARK    3  A    between atoms: C4_4  and  O1_5 
REMARK    4  A    between atoms: O1_5  and  C5_6 
REMARK    5  A    between atoms: C11_12  and  N1_13 
REMARK    6  A    between atoms: C16_19  and  O2_20 
ROOT
HETATM    1  C5  UNL     1      24.494   0.923  53.063  1.00  0.00     0.069 A 
HETATM    2  C6  UNL     1      23.438   0.090  53.352  1.00  0.00     0.037 A 
HETATM    3  C7  UNL     1      22.295   0.010  52.548  1.00  0.00     0.011 A 
HETATM    4  C8  UNL     1      22.313   0.835  51.443  1.00  0.00    -0.044 A 
HETATM    5  C9  UNL     1      23.371   1.695  51.119  1.00  0.00    -0.016 A 
HETATM    6  C10 UNL     1      24.462   1.720  51.956  1.00  0.00     0.046 A 
HETATM    7  C11 UNL     1      23.601   2.664  49.988  1.00  0.00     0.254 C 
HETATM    8  C12 UNL     1      22.207   3.202  49.637  1.00  0.00     0.078 C 
HETATM    9  C13 UNL     1      21.610   2.583  48.436  1.00  0.00     0.079 C 
HETATM   10  C14 UNL     1      21.813   3.445  47.227  1.00  0.00     0.046 C 
HETATM   11  N2  UNL     1      21.811   1.161  48.288  1.00  0.00    -0.376 N 
HETATM   12  C15 UNL     1      20.926   1.207  49.438  1.00  0.00     0.042 C 
HETATM   13  C16 UNL     1      20.215   2.044  48.642  1.00  0.00     0.093 C 
HETATM   14  C17 UNL     1      20.988   0.537  50.788  1.00  0.00     0.098 C 
HETATM   15  H21 UNL     1      22.426   0.736  47.519  1.00  0.00     0.160 HD
ENDROOT
BRANCH   1  16
HETATM   16  O1  UNL     1      25.559   0.913  53.927  1.00  0.00    -0.351 OA
BRANCH  16  17
HETATM   17  C4  UNL     1      26.206  -0.316  54.204  1.00  0.00     0.175 C 
BRANCH  17  18
HETATM   18  C3  UNL     1      27.131  -0.610  53.047  1.00  0.00     0.026 C 
BRANCH  18  19
HETATM   19  C2  UNL     1      28.470   0.041  53.337  1.00  0.00    -0.002 C 
HETATM   20  C1  UNL     1      29.530  -0.975  53.662  1.00  0.00     0.005 C 
ENDBRANCH  18  19
ENDBRANCH  17  18
ENDBRANCH  16  17
ENDBRANCH   1  16
BRANCH   7  21
HETATM   21  N1  UNL     1      24.482   3.723  50.451  1.00  0.00     0.087 N 
HETATM   22  H14 UNL     1      25.233   3.943  49.765  1.00  0.00     0.313 HD
HETATM   23  H15 UNL     1      24.892   3.485  51.401  1.00  0.00     0.313 HD
ENDBRANCH   7  21
BRANCH  13  24
HETATM   24  O2  UNL     1      19.035   2.552  48.036  1.00  0.00    -0.360 OA
HETATM   25  H22 UNL     1      19.011   2.482  47.022  1.00  0.00     0.217 HD
ENDBRANCH  13  24
TORSDOF 6
ENDMDL
MODEL 9
REMARK VINA RESULT:      -6.7      2.534      3.897
REMARK  6 active torsions:
REMARK  status: ('A' for Active; 'I' for Inactive)
REMARK    1  A    between atoms: C2_2  and  C3_3 
REMARK    2  A    between atoms: C3_3  and  C4_4 
REMARK    3  A    between atoms: C4_4  and  O1_5 
REMARK    4  A    between atoms: O1_5  and  C5_6 
REMARK    5  A    between atoms: C11_12  and  N1_13 
REMARK    6  A    between atoms: C16_19  and  O2_20 
ROOT
HETATM    1  C5  UNL     1      20.477  -0.158  52.875  1.00  0.00     0.069 A 
HETATM    2  C6  UNL     1      21.386  -0.785  53.696  1.00  0.00     0.037 A 
HETATM    3  C7  UNL     1      22.722  -0.382  53.792  1.00  0.00     0.011 A 
HETATM    4  C8  UNL     1      23.055   0.695  52.997  1.00  0.00    -0.044 A 
HETATM    5  C9  UNL     1      22.156   1.357  52.151  1.00  0.00    -0.016 A 
HETATM    6  C10 UNL     1      20.857   0.905  52.109  1.00  0.00     0.046 A 
HETATM    7  C11 UNL     1      22.295   2.530  51.215  1.00  0.00     0.254 C 
HETATM    8  C12 UNL     1      23.731   2.441  50.680  1.00  0.00     0.078 C 
HETATM    9  C13 UNL     1      24.671   3.377  51.329  1.00  0.00     0.079 C 
HETATM   10  C14 UNL     1      24.861   4.612  50.501  1.00  0.00     0.046 C 
HETATM   11  N2  UNL     1      24.521   3.542  52.755  1.00  0.00    -0.376 N 
HETATM   12  C15 UNL     1      25.002   2.174  52.674  1.00  0.00     0.042 C 
HETATM   13  C16 UNL     1      25.929   2.730  51.856  1.00  0.00     0.093 C 
HETATM   14  C17 UNL     1      24.518   0.894  53.307  1.00  0.00     0.098 C 
HETATM   15  H21 UNL     1      24.176   4.453  53.203  1.00  0.00     0.160 HD
ENDROOT
BRANCH   1  16
HETATM   16  O1  UNL     1      19.194  -0.645  52.867  1.00  0.00    -0.351 OA
BRANCH  16  17
HETATM   17  C4  UNL     1      18.866  -1.726  53.720  1.00  0.00     0.175 C 
BRANCH  17  18
HETATM   18  C3  UNL     1      17.488  -2.207  53.330  1.00  0.00     0.026 C 
BRANCH  18  19
HETATM   19  C2  UNL     1      17.398  -3.688  53.650  1.00  0.00    -0.002 C 
HETATM   20  C1  UNL     1      16.121  -4.295  53.141  1.00  0.00     0.005 C 
ENDBRANCH  18  19
ENDBRANCH  17  18
ENDBRANCH  16  17
ENDBRANCH   1  16
BRANCH   7  21
HETATM   21  N1  UNL     1      21.318   2.395  50.147  1.00  0.00     0.087 N 
HETATM   22  H14 UNL     1      21.330   3.205  49.494  1.00  0.00     0.313 HD
HETATM   23  H15 UNL     1      20.345   2.241  50.544  1.00  0.00     0.313 HD
ENDBRANCH   7  21
BRANCH  13  24
HETATM   24  O2  UNL     1      27.242   2.950  51.358  1.00  0.00    -0.360 OA
HETATM   25  H22 UNL     1      27.563   3.912  51.410  1.00  0.00     0.217 HD
ENDBRANCH  13  24
TORSDOF 6
ENDMDL
