MODEL 1
REMARK VINA RESULT:      -7.9      0.000      0.000
REMARK  4 active torsions:
REMARK  status: ('A' for Active; 'I' for Inactive)
REMARK    1  A    between atoms: C2_2  and  C3_3 
REMARK    2  A    between atoms: C5_6  and  N2_7 
REMARK    3  A    between atoms: C9_13  and  C10_14 
REMARK    4  A    between atoms: C12_16  and  C13_17 
REMARK       I    between atoms: C13_17  and  N5_18 
ROOT
HETATM    1  C3  UNL     1      25.334   2.084  51.348  1.00  0.00    -0.009 A 
HETATM    2  C4  UNL     1      24.023   2.393  51.048  1.00  0.00     0.146 A 
HETATM    3  N1  UNL     1      23.065   1.825  51.814  1.00  0.00    -0.073 NA
HETATM    4  C5  UNL     1      23.366   0.994  52.825  1.00  0.00     0.739 A 
HETATM    5  N4  UNL     1      24.651   0.732  53.069  1.00  0.00    -0.059 NA
HETATM    6  C9  UNL     1      25.695   1.244  52.369  1.00  0.00     0.112 A 
ENDROOT
BRANCH   6   7
HETATM    7  C10 UNL     1      26.996   0.791  52.801  1.00  0.00     0.085 A 
HETATM    8  C11 UNL     1      27.235  -0.592  52.794  1.00  0.00     0.072 A 
HETATM    9  C12 UNL     1      28.489  -0.922  53.250  1.00  0.00     0.146 A 
HETATM   10  N6  UNL     1      29.036   0.286  53.546  1.00  0.00    -0.167 NA
HETATM   11  N7  UNL     1      28.167   1.229  53.281  1.00  0.00    -0.271 N 
HETATM   12  C14 UNL     1      28.438   2.626  53.523  1.00  0.00     0.180 C 
BRANCH   9  13
HETATM   13  C13 UNL     1      29.175  -2.185  53.422  1.00  0.00     0.269 C 
HETATM   14  N5  UNL     1      28.530  -3.411  53.087  1.00  0.00    -0.365 N 
HETATM   15  H15 UNL     1      28.081  -4.331  53.252  1.00  0.00     0.159 HD
HETATM   16  H16 UNL     1      28.336  -3.621  52.088  1.00  0.00     0.159 HD
HETATM   17  O1  UNL     1      30.337  -2.268  53.859  1.00  0.00    -0.266 OA
ENDBRANCH   9  13
ENDBRANCH   6   7
BRANCH   1  18
HETATM   18  C2  UNL     1      26.403   2.661  50.504  1.00  0.00     0.038 C 
HETATM   19  C1  UNL     1      25.999   4.010  49.940  1.00  0.00     0.010 C 
ENDBRANCH   1  18
BRANCH   4  20
HETATM   20  N2  UNL     1      22.294   0.442  53.578  1.00  0.00    -0.142 N 
HETATM   21  C6  UNL     1      22.421  -0.601  54.576  1.00  0.00     0.163 C 
HETATM   22  C7  UNL     1      21.367  -1.579  54.032  1.00  0.00     0.038 C 
HETATM   23  C8  UNL     1      20.248  -0.575  53.781  1.00  0.00     0.113 C 
HETATM   24  N3  UNL     1      20.922   0.689  53.610  1.00  0.00    -0.223 NA
HETATM   25  H13 UNL     1      20.668   1.349  54.401  1.00  0.00     0.147 HD
ENDBRANCH   4  20
TORSDOF 4
ENDMDL
MODEL 2
REMARK VINA RESULT:      -7.7      3.004      6.726
REMARK  4 active torsions:
REMARK  status: ('A' for Active; 'I' for Inactive)
REMARK    1  A    between atoms: C2_2  and  C3_3 
REMARK    2  A    between atoms: C5_6  and  N2_7 
REMARK    3  A    between atoms: C9_13  and  C10_14 
REMARK    4  A    between atoms: C12_16  and  C13_17 
REMARK       I    between atoms: C13_17  and  N5_18 
ROOT
HETATM    1  C3  UNL     1      23.399   0.102  53.715  1.00  0.00    -0.009 A 
HETATM    2  C4  UNL     1      23.888  -0.884  54.547  1.00  0.00     0.146 A 
HETATM    3  N1  UNL     1      25.231  -1.012  54.629  1.00  0.00    -0.073 NA
HETATM    4  C5  UNL     1      26.063  -0.218  53.935  1.00  0.00     0.739 A 
HETATM    5  N4  UNL     1      25.533   0.719  53.146  1.00  0.00    -0.059 NA
HETATM    6  C9  UNL     1      24.203   0.940  52.987  1.00  0.00     0.112 A 
ENDROOT
BRANCH   6   7
HETATM    7  C10 UNL     1      23.870   1.993  52.057  1.00  0.00     0.085 A 
HETATM    8  C11 UNL     1      24.407   3.266  52.300  1.00  0.00     0.072 A 
HETATM    9  C12 UNL     1      24.007   4.202  51.377  1.00  0.00     0.146 A 
HETATM   10  N6  UNL     1      23.205   3.490  50.544  1.00  0.00    -0.167 NA
HETATM   11  N7  UNL     1      23.149   2.248  50.957  1.00  0.00    -0.271 N 
HETATM   12  C14 UNL     1      22.346   1.245  50.300  1.00  0.00     0.180 C 
BRANCH   9  13
HETATM   13  C13 UNL     1      24.292   5.612  51.216  1.00  0.00     0.269 C 
HETATM   14  N5  UNL     1      24.272   6.488  52.340  1.00  0.00    -0.365 N 
HETATM   15  H15 UNL     1      23.928   7.254  52.949  1.00  0.00     0.159 HD
HETATM   16  H16 UNL     1      25.011   6.394  53.064  1.00  0.00     0.159 HD
HETATM   17  O1  UNL     1      24.564   6.124  50.115  1.00  0.00    -0.266 OA
ENDBRANCH   9  13
ENDBRANCH   6   7
BRANCH   1  18
HETATM   18  C2  UNL     1      21.933   0.241  53.576  1.00  0.00     0.038 C 
HETATM   19  C1  UNL     1      21.196  -0.538  54.649  1.00  0.00     0.010 C 
ENDBRANCH   1  18
BRANCH   4  20
HETATM   20  N2  UNL     1      27.461  -0.423  54.082  1.00  0.00    -0.142 N 
HETATM   21  C6  UNL     1      28.367   0.459  54.791  1.00  0.00     0.163 C 
HETATM   22  C7  UNL     1      29.415   0.661  53.684  1.00  0.00     0.038 C 
HETATM   23  C8  UNL     1      29.571  -0.795  53.264  1.00  0.00     0.113 C 
HETATM   24  N3  UNL     1      28.331  -1.423  53.650  1.00  0.00    -0.223 NA
HETATM   25  H13 UNL     1      28.506  -2.139  54.414  1.00  0.00     0.147 HD
ENDBRANCH   4  20
TORSDOF 4
ENDMDL
MODEL 3
REMARK VINA RESULT:      -7.7      2.386      6.130
REMARK  4 active torsions:
REMARK  status: ('A' for Active; 'I' for Inactive)
REMARK    1  A    between atoms: C2_2  and  C3_3 
REMARK    2  A    between atoms: C5_6  and  N2_7 
REMARK    3  A    between atoms: C9_13  and  C10_14 
REMARK    4  A    between atoms: C12_16  and  C13_17 
REMARK       I    between atoms: C13_17  and  N5_18 
ROOT
HETATM    1  C3  UNL     1      25.280   2.408  51.456  1.00  0.00    -0.009 A 
HETATM    2  C4  UNL     1      26.630   2.680  51.536  1.00  0.00     0.146 A 
HETATM    3  N1  UNL     1      27.408   1.765  52.155  1.00  0.00    -0.073 NA
HETATM    4  C5  UNL     1      26.899   0.635  52.674  1.00  0.00     0.739 A 
HETATM    5  N4  UNL     1      25.586   0.425  52.566  1.00  0.00    -0.059 NA
HETATM    6  C9  UNL     1      24.710   1.271  51.966  1.00  0.00     0.112 A 
ENDROOT
BRANCH   6   7
HETATM    7  C10 UNL     1      23.332   0.841  52.000  1.00  0.00     0.085 A 
HETATM    8  C11 UNL     1      22.899   0.143  53.138  1.00  0.00     0.072 A 
HETATM    9  C12 UNL     1      21.583  -0.246  53.060  1.00  0.00     0.146 A 
HETATM   10  N6  UNL     1      21.195   0.221  51.844  1.00  0.00    -0.167 NA
HETATM   11  N7  UNL     1      22.207   0.829  51.274  1.00  0.00    -0.271 N 
HETATM   12  C14 UNL     1      22.122   1.405  49.954  1.00  0.00     0.180 C 
BRANCH   9  13
HETATM   13  C13 UNL     1      20.714  -0.970  53.963  1.00  0.00     0.269 C 
HETATM   14  N5  UNL     1      19.298  -0.898  53.820  1.00  0.00    -0.365 N 
HETATM   15  H15 UNL     1      18.324  -0.642  54.066  1.00  0.00     0.159 HD
HETATM   16  H16 UNL     1      18.853  -1.343  52.992  1.00  0.00     0.159 HD
HETATM   17  O1  UNL     1      21.145  -1.679  54.891  1.00  0.00    -0.266 OA
ENDBRANCH   9  13
ENDBRANCH   6   7
BRANCH   1  18
HETATM   18  C2  UNL     1      24.398   3.409  50.817  1.00  0.00     0.038 C 
HETATM   19  C1  UNL     1      24.956   3.872  49.485  1.00  0.00     0.010 C 
ENDBRANCH   1  18
BRANCH   4  20
HETATM   20  N2  UNL     1      27.791  -0.271  53.307  1.00  0.00    -0.142 N 
HETATM   21  C6  UNL     1      28.873   0.103  54.198  1.00  0.00     0.163 C 
HETATM   22  C7  UNL     1      30.022  -0.643  53.501  1.00  0.00     0.038 C 
HETATM   23  C8  UNL     1      29.320  -1.980  53.295  1.00  0.00     0.113 C 
HETATM   24  N3  UNL     1      27.914  -1.660  53.291  1.00  0.00    -0.223 NA
HETATM   25  H13 UNL     1      27.437  -2.099  54.132  1.00  0.00     0.147 HD
ENDBRANCH   4  20
TORSDOF 4
ENDMDL
MODEL 4
REMARK VINA RESULT:      -7.5      3.154      6.345
REMARK  4 active torsions:
REMARK  status: ('A' for Active; 'I' for Inactive)
REMARK    1  A    between atoms: C2_2  and  C3_3 
REMARK    2  A    between atoms: C5_6  and  N2_7 
REMARK    3  A    between atoms: C9_13  and  C10_14 
REMARK    4  A    between atoms: C12_16  and  C13_17 
REMARK       I    between atoms: C13_17  and  N5_18 
ROOT
HETATM    1  C3  UNL     1      24.911   2.848  50.521  1.00  0.00    -0.009 A 
HETATM    2  C4  UNL     1      26.280   2.887  50.350  1.00  0.00     0.146 A 
HETATM    3  N1  UNL     1      27.043   2.509  51.400  1.00  0.00    -0.073 NA
HETATM    4  C5  UNL     1      26.503   2.111  52.563  1.00  0.00     0.739 A 
HETATM    5  N4  UNL     1      25.173   2.093  52.671  1.00  0.00    -0.059 NA
HETATM    6  C9  UNL     1      24.309   2.449  51.686  1.00  0.00     0.112 A 
ENDROOT
BRANCH   6   7
HETATM    7  C10 UNL     1      22.913   2.375  52.048  1.00  0.00     0.085 A 
HETATM    8  C11 UNL     1      22.372   1.103  52.285  1.00  0.00     0.072 A 
HETATM    9  C12 UNL     1      21.033   1.138  52.593  1.00  0.00     0.146 A 
HETATM   10  N6  UNL     1      20.741   2.464  52.544  1.00  0.00    -0.167 NA
HETATM   11  N7  UNL     1      21.824   3.132  52.233  1.00  0.00    -0.271 N 
HETATM   12  C14 UNL     1      21.832   4.566  52.069  1.00  0.00     0.180 C 
BRANCH   9  13
HETATM   13  C13 UNL     1      20.066   0.108  52.909  1.00  0.00     0.269 C 
HETATM   14  N5  UNL     1      20.146  -0.609  54.137  1.00  0.00    -0.365 N 
HETATM   15  H15 UNL     1      20.303  -1.423  54.761  1.00  0.00     0.159 HD
HETATM   16  H16 UNL     1      19.944  -0.109  55.026  1.00  0.00     0.159 HD
HETATM   17  O1  UNL     1      19.134  -0.199  52.143  1.00  0.00    -0.266 OA
ENDBRANCH   9  13
ENDBRANCH   6   7
BRANCH   1  18
HETATM   18  C2  UNL     1      24.050   3.292  49.403  1.00  0.00     0.038 C 
HETATM   19  C1  UNL     1      24.197   4.780  49.145  1.00  0.00     0.010 C 
ENDBRANCH   1  18
BRANCH   4  20
HETATM   20  N2  UNL     1      27.382   1.730  53.612  1.00  0.00    -0.142 N 
HETATM   21  C6  UNL     1      28.765   2.148  53.740  1.00  0.00     0.163 C 
HETATM   22  C7  UNL     1      29.416   0.764  53.893  1.00  0.00     0.038 C 
HETATM   23  C8  UNL     1      28.454   0.183  54.922  1.00  0.00     0.113 C 
HETATM   24  N3  UNL     1      27.232   0.926  54.741  1.00  0.00    -0.223 NA
HETATM   25  H13 UNL     1      27.026   1.508  55.605  1.00  0.00     0.147 HD
ENDBRANCH   4  20
TORSDOF 4
ENDMDL
MODEL 5
REMARK VINA RESULT:      -7.5      2.300      4.677
REMARK  4 active torsions:
REMARK  status: ('A' for Active; 'I' for Inactive)
REMARK    1  A    between atoms: C2_2  and  C3_3 
REMARK    2  A    between atoms: C5_6  and  N2_7 
REMARK    3  A    between atoms: C9_13  and  C10_14 
REMARK    4  A    between atoms: C12_16  and  C13_17 
REMARK       I    between atoms: C13_17  and  N5_18 
ROOT
HETATM    1  C3  UNL     1      23.010   0.611  52.826  1.00  0.00    -0.009 A 
HETATM    2  C4  UNL     1      21.935   1.254  52.247  1.00  0.00     0.146 A 
HETATM    3  N1  UNL     1      22.040   2.589  52.064  1.00  0.00    -0.073 NA
HETATM    4  C5  UNL     1      23.139   3.270  52.427  1.00  0.00     0.739 A 
HETATM    5  N4  UNL     1      24.148   2.596  52.982  1.00  0.00    -0.059 NA
HETATM    6  C9  UNL     1      24.155   1.259  53.213  1.00  0.00     0.112 A 
ENDROOT
BRANCH   6   7
HETATM    7  C10 UNL     1      25.349   0.760  53.852  1.00  0.00     0.085 A 
HETATM    8  C11 UNL     1      26.576   1.311  53.453  1.00  0.00     0.072 A 
HETATM    9  C12 UNL     1      27.652   0.749  54.098  1.00  0.00     0.146 A 
HETATM   10  N6  UNL     1      27.075  -0.171  54.914  1.00  0.00    -0.167 NA
HETATM   11  N7  UNL     1      25.776  -0.138  54.749  1.00  0.00    -0.271 N 
HETATM   12  C14 UNL     1      24.881  -1.026  55.453  1.00  0.00     0.180 C 
BRANCH   9  13
HETATM   13  C13 UNL     1      29.078   0.982  54.022  1.00  0.00     0.269 C 
HETATM   14  N5  UNL     1      29.641   2.196  54.512  1.00  0.00    -0.365 N 
HETATM   15  H15 UNL     1      30.106   3.122  54.465  1.00  0.00     0.159 HD
HETATM   16  H16 UNL     1      29.639   2.374  55.536  1.00  0.00     0.159 HD
HETATM   17  O1  UNL     1      29.873   0.156  53.538  1.00  0.00    -0.266 OA
ENDBRANCH   9  13
ENDBRANCH   6   7
BRANCH   1  18
HETATM   18  C2  UNL     1      22.909  -0.843  53.073  1.00  0.00     0.038 C 
HETATM   19  C1  UNL     1      21.613  -1.200  53.776  1.00  0.00     0.010 C 
ENDBRANCH   1  18
BRANCH   4  20
HETATM   20  N2  UNL     1      23.162   4.672  52.197  1.00  0.00    -0.142 N 
HETATM   21  C6  UNL     1      22.101   5.436  51.569  1.00  0.00     0.163 C 
HETATM   22  C7  UNL     1      22.929   6.143  50.484  1.00  0.00     0.038 C 
HETATM   23  C8  UNL     1      24.095   6.592  51.357  1.00  0.00     0.113 C 
HETATM   24  N3  UNL     1      24.098   5.670  52.466  1.00  0.00    -0.223 NA
HETATM   25  H13 UNL     1      23.868   6.181  53.368  1.00  0.00     0.147 HD
ENDBRANCH   4  20
TORSDOF 4
ENDMDL
MODEL 6
REMARK VINA RESULT:      -7.3      3.665      6.540
REMARK  4 active torsions:
REMARK  status: ('A' for Active; 'I' for Inactive)
REMARK    1  A    between atoms: C2_2  and  C3_3 
REMARK    2  A    between atoms: C5_6  and  N2_7 
REMARK    3  A    between atoms: C9_13  and  C10_14 
REMARK    4  A    between atoms: C12_16  and  C13_17 
REMARK       I    between atoms: C13_17  and  N5_18 
ROOT
HETATM    1  C3  UNL     1      24.833   0.645  52.780  1.00  0.00    -0.009 A 
HETATM    2  C4  UNL     1      25.662   1.619  52.263  1.00  0.00     0.146 A 
HETATM    3  N1  UNL     1      25.142   2.858  52.115  1.00  0.00    -0.073 NA
HETATM    4  C5  UNL     1      23.872   3.139  52.453  1.00  0.00     0.739 A 
HETATM    5  N4  UNL     1      23.117   2.157  52.949  1.00  0.00    -0.059 NA
HETATM    6  C9  UNL     1      23.532   0.879  53.143  1.00  0.00     0.112 A 
ENDROOT
BRANCH   6   7
HETATM    7  C10 UNL     1      22.523  -0.013  53.664  1.00  0.00     0.085 A 
HETATM    8  C11 UNL     1      21.255   0.023  53.066  1.00  0.00     0.072 A 
HETATM    9  C12 UNL     1      20.360  -0.841  53.652  1.00  0.00     0.146 A 
HETATM   10  N6  UNL     1      21.095  -1.423  54.635  1.00  0.00    -0.167 NA
HETATM   11  N7  UNL     1      22.309  -0.932  54.614  1.00  0.00    -0.271 N 
HETATM   12  C14 UNL     1      23.324  -1.326  55.562  1.00  0.00     0.180 C 
BRANCH   9  13
HETATM   13  C13 UNL     1      18.970  -1.148  53.390  1.00  0.00     0.269 C 
HETATM   14  N5  UNL     1      18.322  -2.214  54.078  1.00  0.00    -0.365 N 
HETATM   15  H15 UNL     1      17.868  -3.139  54.198  1.00  0.00     0.159 HD
HETATM   16  H16 UNL     1      18.136  -2.116  55.096  1.00  0.00     0.159 HD
HETATM   17  O1  UNL     1      18.282  -0.513  52.570  1.00  0.00    -0.266 OA
ENDBRANCH   9  13
ENDBRANCH   6   7
BRANCH   1  18
HETATM   18  C2  UNL     1      25.363  -0.728  52.919  1.00  0.00     0.038 C 
HETATM   19  C1  UNL     1      26.856  -0.778  52.655  1.00  0.00     0.010 C 
ENDBRANCH   1  18
BRANCH   4  20
HETATM   20  N2  UNL     1      23.409   4.468  52.264  1.00  0.00    -0.142 N 
HETATM   21  C6  UNL     1      22.024   4.855  52.080  1.00  0.00     0.163 C 
HETATM   22  C7  UNL     1      22.176   5.670  50.786  1.00  0.00     0.038 C 
HETATM   23  C8  UNL     1      23.392   6.494  51.189  1.00  0.00     0.113 C 
HETATM   24  N3  UNL     1      24.051   5.704  52.200  1.00  0.00    -0.223 NA
HETATM   25  H13 UNL     1      24.017   6.205  53.135  1.00  0.00     0.147 HD
ENDBRANCH   4  20
TORSDOF 4
ENDMDL
MODEL 7
REMARK VINA RESULT:      -7.1      1.763      4.057
REMARK  4 active torsions:
REMARK  status: ('A' for Active; 'I' for Inactive)
REMARK    1  A    between atoms: C2_2  and  C3_3 
REMARK    2  A    between atoms: C5_6  and  N2_7 
REMARK    3  A    between atoms: C9_13  and  C10_14 
REMARK    4  A    between atoms: C12_16  and  C13_17 
REMARK       I    between atoms: C13_17  and  N5_18 
ROOT
HETATM    1  C3  UNL     1      23.086  -0.025  53.090  1.00  0.00    -0.009 A 
HETATM    2  C4  UNL     1      21.817   0.192  52.594  1.00  0.00     0.146 A 
HETATM    3  N1  UNL     1      21.706   0.996  51.512  1.00  0.00    -0.073 NA
HETATM    4  C5  UNL     1      22.780   1.563  50.938  1.00  0.00     0.739 A 
HETATM    5  N4  UNL     1      23.983   1.316  51.460  1.00  0.00    -0.059 NA
HETATM    6  C9  UNL     1      24.214   0.528  52.541  1.00  0.00     0.112 A 
ENDROOT
BRANCH   6   7
HETATM    7  C10 UNL     1      25.598   0.435  52.939  1.00  0.00     0.085 A 
HETATM    8  C11 UNL     1      26.256  -0.784  52.717  1.00  0.00     0.072 A 
HETATM    9  C12 UNL     1      27.558  -0.779  53.158  1.00  0.00     0.146 A 
HETATM   10  N6  UNL     1      27.707   0.473  53.664  1.00  0.00    -0.167 NA
HETATM   11  N7  UNL     1      26.582   1.130  53.525  1.00  0.00    -0.271 N 
HETATM   12  C14 UNL     1      26.408   2.482  53.999  1.00  0.00     0.180 C 
BRANCH   9  13
HETATM   13  C13 UNL     1      28.607  -1.777  53.147  1.00  0.00     0.269 C 
HETATM   14  N5  UNL     1      28.287  -3.162  53.056  1.00  0.00    -0.365 N 
HETATM   15  H15 UNL     1      28.197  -4.146  53.373  1.00  0.00     0.159 HD
HETATM   16  H16 UNL     1      27.891  -3.529  52.168  1.00  0.00     0.159 HD
HETATM   17  O1  UNL     1      29.815  -1.486  53.214  1.00  0.00    -0.266 OA
ENDBRANCH   9  13
ENDBRANCH   6   7
BRANCH   1  18
HETATM   18  C2  UNL     1      23.234  -0.869  54.295  1.00  0.00     0.038 C 
HETATM   19  C1  UNL     1      21.932  -1.560  54.654  1.00  0.00     0.010 C 
ENDBRANCH   1  18
BRANCH   4  20
HETATM   20  N2  UNL     1      22.570   2.393  49.804  1.00  0.00    -0.142 N 
HETATM   21  C6  UNL     1      23.617   2.989  48.997  1.00  0.00     0.163 C 
HETATM   22  C7  UNL     1      23.148   4.452  49.044  1.00  0.00     0.038 C 
HETATM   23  C8  UNL     1      21.672   4.217  48.742  1.00  0.00     0.113 C 
HETATM   24  N3  UNL     1      21.426   2.858  49.158  1.00  0.00    -0.223 NA
HETATM   25  H13 UNL     1      21.186   2.256  48.317  1.00  0.00     0.147 HD
ENDBRANCH   4  20
TORSDOF 4
ENDMDL
MODEL 8
REMARK VINA RESULT:      -6.9      2.339      4.591
REMARK  4 active torsions:
REMARK  status: ('A' for Active; 'I' for Inactive)
REMARK    1  A    between atoms: C2_2  and  C3_3 
REMARK    2  A    between atoms: C5_6  and  N2_7 
REMARK    3  A    between atoms: C9_13  and  C10_14 
REMARK    4  A    between atoms: C12_16  and  C13_17 
REMARK       I    between atoms: C13_17  and  N5_18 
ROOT
HETATM    1  C3  UNL     1      23.122  -0.020  53.242  1.00  0.00    -0.009 A 
HETATM    2  C4  UNL     1      21.812   0.226  52.884  1.00  0.00     0.146 A 
HETATM    3  N1  UNL     1      21.606   0.985  51.784  1.00  0.00    -0.073 NA
HETATM    4  C5  UNL     1      22.625   1.481  51.064  1.00  0.00     0.739 A 
HETATM    5  N4  UNL     1      23.871   1.209  51.457  1.00  0.00    -0.059 NA
HETATM    6  C9  UNL     1      24.197   0.460  52.541  1.00  0.00     0.112 A 
ENDROOT
BRANCH   6   7
HETATM    7  C10 UNL     1      25.615   0.329  52.784  1.00  0.00     0.085 A 
HETATM    8  C11 UNL     1      26.309   1.475  53.200  1.00  0.00     0.072 A 
HETATM    9  C12 UNL     1      27.654   1.254  53.375  1.00  0.00     0.146 A 
HETATM   10  N6  UNL     1      27.793  -0.060  53.058  1.00  0.00    -0.167 NA
HETATM   11  N7  UNL     1      26.623  -0.550  52.728  1.00  0.00    -0.271 N 
HETATM   12  C14 UNL     1      26.445  -1.918  52.305  1.00  0.00     0.180 C 
BRANCH   9  13
HETATM   13  C13 UNL     1      28.749   2.107  53.785  1.00  0.00     0.269 C 
HETATM   14  N5  UNL     1      29.354   1.944  55.064  1.00  0.00    -0.365 N 
HETATM   15  H15 UNL     1      29.607   2.187  56.041  1.00  0.00     0.159 HD
HETATM   16  H16 UNL     1      29.916   1.090  55.250  1.00  0.00     0.159 HD
HETATM   17  O1  UNL     1      29.210   3.008  53.060  1.00  0.00    -0.266 OA
ENDBRANCH   9  13
ENDBRANCH   6   7
BRANCH   1  18
HETATM   18  C2  UNL     1      23.379  -0.816  54.462  1.00  0.00     0.038 C 
HETATM   19  C1  UNL     1      22.135  -1.557  54.916  1.00  0.00     0.010 C 
ENDBRANCH   1  18
BRANCH   4  20
HETATM   20  N2  UNL     1      22.315   2.268  49.922  1.00  0.00    -0.142 N 
HETATM   21  C6  UNL     1      20.984   2.692  49.533  1.00  0.00     0.163 C 
HETATM   22  C7  UNL     1      20.990   2.188  48.081  1.00  0.00     0.038 C 
HETATM   23  C8  UNL     1      22.361   2.716  47.673  1.00  0.00     0.113 C 
HETATM   24  N3  UNL     1      23.091   2.833  48.911  1.00  0.00    -0.223 NA
HETATM   25  H13 UNL     1      23.306   3.853  49.114  1.00  0.00     0.147 HD
ENDBRANCH   4  20
TORSDOF 4
ENDMDL
MODEL 9
REMARK VINA RESULT:      -6.8      2.715      4.891
REMARK  4 active torsions:
REMARK  status: ('A' for Active; 'I' for Inactive)
REMARK    1  A    between atoms: C2_2  and  C3_3 
REMARK    2  A    between atoms: C5_6  and  N2_7 
REMARK    3  A    between atoms: C9_13  and  C10_14 
REMARK    4  A    between atoms: C12_16  and  C13_17 
REMARK       I    between atoms: C13_17  and  N5_18 
ROOT
HETATM    1  C3  UNL     1      21.785   0.218  52.498  1.00  0.00    -0.009 A 
HETATM    2  C4  UNL     1      20.655  -0.054  51.754  1.00  0.00     0.146 A 
HETATM    3  N1  UNL     1      20.587   0.487  50.517  1.00  0.00    -0.073 NA
HETATM    4  C5  UNL     1      21.572   1.256  50.024  1.00  0.00     0.739 A 
HETATM    5  N4  UNL     1      22.641   1.484  50.789  1.00  0.00    -0.059 NA
HETATM    6  C9  UNL     1      22.819   0.994  52.043  1.00  0.00     0.112 A 
ENDROOT
BRANCH   6   7
HETATM    7  C10 UNL     1      24.045   1.403  52.686  1.00  0.00     0.085 A 
HETATM    8  C11 UNL     1      24.983   0.403  52.986  1.00  0.00     0.072 A 
HETATM    9  C12 UNL     1      26.100   0.889  53.622  1.00  0.00     0.146 A 
HETATM   10  N6  UNL     1      25.845   2.220  53.717  1.00  0.00    -0.167 NA
HETATM   11  N7  UNL     1      24.678   2.474  53.179  1.00  0.00    -0.271 N 
HETATM   12  C14 UNL     1      24.106   3.799  53.156  1.00  0.00     0.180 C 
BRANCH   9  13
HETATM   13  C13 UNL     1      27.306   0.258  54.116  1.00  0.00     0.269 C 
HETATM   14  N5  UNL     1      27.696  -1.028  53.644  1.00  0.00    -0.365 N 
HETATM   15  H15 UNL     1      27.877  -2.049  53.689  1.00  0.00     0.159 HD
HETATM   16  H16 UNL     1      28.015  -1.128  52.660  1.00  0.00     0.159 HD
HETATM   17  O1  UNL     1      28.050   0.793  54.958  1.00  0.00    -0.266 OA
ENDBRANCH   9  13
ENDBRANCH   6   7
BRANCH   1  18
HETATM   18  C2  UNL     1      21.871  -0.329  53.870  1.00  0.00     0.038 C 
HETATM   19  C1  UNL     1      20.816   0.277  54.777  1.00  0.00     0.010 C 
ENDBRANCH   1  18
BRANCH   4  20
HETATM   20  N2  UNL     1      21.417   1.782  48.714  1.00  0.00    -0.142 N 
HETATM   21  C6  UNL     1      22.498   2.057  47.787  1.00  0.00     0.163 C 
HETATM   22  C7  UNL     1      22.156   3.518  47.453  1.00  0.00     0.038 C 
HETATM   23  C8  UNL     1      20.662   3.343  47.213  1.00  0.00     0.113 C 
HETATM   24  N3  UNL     1      20.306   2.164  47.962  1.00  0.00    -0.223 NA
HETATM   25  H13 UNL     1      20.002   1.389  47.303  1.00  0.00     0.147 HD
ENDBRANCH   4  20
TORSDOF 4
ENDMDL
