MODEL 1
REMARK VINA RESULT:      -9.4      0.000      0.000
REMARK  4 active torsions:
REMARK  status: ('A' for Active; 'I' for Inactive)
REMARK    1  A    between atoms: N1_1  and  C1_2 
REMARK    2  A    between atoms: C2_4  and  N3_5 
REMARK    3  A    between atoms: N3_5  and  C3_6 
REMARK    4  A    between atoms: C11_16  and  C12_17 
ROOT
HETATM    1  C1  UNL     1      23.513   4.231  52.894  1.00  0.00     0.724 C 
HETATM    2  N2  UNL     1      22.339   4.325  52.367  1.00  0.00    -0.046 NA
HETATM    3  C2  UNL     1      21.547   3.486  51.532  1.00  0.00     0.145 C 
HETATM    4  C9  UNL     1      21.929   2.695  50.526  1.00  0.00     0.043 C 
HETATM    5  C10 UNL     1      23.261   2.383  49.901  1.00  0.00     0.152 C 
HETATM    6  N4  UNL     1      24.147   1.751  50.884  1.00  0.00    -0.370 N 
HETATM    7  C11 UNL     1      24.769   2.269  52.055  1.00  0.00     0.154 C 
HETATM    8  N5  UNL     1      24.561   3.239  52.881  1.00  0.00    -0.045 NA
HETATM    9  H11 UNL     1      24.363   0.748  50.700  1.00  0.00     0.161 HD
ENDROOT
BRANCH   3  10
HETATM   10  N3  UNL     1      20.131   3.473  51.790  1.00  0.00    -0.341 N 
HETATM   11  H3  UNL     1      19.680   4.409  51.750  1.00  0.00     0.167 HD
BRANCH  10  12
HETATM   12  C3  UNL     1      19.641   2.152  52.052  1.00  0.00     0.034 A 
HETATM   13  C4  UNL     1      18.474   1.633  51.536  1.00  0.00     0.029 A 
HETATM   14  C5  UNL     1      18.085   0.335  51.850  1.00  0.00     0.004 A 
HETATM   15  C6  UNL     1      18.867  -0.461  52.690  1.00  0.00     0.019 A 
HETATM   16  C7  UNL     1      20.026   0.088  53.188  1.00  0.00     0.013 A 
HETATM   17 BR1  UNL     1      21.107  -0.992  54.342  1.00  0.00    -0.051 Br
HETATM   18  C8  UNL     1      20.432   1.371  52.891  1.00  0.00     0.048 A 
ENDBRANCH  10  12
ENDBRANCH   3  10
BRANCH   1  19
HETATM   19  N1  UNL     1      23.812   5.404  53.663  1.00  0.00    -0.231 N 
HETATM   20  H1  UNL     1      23.685   6.439  53.507  1.00  0.00     0.174 HD
HETATM   21  H2  UNL     1      24.265   5.225  54.608  1.00  0.00     0.174 HD
ENDBRANCH   1  19
BRANCH   7  22
HETATM   22  C12 UNL     1      25.956   1.509  52.429  1.00  0.00     0.023 A 
HETATM   23  C13 UNL     1      26.121   0.216  52.370  1.00  0.00     0.001 A 
HETATM   24  C14 UNL     1      27.313  -0.181  52.779  1.00  0.00    -0.014 A 
HETATM   25  C15 UNL     1      27.784  -1.472  52.835  1.00  0.00     0.013 A 
HETATM   26  C19 UNL     1      28.029   0.940  53.153  1.00  0.00    -0.024 A 
HETATM   27  C16 UNL     1      29.083  -1.595  53.311  1.00  0.00     0.001 A 
HETATM   28  C17 UNL     1      29.844  -0.516  53.698  1.00  0.00     0.001 A 
HETATM   29  C18 UNL     1      29.324   0.767  53.623  1.00  0.00     0.012 A 
HETATM   30  C20 UNL     1      27.232   1.981  52.952  1.00  0.00     0.028 A 
ENDBRANCH   7  22
TORSDOF 4
ENDMDL
MODEL 2
REMARK VINA RESULT:      -9.2      3.993      5.542
REMARK  4 active torsions:
REMARK  status: ('A' for Active; 'I' for Inactive)
REMARK    1  A    between atoms: N1_1  and  C1_2 
REMARK    2  A    between atoms: C2_4  and  N3_5 
REMARK    3  A    between atoms: N3_5  and  C3_6 
REMARK    4  A    between atoms: C11_16  and  C12_17 
ROOT
HETATM    1  C1  UNL     1      23.110   4.180  51.958  1.00  0.00     0.724 C 
HETATM    2  N2  UNL     1      22.319   3.169  52.080  1.00  0.00    -0.046 NA
HETATM    3  C2  UNL     1      22.139   1.948  51.370  1.00  0.00     0.145 C 
HETATM    4  C9  UNL     1      22.224   1.715  50.057  1.00  0.00     0.043 C 
HETATM    5  C10 UNL     1      22.526   2.585  48.868  1.00  0.00     0.152 C 
HETATM    6  N4  UNL     1      23.881   3.136  48.974  1.00  0.00    -0.370 N 
HETATM    7  C11 UNL     1      24.436   4.093  49.869  1.00  0.00     0.154 C 
HETATM    8  N5  UNL     1      24.173   4.540  51.050  1.00  0.00    -0.045 NA
HETATM    9  H11 UNL     1      24.561   2.767  48.274  1.00  0.00     0.161 HD
ENDROOT
BRANCH   3  10
HETATM   10  N3  UNL     1      21.817   0.787  52.157  1.00  0.00    -0.341 N 
HETATM   11  H3  UNL     1      20.831   0.469  52.069  1.00  0.00     0.167 HD
BRANCH  10  12
HETATM   12  C3  UNL     1      22.944   0.311  52.905  1.00  0.00     0.034 A 
HETATM   13  C4  UNL     1      22.859  -0.464  54.040  1.00  0.00     0.029 A 
HETATM   14  C5  UNL     1      24.016  -0.877  54.694  1.00  0.00     0.004 A 
HETATM   15  C6  UNL     1      25.277  -0.514  54.213  1.00  0.00     0.019 A 
HETATM   16  C7  UNL     1      25.324   0.261  53.077  1.00  0.00     0.013 A 
HETATM   17 BR1  UNL     1      27.045   0.766  52.407  1.00  0.00    -0.051 Br
HETATM   18  C8  UNL     1      24.193   0.681  52.412  1.00  0.00     0.048 A 
ENDBRANCH  10  12
ENDBRANCH   3  10
BRANCH   1  19
HETATM   19  N1  UNL     1      22.843   5.152  52.977  1.00  0.00    -0.231 N 
HETATM   20  H1  UNL     1      23.028   5.202  54.015  1.00  0.00     0.174 HD
HETATM   21  H2  UNL     1      22.346   6.033  52.648  1.00  0.00     0.174 HD
ENDBRANCH   1  19
BRANCH   7  22
HETATM   22  C12 UNL     1      25.616   4.745  49.313  1.00  0.00     0.023 A 
HETATM   23  C13 UNL     1      25.697   5.949  48.818  1.00  0.00     0.001 A 
HETATM   24  C14 UNL     1      26.908   6.261  48.388  1.00  0.00    -0.014 A 
HETATM   25  C15 UNL     1      27.306   7.448  47.819  1.00  0.00     0.013 A 
HETATM   26  C19 UNL     1      27.730   5.173  48.609  1.00  0.00    -0.024 A 
HETATM   27  C16 UNL     1      28.647   7.497  47.460  1.00  0.00     0.001 A 
HETATM   28  C17 UNL     1      29.513   6.446  47.655  1.00  0.00     0.001 A 
HETATM   29  C18 UNL     1      29.063   5.269  48.233  1.00  0.00     0.012 A 
HETATM   30  C20 UNL     1      26.975   4.237  49.169  1.00  0.00     0.028 A 
ENDBRANCH   7  22
TORSDOF 4
ENDMDL
MODEL 3
REMARK VINA RESULT:      -8.9      4.026      5.571
REMARK  4 active torsions:
REMARK  status: ('A' for Active; 'I' for Inactive)
REMARK    1  A    between atoms: N1_1  and  C1_2 
REMARK    2  A    between atoms: C2_4  and  N3_5 
REMARK    3  A    between atoms: N3_5  and  C3_6 
REMARK    4  A    between atoms: C11_16  and  C12_17 
ROOT
HETATM    1  C1  UNL     1      23.138   2.611  49.403  1.00  0.00     0.724 C 
HETATM    2  N2  UNL     1      22.594   2.102  50.456  1.00  0.00    -0.046 NA
HETATM    3  C2  UNL     1      22.847   2.189  51.855  1.00  0.00     0.145 C 
HETATM    4  C9  UNL     1      24.016   2.253  52.498  1.00  0.00     0.043 C 
HETATM    5  C10 UNL     1      25.450   2.262  52.043  1.00  0.00     0.152 C 
HETATM    6  N4  UNL     1      25.712   3.442  51.213  1.00  0.00    -0.370 N 
HETATM    7  C11 UNL     1      25.252   3.795  49.913  1.00  0.00     0.154 C 
HETATM    8  N5  UNL     1      24.250   3.497  49.156  1.00  0.00    -0.045 NA
HETATM    9  H11 UNL     1      26.344   4.151  51.644  1.00  0.00     0.161 HD
ENDROOT
BRANCH   3  10
HETATM   10  N3  UNL     1      21.695   2.210  52.717  1.00  0.00    -0.341 N 
HETATM   11  H3  UNL     1      21.276   3.153  52.849  1.00  0.00     0.167 HD
BRANCH  10  12
HETATM   12  C3  UNL     1      21.370   0.907  53.218  1.00  0.00     0.034 A 
HETATM   13  C4  UNL     1      22.249   0.083  53.886  1.00  0.00     0.029 A 
HETATM   14  C5  UNL     1      21.834  -1.167  54.335  1.00  0.00     0.004 A 
HETATM   15  C6  UNL     1      20.526  -1.607  54.115  1.00  0.00     0.019 A 
HETATM   16  C7  UNL     1      19.675  -0.759  53.444  1.00  0.00     0.013 A 
HETATM   17 BR1  UNL     1      17.879  -1.348  53.136  1.00  0.00    -0.051 Br
HETATM   18  C8  UNL     1      20.063   0.484  52.991  1.00  0.00     0.048 A 
ENDBRANCH  10  12
ENDBRANCH   3  10
BRANCH   1  19
HETATM   19  N1  UNL     1      22.454   2.170  48.222  1.00  0.00    -0.231 N 
HETATM   20  H1  UNL     1      21.526   1.703  48.040  1.00  0.00     0.174 HD
HETATM   21  H2  UNL     1      22.971   2.336  47.308  1.00  0.00     0.174 HD
ENDBRANCH   1  19
BRANCH   7  22
HETATM   22  C12 UNL     1      26.143   4.742  49.253  1.00  0.00     0.023 A 
HETATM   23  C13 UNL     1      25.846   5.932  48.809  1.00  0.00     0.001 A 
HETATM   24  C14 UNL     1      26.870   6.558  48.256  1.00  0.00    -0.014 A 
HETATM   25  C15 UNL     1      26.873   7.816  47.700  1.00  0.00     0.013 A 
HETATM   26  C19 UNL     1      27.968   5.722  48.326  1.00  0.00    -0.024 A 
HETATM   27  C16 UNL     1      28.099   8.221  47.189  1.00  0.00     0.001 A 
HETATM   28  C17 UNL     1      29.226   7.432  47.230  1.00  0.00     0.001 A 
HETATM   29  C18 UNL     1      29.172   6.169  47.801  1.00  0.00     0.012 A 
HETATM   30  C20 UNL     1      27.558   4.611  48.926  1.00  0.00     0.028 A 
ENDBRANCH   7  22
TORSDOF 4
ENDMDL
MODEL 4
REMARK VINA RESULT:      -8.9      8.508     11.783
REMARK  4 active torsions:
REMARK  status: ('A' for Active; 'I' for Inactive)
REMARK    1  A    between atoms: N1_1  and  C1_2 
REMARK    2  A    between atoms: C2_4  and  N3_5 
REMARK    3  A    between atoms: N3_5  and  C3_6 
REMARK    4  A    between atoms: C11_16  and  C12_17 
ROOT
HETATM    1  C1  UNL     1      30.140   8.066  45.834  1.00  0.00     0.724 C 
HETATM    2  N2  UNL     1      31.319   8.550  46.033  1.00  0.00    -0.046 NA
HETATM    3  C2  UNL     1      32.207   8.598  47.144  1.00  0.00     0.145 C 
HETATM    4  C9  UNL     1      31.928   8.765  48.440  1.00  0.00     0.043 C 
HETATM    5  C10 UNL     1      30.649   8.956  49.209  1.00  0.00     0.152 C 
HETATM    6  N4  UNL     1      29.786   7.780  49.057  1.00  0.00    -0.370 N 
HETATM    7  C11 UNL     1      29.083   7.273  47.928  1.00  0.00     0.154 C 
HETATM    8  N5  UNL     1      29.180   7.355  46.644  1.00  0.00    -0.045 NA
HETATM    9  H11 UNL     1      29.661   7.212  49.922  1.00  0.00     0.161 HD
ENDROOT
BRANCH   3  10
HETATM   10  N3  UNL     1      33.609   8.450  46.855  1.00  0.00    -0.341 N 
HETATM   11  H3  UNL     1      34.012   9.219  46.282  1.00  0.00     0.167 HD
BRANCH  10  12
HETATM   12  C3  UNL     1      34.157   7.256  47.429  1.00  0.00     0.034 A 
HETATM   13  C4  UNL     1      35.075   7.230  48.455  1.00  0.00     0.029 A 
HETATM   14  C5  UNL     1      35.545   6.015  48.943  1.00  0.00     0.004 A 
HETATM   15  C6  UNL     1      35.097   4.807  48.404  1.00  0.00     0.019 A 
HETATM   16  C7  UNL     1      34.180   4.869  47.380  1.00  0.00     0.013 A 
HETATM   17 BR1  UNL     1      33.557   3.221  46.630  1.00  0.00    -0.051 Br
HETATM   18  C8  UNL     1      33.699   6.060  46.880  1.00  0.00     0.048 A 
ENDBRANCH  10  12
ENDBRANCH   3  10
BRANCH   1  19
HETATM   19  N1  UNL     1      29.717   8.312  44.487  1.00  0.00    -0.231 N 
HETATM   20  H1  UNL     1      29.778   9.139  43.834  1.00  0.00     0.174 HD
HETATM   21  H2  UNL     1      29.227   7.500  44.007  1.00  0.00     0.174 HD
ENDBRANCH   1  19
BRANCH   7  22
HETATM   22  C12 UNL     1      27.952   6.438  48.315  1.00  0.00     0.023 A 
HETATM   23  C13 UNL     1      27.982   5.194  48.707  1.00  0.00     0.001 A 
HETATM   24  C14 UNL     1      26.787   4.704  48.992  1.00  0.00    -0.014 A 
HETATM   25  C15 UNL     1      26.494   3.432  49.427  1.00  0.00     0.013 A 
HETATM   26  C19 UNL     1      25.856   5.700  48.774  1.00  0.00    -0.024 A 
HETATM   27  C16 UNL     1      25.145   3.192  49.648  1.00  0.00     0.001 A 
HETATM   28  C17 UNL     1      24.172   4.145  49.449  1.00  0.00     0.001 A 
HETATM   29  C18 UNL     1      24.518   5.413  49.008  1.00  0.00     0.012 A 
HETATM   30  C20 UNL     1      26.531   6.765  48.363  1.00  0.00     0.028 A 
ENDBRANCH   7  22
TORSDOF 4
ENDMDL
MODEL 5
REMARK VINA RESULT:      -8.9      2.785      4.079
REMARK  4 active torsions:
REMARK  status: ('A' for Active; 'I' for Inactive)
REMARK    1  A    between atoms: N1_1  and  C1_2 
REMARK    2  A    between atoms: C2_4  and  N3_5 
REMARK    3  A    between atoms: N3_5  and  C3_6 
REMARK    4  A    between atoms: C11_16  and  C12_17 
ROOT
HETATM    1  C1  UNL     1      22.203   0.765  53.146  1.00  0.00     0.724 C 
HETATM    2  N2  UNL     1      21.490   1.739  52.689  1.00  0.00    -0.046 NA
HETATM    3  C2  UNL     1      21.776   2.945  51.989  1.00  0.00     0.145 C 
HETATM    4  C9  UNL     1      22.811   3.778  52.130  1.00  0.00     0.043 C 
HETATM    5  C10 UNL     1      24.021   3.785  53.023  1.00  0.00     0.152 C 
HETATM    6  N4  UNL     1      24.856   2.609  52.755  1.00  0.00    -0.370 N 
HETATM    7  C11 UNL     1      24.631   1.225  52.998  1.00  0.00     0.154 C 
HETATM    8  N5  UNL     1      23.611   0.451  53.159  1.00  0.00    -0.045 NA
HETATM    9  H11 UNL     1      25.775   2.817  52.310  1.00  0.00     0.161 HD
ENDROOT
BRANCH   3  10
HETATM   10  N3  UNL     1      20.827   3.345  50.983  1.00  0.00    -0.341 N 
HETATM   11  H3  UNL     1      19.943   3.740  51.360  1.00  0.00     0.167 HD
BRANCH  10  12
HETATM   12  C3  UNL     1      21.315   3.109  49.655  1.00  0.00     0.034 A 
HETATM   13  C4  UNL     1      21.670   1.874  49.160  1.00  0.00     0.029 A 
HETATM   14  C5  UNL     1      22.132   1.749  47.853  1.00  0.00     0.004 A 
HETATM   15  C6  UNL     1      22.244   2.869  47.026  1.00  0.00     0.019 A 
HETATM   16  C7  UNL     1      21.882   4.087  47.553  1.00  0.00     0.013 A 
HETATM   17 BR1  UNL     1      22.031   5.631  46.430  1.00  0.00    -0.051 Br
HETATM   18  C8  UNL     1      21.421   4.236  48.843  1.00  0.00     0.048 A 
ENDBRANCH  10  12
ENDBRANCH   3  10
BRANCH   1  19
HETATM   19  N1  UNL     1      21.369  -0.212  53.782  1.00  0.00    -0.231 N 
HETATM   20  H1  UNL     1      20.607  -0.168  54.511  1.00  0.00     0.174 HD
HETATM   21  H2  UNL     1      21.526  -1.217  53.473  1.00  0.00     0.174 HD
ENDBRANCH   1  19
BRANCH   7  22
HETATM   22  C12 UNL     1      25.878   0.474  53.089  1.00  0.00     0.023 A 
HETATM   23  C13 UNL     1      27.049   0.923  53.446  1.00  0.00     0.001 A 
HETATM   24  C14 UNL     1      27.994  -0.002  53.432  1.00  0.00    -0.014 A 
HETATM   25  C15 UNL     1      29.321   0.161  53.755  1.00  0.00     0.013 A 
HETATM   26  C19 UNL     1      27.418  -1.191  53.029  1.00  0.00    -0.024 A 
HETATM   27  C16 UNL     1      30.089  -0.991  53.650  1.00  0.00     0.001 A 
HETATM   28  C17 UNL     1      29.571  -2.203  53.253  1.00  0.00     0.001 A 
HETATM   29  C18 UNL     1      28.226  -2.316  52.937  1.00  0.00     0.012 A 
HETATM   30  C20 UNL     1      26.134  -0.935  52.813  1.00  0.00     0.028 A 
ENDBRANCH   7  22
TORSDOF 4
ENDMDL
MODEL 6
REMARK VINA RESULT:      -8.7      4.078      5.137
REMARK  4 active torsions:
REMARK  status: ('A' for Active; 'I' for Inactive)
REMARK    1  A    between atoms: N1_1  and  C1_2 
REMARK    2  A    between atoms: C2_4  and  N3_5 
REMARK    3  A    between atoms: N3_5  and  C3_6 
REMARK    4  A    between atoms: C11_16  and  C12_17 
ROOT
HETATM    1  C1  UNL     1      24.764   2.602  51.301  1.00  0.00     0.724 C 
HETATM    2  N2  UNL     1      23.611   2.033  51.183  1.00  0.00    -0.046 NA
HETATM    3  C2  UNL     1      22.577   2.061  50.205  1.00  0.00     0.145 C 
HETATM    4  C9  UNL     1      22.139   3.086  49.469  1.00  0.00     0.043 C 
HETATM    5  C10 UNL     1      22.530   4.536  49.375  1.00  0.00     0.152 C 
HETATM    6  N4  UNL     1      23.920   4.657  48.923  1.00  0.00    -0.370 N 
HETATM    7  C11 UNL     1      25.147   4.323  49.563  1.00  0.00     0.154 C 
HETATM    8  N5  UNL     1      25.532   3.524  50.501  1.00  0.00    -0.045 NA
HETATM    9  H11 UNL     1      24.038   5.057  47.967  1.00  0.00     0.161 HD
ENDROOT
BRANCH   3  10
HETATM   10  N3  UNL     1      21.891   0.820  49.958  1.00  0.00    -0.341 N 
HETATM   11  H3  UNL     1      22.089   0.399  49.028  1.00  0.00     0.167 HD
BRANCH  10  12
HETATM   12  C3  UNL     1      21.070   0.426  51.065  1.00  0.00     0.034 A 
HETATM   13  C4  UNL     1      19.697   0.530  51.098  1.00  0.00     0.029 A 
HETATM   14  C5  UNL     1      18.989   0.118  52.223  1.00  0.00     0.004 A 
HETATM   15  C6  UNL     1      19.656  -0.406  53.333  1.00  0.00     0.019 A 
HETATM   16  C7  UNL     1      21.027  -0.495  53.267  1.00  0.00     0.013 A 
HETATM   17 BR1  UNL     1      21.954  -1.210  54.782  1.00  0.00    -0.051 Br
HETATM   18  C8  UNL     1      21.749  -0.094  52.164  1.00  0.00     0.048 A 
ENDBRANCH  10  12
ENDBRANCH   3  10
BRANCH   1  19
HETATM   19  N1  UNL     1      25.398   2.201  52.523  1.00  0.00    -0.231 N 
HETATM   20  H1  UNL     1      26.320   1.746  52.759  1.00  0.00     0.174 HD
HETATM   21  H2  UNL     1      24.841   2.391  53.409  1.00  0.00     0.174 HD
ENDBRANCH   1  19
BRANCH   7  22
HETATM   22  C12 UNL     1      26.272   5.077  49.023  1.00  0.00     0.023 A 
HETATM   23  C13 UNL     1      27.498   4.664  48.858  1.00  0.00     0.001 A 
HETATM   24  C14 UNL     1      28.298   5.581  48.343  1.00  0.00    -0.014 A 
HETATM   25  C15 UNL     1      29.636   5.449  48.054  1.00  0.00     0.013 A 
HETATM   26  C19 UNL     1      27.553   6.727  48.137  1.00  0.00    -0.024 A 
HETATM   27  C16 UNL     1      30.228   6.584  47.517  1.00  0.00     0.001 A 
HETATM   28  C17 UNL     1      29.538   7.753  47.290  1.00  0.00     0.001 A 
HETATM   29  C18 UNL     1      28.189   7.837  47.599  1.00  0.00     0.012 A 
HETATM   30  C20 UNL     1      26.319   6.453  48.540  1.00  0.00     0.028 A 
ENDBRANCH   7  22
TORSDOF 4
ENDMDL
MODEL 7
REMARK VINA RESULT:      -8.6      8.857     11.826
REMARK  4 active torsions:
REMARK  status: ('A' for Active; 'I' for Inactive)
REMARK    1  A    between atoms: N1_1  and  C1_2 
REMARK    2  A    between atoms: C2_4  and  N3_5 
REMARK    3  A    between atoms: N3_5  and  C3_6 
REMARK    4  A    between atoms: C11_16  and  C12_17 
ROOT
HETATM    1  C1  UNL     1      29.978   8.146  45.742  1.00  0.00     0.724 C 
HETATM    2  N2  UNL     1      31.192   8.567  45.860  1.00  0.00    -0.046 NA
HETATM    3  C2  UNL     1      32.186   8.481  46.876  1.00  0.00     0.145 C 
HETATM    4  C9  UNL     1      32.044   8.537  48.203  1.00  0.00     0.043 C 
HETATM    5  C10 UNL     1      30.857   8.703  49.112  1.00  0.00     0.152 C 
HETATM    6  N4  UNL     1      29.930   7.578  48.946  1.00  0.00    -0.370 N 
HETATM    7  C11 UNL     1      29.098   7.202  47.854  1.00  0.00     0.154 C 
HETATM    8  N5  UNL     1      29.072   7.398  46.579  1.00  0.00    -0.045 NA
HETATM    9  H11 UNL     1      29.866   6.938  49.766  1.00  0.00     0.161 HD
ENDROOT
BRANCH   3  10
HETATM   10  N3  UNL     1      33.545   8.309  46.434  1.00  0.00    -0.341 N 
HETATM   11  H3  UNL     1      34.144   9.151  46.553  1.00  0.00     0.167 HD
BRANCH  10  12
HETATM   12  C3  UNL     1      33.784   6.994  45.915  1.00  0.00     0.034 A 
HETATM   13  C4  UNL     1      33.745   6.660  44.579  1.00  0.00     0.029 A 
HETATM   14  C5  UNL     1      33.993   5.352  44.176  1.00  0.00     0.004 A 
HETATM   15  C6  UNL     1      34.283   4.359  45.115  1.00  0.00     0.019 A 
HETATM   16  C7  UNL     1      34.313   4.726  46.440  1.00  0.00     0.013 A 
HETATM   17 BR1  UNL     1      34.710   3.375  47.738  1.00  0.00    -0.051 Br
HETATM   18  C8  UNL     1      34.072   6.016  46.863  1.00  0.00     0.048 A 
ENDBRANCH  10  12
ENDBRANCH   3  10
BRANCH   1  19
HETATM   19  N1  UNL     1      29.437   8.530  44.471  1.00  0.00    -0.231 N 
HETATM   20  H1  UNL     1      28.459   8.669  44.098  1.00  0.00     0.174 HD
HETATM   21  H2  UNL     1      30.153   8.725  43.710  1.00  0.00     0.174 HD
ENDBRANCH   1  19
BRANCH   7  22
HETATM   22  C12 UNL     1      27.973   6.377  48.280  1.00  0.00     0.023 A 
HETATM   23  C13 UNL     1      28.007   5.135  48.678  1.00  0.00     0.001 A 
HETATM   24  C14 UNL     1      26.819   4.654  49.001  1.00  0.00    -0.014 A 
HETATM   25  C15 UNL     1      26.531   3.387  49.452  1.00  0.00     0.013 A 
HETATM   26  C19 UNL     1      25.888   5.655  48.806  1.00  0.00    -0.024 A 
HETATM   27  C16 UNL     1      25.188   3.157  49.715  1.00  0.00     0.001 A 
HETATM   28  C17 UNL     1      24.215   4.114  49.540  1.00  0.00     0.001 A 
HETATM   29  C18 UNL     1      24.556   5.378  49.082  1.00  0.00     0.012 A 
HETATM   30  C20 UNL     1      26.557   6.713  48.368  1.00  0.00     0.028 A 
ENDBRANCH   7  22
TORSDOF 4
ENDMDL
MODEL 8
REMARK VINA RESULT:      -8.4      2.748      3.766
REMARK  4 active torsions:
REMARK  status: ('A' for Active; 'I' for Inactive)
REMARK    1  A    between atoms: N1_1  and  C1_2 
REMARK    2  A    between atoms: C2_4  and  N3_5 
REMARK    3  A    between atoms: N3_5  and  C3_6 
REMARK    4  A    between atoms: C11_16  and  C12_17 
ROOT
HETATM    1  C1  UNL     1      21.129  -0.537  53.570  1.00  0.00     0.724 C 
HETATM    2  N2  UNL     1      20.072  -0.157  52.935  1.00  0.00    -0.046 NA
HETATM    3  C2  UNL     1      19.818   0.748  51.866  1.00  0.00     0.145 C 
HETATM    4  C9  UNL     1      20.391   1.926  51.603  1.00  0.00     0.043 C 
HETATM    5  C10 UNL     1      21.469   2.728  52.280  1.00  0.00     0.152 C 
HETATM    6  N4  UNL     1      22.732   1.983  52.278  1.00  0.00    -0.370 N 
HETATM    7  C11 UNL     1      23.124   0.798  52.962  1.00  0.00     0.154 C 
HETATM    8  N5  UNL     1      22.535  -0.222  53.490  1.00  0.00    -0.045 NA
HETATM    9  H11 UNL     1      23.478   2.386  51.671  1.00  0.00     0.161 HD
ENDROOT
BRANCH   3  10
HETATM   10  N3  UNL     1      18.802   0.361  50.922  1.00  0.00    -0.341 N 
HETATM   11  H3  UNL     1      19.162   0.143  49.971  1.00  0.00     0.167 HD
BRANCH  10  12
HETATM   12  C3  UNL     1      17.493   0.358  51.507  1.00  0.00     0.034 A 
HETATM   13  C4  UNL     1      16.889  -0.745  52.069  1.00  0.00     0.029 A 
HETATM   14  C5  UNL     1      15.613  -0.643  52.613  1.00  0.00     0.004 A 
HETATM   15  C6  UNL     1      14.925   0.573  52.599  1.00  0.00     0.019 A 
HETATM   16  C7  UNL     1      15.558   1.654  52.029  1.00  0.00     0.013 A 
HETATM   17 BR1  UNL     1      14.627   3.327  52.002  1.00  0.00    -0.051 Br
HETATM   18  C8  UNL     1      16.821   1.578  51.485  1.00  0.00     0.048 A 
ENDBRANCH  10  12
ENDBRANCH   3  10
BRANCH   1  19
HETATM   19  N1  UNL     1      20.790  -1.494  54.582  1.00  0.00    -0.231 N 
HETATM   20  H1  UNL     1      19.969  -2.137  54.742  1.00  0.00     0.174 HD
HETATM   21  H2  UNL     1      21.504  -1.605  55.362  1.00  0.00     0.174 HD
ENDBRANCH   1  19
BRANCH   7  22
HETATM   22  C12 UNL     1      24.571   0.703  53.113  1.00  0.00     0.023 A 
HETATM   23  C13 UNL     1      25.420   1.684  53.252  1.00  0.00     0.001 A 
HETATM   24  C14 UNL     1      26.674   1.282  53.366  1.00  0.00    -0.014 A 
HETATM   25  C15 UNL     1      27.788   2.073  53.524  1.00  0.00     0.013 A 
HETATM   26  C19 UNL     1      26.686  -0.098  53.299  1.00  0.00    -0.024 A 
HETATM   27  C16 UNL     1      28.985   1.375  53.618  1.00  0.00     0.001 A 
HETATM   28  C17 UNL     1      29.059   0.002  53.557  1.00  0.00     0.001 A 
HETATM   29  C18 UNL     1      27.906  -0.751  53.396  1.00  0.00     0.012 A 
HETATM   30  C20 UNL     1      25.424  -0.479  53.144  1.00  0.00     0.028 A 
ENDBRANCH   7  22
TORSDOF 4
ENDMDL
MODEL 9
REMARK VINA RESULT:      -8.3      4.166      5.340
REMARK  4 active torsions:
REMARK  status: ('A' for Active; 'I' for Inactive)
REMARK    1  A    between atoms: N1_1  and  C1_2 
REMARK    2  A    between atoms: C2_4  and  N3_5 
REMARK    3  A    between atoms: N3_5  and  C3_6 
REMARK    4  A    between atoms: C11_16  and  C12_17 
ROOT
HETATM    1  C1  UNL     1      23.296   5.393  51.949  1.00  0.00     0.724 C 
HETATM    2  N2  UNL     1      22.025   5.186  51.872  1.00  0.00    -0.046 NA
HETATM    3  C2  UNL     1      21.088   5.098  50.804  1.00  0.00     0.145 C 
HETATM    4  C9  UNL     1      21.036   5.800  49.668  1.00  0.00     0.043 C 
HETATM    5  C10 UNL     1      21.886   6.896  49.087  1.00  0.00     0.152 C 
HETATM    6  N4  UNL     1      23.252   6.411  48.858  1.00  0.00    -0.370 N 
HETATM    7  C11 UNL     1      24.279   6.038  49.770  1.00  0.00     0.154 C 
HETATM    8  N5  UNL     1      24.350   5.631  50.993  1.00  0.00    -0.045 NA
HETATM    9  H11 UNL     1      23.523   6.322  47.856  1.00  0.00     0.161 HD
ENDROOT
BRANCH   3  10
HETATM   10  N3  UNL     1      20.039   4.123  50.946  1.00  0.00    -0.341 N 
HETATM   11  H3  UNL     1      19.079   4.523  50.944  1.00  0.00     0.167 HD
BRANCH  10  12
HETATM   12  C3  UNL     1      20.552   2.789  51.061  1.00  0.00     0.034 A 
HETATM   13  C4  UNL     1      21.118   2.077  50.028  1.00  0.00     0.029 A 
HETATM   14  C5  UNL     1      21.589   0.785  50.243  1.00  0.00     0.004 A 
HETATM   15  C6  UNL     1      21.495   0.192  51.504  1.00  0.00     0.019 A 
HETATM   16  C7  UNL     1      20.923   0.931  52.513  1.00  0.00     0.013 A 
HETATM   17 BR1  UNL     1      20.787   0.131  54.247  1.00  0.00    -0.051 Br
HETATM   18  C8  UNL     1      20.451   2.212  52.325  1.00  0.00     0.048 A 
ENDBRANCH  10  12
ENDBRANCH   3  10
BRANCH   1  19
HETATM   19  N1  UNL     1      23.725   5.377  53.317  1.00  0.00    -0.231 N 
HETATM   20  H1  UNL     1      24.629   5.130  53.803  1.00  0.00     0.174 HD
HETATM   21  H2  UNL     1      22.993   5.674  54.028  1.00  0.00     0.174 HD
ENDBRANCH   1  19
BRANCH   7  22
HETATM   22  C12 UNL     1      25.606   6.138  49.173  1.00  0.00     0.023 A 
HETATM   23  C13 UNL     1      26.096   7.138  48.494  1.00  0.00     0.001 A 
HETATM   24  C14 UNL     1      27.335   6.935  48.079  1.00  0.00    -0.014 A 
HETATM   25  C15 UNL     1      28.116   7.796  47.345  1.00  0.00     0.013 A 
HETATM   26  C19 UNL     1      27.728   5.683  48.512  1.00  0.00    -0.024 A 
HETATM   27  C16 UNL     1      29.385   7.317  47.048  1.00  0.00     0.001 A 
HETATM   28  C17 UNL     1      29.832   6.080  47.452  1.00  0.00     0.001 A 
HETATM   29  C18 UNL     1      29.006   5.247  48.191  1.00  0.00     0.012 A 
HETATM   30  C20 UNL     1      26.700   5.174  49.179  1.00  0.00     0.028 A 
ENDBRANCH   7  22
TORSDOF 4
ENDMDL
