MODEL 1
REMARK VINA RESULT:      -8.8      0.000      0.000
REMARK  4 active torsions:
REMARK  status: ('A' for Active; 'I' for Inactive)
REMARK    1  A    between atoms: N1_4  and  N2_5 
REMARK    2  A    between atoms: N2_5  and  C4_6 
REMARK    3  A    between atoms: N2_5  and  C11_14 
REMARK    4  A    between atoms: C4_6  and  C5_7 
ROOT
HETATM    1  N2  UNL     1      24.464   2.707  50.817  1.00  0.00    -0.266 N 
ENDROOT
BRANCH   1   2
HETATM    2  N1  UNL     1      25.528   3.166  50.038  1.00  0.00    -0.176 NA
HETATM    3  C3  UNL     1      25.861   4.365  49.812  1.00  0.00     0.065 A 
HETATM    4  C2  UNL     1      25.233   5.620  50.297  1.00  0.00     0.095 A 
HETATM    5  C17 UNL     1      27.050   4.448  48.937  1.00  0.00     0.032 A 
HETATM    6  C1  UNL     1      23.800   5.744  49.858  1.00  0.00     0.024 C 
HETATM    7  C20 UNL     1      25.958   6.813  49.783  1.00  0.00     0.089 A 
HETATM    8  C19 UNL     1      27.031   6.872  48.992  1.00  0.00     0.098 A 
HETATM    9  O1  UNL     1      25.381   7.998  50.229  1.00  0.00    -0.350 OA
HETATM   10  C18 UNL     1      27.586   5.594  48.560  1.00  0.00     0.041 A 
HETATM   11  O2  UNL     1      27.549   8.094  48.631  1.00  0.00    -0.346 OA
HETATM   12  C22 UNL     1      27.311   9.199  49.510  1.00  0.00     0.202 C 
HETATM   13  C21 UNL     1      25.813   9.260  49.726  1.00  0.00     0.202 C 
ENDBRANCH   1   2
BRANCH   1  14
HETATM   14  C4  UNL     1      24.687   2.825  52.246  1.00  0.00     0.190 C 
BRANCH  14  15
HETATM   15  C5  UNL     1      25.746   1.797  52.550  1.00  0.00    -0.037 A 
HETATM   16  C6  UNL     1      25.593   0.471  52.175  1.00  0.00     0.009 A 
HETATM   17  C7  UNL     1      26.555  -0.482  52.446  1.00  0.00     0.002 A 
HETATM   18  C8  UNL     1      27.700  -0.079  53.115  1.00  0.00     0.024 A 
HETATM   19  C9  UNL     1      27.866   1.244  53.497  1.00  0.00     0.034 A 
HETATM   20 CL1  UNL     1      29.369   1.609  54.338  1.00  0.00    -0.084 Cl
HETATM   21  C10 UNL     1      26.893   2.179  53.216  1.00  0.00     0.032 A 
ENDBRANCH  14  15
ENDBRANCH   1  14
BRANCH   1  22
HETATM   22  C11 UNL     1      23.294   2.181  50.178  1.00  0.00     0.053 A 
HETATM   23  C12 UNL     1      22.387   1.459  50.893  1.00  0.00     0.031 A 
HETATM   24  C13 UNL     1      21.255   0.946  50.294  1.00  0.00     0.002 A 
HETATM   25  C14 UNL     1      20.988   1.135  48.953  1.00  0.00     0.000 A 
HETATM   26  C15 UNL     1      21.912   1.866  48.237  1.00  0.00     0.002 A 
HETATM   27  C16 UNL     1      23.040   2.372  48.858  1.00  0.00     0.031 A 
ENDBRANCH   1  22
TORSDOF 4
ENDMDL
MODEL 2
REMARK VINA RESULT:      -8.8      0.991      1.351
REMARK  4 active torsions:
REMARK  status: ('A' for Active; 'I' for Inactive)
REMARK    1  A    between atoms: N1_4  and  N2_5 
REMARK    2  A    between atoms: N2_5  and  C4_6 
REMARK    3  A    between atoms: N2_5  and  C11_14 
REMARK    4  A    between atoms: C4_6  and  C5_7 
ROOT
HETATM    1  N2  UNL     1      24.533   2.622  50.961  1.00  0.00    -0.266 N 
ENDROOT
BRANCH   1   2
HETATM    2  N1  UNL     1      25.567   3.086  50.144  1.00  0.00    -0.176 NA
HETATM    3  C3  UNL     1      25.864   4.286  49.880  1.00  0.00     0.065 A 
HETATM    4  C2  UNL     1      25.218   5.538  50.351  1.00  0.00     0.095 A 
HETATM    5  C17 UNL     1      27.029   4.376  48.974  1.00  0.00     0.032 A 
HETATM    6  C1  UNL     1      23.772   5.617  49.945  1.00  0.00     0.024 C 
HETATM    7  C20 UNL     1      25.902   6.735  49.789  1.00  0.00     0.089 A 
HETATM    8  C19 UNL     1      26.953   6.799  48.970  1.00  0.00     0.098 A 
HETATM    9  O1  UNL     1      25.307   7.917  50.221  1.00  0.00    -0.350 OA
HETATM   10  C18 UNL     1      27.528   5.525  48.556  1.00  0.00     0.041 A 
HETATM   11  O2  UNL     1      27.432   8.024  48.566  1.00  0.00    -0.346 OA
HETATM   12  C22 UNL     1      27.189   9.145  49.424  1.00  0.00     0.202 C 
HETATM   13  C21 UNL     1      25.696   9.175  49.676  1.00  0.00     0.202 C 
ENDBRANCH   1   2
BRANCH   1  14
HETATM   14  C4  UNL     1      24.807   2.741  52.380  1.00  0.00     0.190 C 
BRANCH  14  15
HETATM   15  C5  UNL     1      25.953   1.794  52.626  1.00  0.00    -0.037 A 
HETATM   16  C6  UNL     1      27.171   2.245  53.110  1.00  0.00     0.009 A 
HETATM   17  C7  UNL     1      28.230   1.389  53.340  1.00  0.00     0.002 A 
HETATM   18  C8  UNL     1      28.048   0.041  53.072  1.00  0.00     0.024 A 
HETATM   19  C9  UNL     1      26.834  -0.424  52.586  1.00  0.00     0.034 A 
HETATM   20 CL1  UNL     1      26.749  -2.158  52.292  1.00  0.00    -0.084 Cl
HETATM   21  C10 UNL     1      25.790   0.448  52.364  1.00  0.00     0.032 A 
ENDBRANCH  14  15
ENDBRANCH   1  14
BRANCH   1  22
HETATM   22  C11 UNL     1      23.344   2.090  50.364  1.00  0.00     0.053 A 
HETATM   23  C12 UNL     1      22.480   1.340  51.104  1.00  0.00     0.031 A 
HETATM   24  C13 UNL     1      21.331   0.820  50.546  1.00  0.00     0.002 A 
HETATM   25  C14 UNL     1      21.001   1.031  49.222  1.00  0.00     0.000 A 
HETATM   26  C15 UNL     1      21.881   1.790  48.481  1.00  0.00     0.002 A 
HETATM   27  C16 UNL     1      23.028   2.302  49.061  1.00  0.00     0.031 A 
ENDBRANCH   1  22
TORSDOF 4
ENDMDL
MODEL 3
REMARK VINA RESULT:      -8.6      3.447      5.675
REMARK  4 active torsions:
REMARK  status: ('A' for Active; 'I' for Inactive)
REMARK    1  A    between atoms: N1_4  and  N2_5 
REMARK    2  A    between atoms: N2_5  and  C4_6 
REMARK    3  A    between atoms: N2_5  and  C11_14 
REMARK    4  A    between atoms: C4_6  and  C5_7 
ROOT
HETATM    1  N2  UNL     1      25.541   1.080  52.884  1.00  0.00    -0.266 N 
ENDROOT
BRANCH   1   2
HETATM    2  N1  UNL     1      24.796   2.228  53.161  1.00  0.00    -0.176 NA
HETATM    3  C3  UNL     1      24.349   3.077  52.337  1.00  0.00     0.065 A 
HETATM    4  C2  UNL     1      24.478   3.107  50.857  1.00  0.00     0.095 A 
HETATM    5  C17 UNL     1      23.604   4.159  53.015  1.00  0.00     0.032 A 
HETATM    6  C1  UNL     1      25.914   3.164  50.414  1.00  0.00     0.024 C 
HETATM    7  C20 UNL     1      23.790   4.296  50.286  1.00  0.00     0.089 A 
HETATM    8  C19 UNL     1      23.121   5.266  50.912  1.00  0.00     0.098 A 
HETATM    9  O1  UNL     1      23.902   4.338  48.899  1.00  0.00    -0.350 OA
HETATM   10  C18 UNL     1      23.042   5.161  52.364  1.00  0.00     0.041 A 
HETATM   11  O2  UNL     1      22.555   6.287  50.184  1.00  0.00    -0.346 OA
HETATM   12  C22 UNL     1      22.209   6.015  48.821  1.00  0.00     0.202 C 
HETATM   13  C21 UNL     1      23.461   5.475  48.161  1.00  0.00     0.202 C 
ENDBRANCH   1   2
BRANCH   1  14
HETATM   14  C4  UNL     1      24.796   0.049  52.187  1.00  0.00     0.190 C 
BRANCH  14  15
HETATM   15  C5  UNL     1      23.684  -0.321  53.134  1.00  0.00    -0.037 A 
HETATM   16  C6  UNL     1      23.950  -0.829  54.396  1.00  0.00     0.009 A 
HETATM   17  C7  UNL     1      22.943  -1.173  55.276  1.00  0.00     0.002 A 
HETATM   18  C8  UNL     1      21.631  -0.996  54.863  1.00  0.00     0.024 A 
HETATM   19  C9  UNL     1      21.350  -0.489  53.603  1.00  0.00     0.034 A 
HETATM   20 CL1  UNL     1      19.640  -0.320  53.217  1.00  0.00    -0.084 Cl
HETATM   21  C10 UNL     1      22.371  -0.153  52.741  1.00  0.00     0.032 A 
ENDBRANCH  14  15
ENDBRANCH   1  14
BRANCH   1  22
HETATM   22  C11 UNL     1      26.913   1.011  53.292  1.00  0.00     0.053 A 
HETATM   23  C12 UNL     1      27.530  -0.196  53.427  1.00  0.00     0.031 A 
HETATM   24  C13 UNL     1      28.850  -0.281  53.818  1.00  0.00     0.002 A 
HETATM   25  C14 UNL     1      29.606   0.841  54.089  1.00  0.00     0.000 A 
HETATM   26  C15 UNL     1      28.973   2.059  53.950  1.00  0.00     0.002 A 
HETATM   27  C16 UNL     1      27.649   2.121  53.556  1.00  0.00     0.031 A 
ENDBRANCH   1  22
TORSDOF 4
ENDMDL
MODEL 4
REMARK VINA RESULT:      -8.3      2.855      5.642
REMARK  4 active torsions:
REMARK  status: ('A' for Active; 'I' for Inactive)
REMARK    1  A    between atoms: N1_4  and  N2_5 
REMARK    2  A    between atoms: N2_5  and  C4_6 
REMARK    3  A    between atoms: N2_5  and  C11_14 
REMARK    4  A    between atoms: C4_6  and  C5_7 
ROOT
HETATM    1  N2  UNL     1      24.653   2.766  51.383  1.00  0.00    -0.266 N 
ENDROOT
BRANCH   1   2
HETATM    2  N1  UNL     1      23.684   1.928  50.827  1.00  0.00    -0.176 NA
HETATM    3  C3  UNL     1      22.485   2.215  50.542  1.00  0.00     0.065 A 
HETATM    4  C2  UNL     1      21.762   3.501  50.711  1.00  0.00     0.095 A 
HETATM    5  C17 UNL     1      21.768   1.058  49.965  1.00  0.00     0.032 A 
HETATM    6  C1  UNL     1      21.718   3.943  52.148  1.00  0.00     0.024 C 
HETATM    7  C20 UNL     1      20.356   3.389  50.238  1.00  0.00     0.089 A 
HETATM    8  C19 UNL     1      19.722   2.336  49.720  1.00  0.00     0.098 A 
HETATM    9  O1  UNL     1      19.665   4.588  50.390  1.00  0.00    -0.350 OA
HETATM   10  C18 UNL     1      20.503   1.112  49.588  1.00  0.00     0.041 A 
HETATM   11  O2  UNL     1      18.403   2.448  49.343  1.00  0.00    -0.346 OA
HETATM   12  C22 UNL     1      17.924   3.751  48.992  1.00  0.00     0.202 C 
HETATM   13  C21 UNL     1      18.261   4.660  50.156  1.00  0.00     0.202 C 
ENDBRANCH   1   2
BRANCH   1  14
HETATM   14  C4  UNL     1      24.831   2.593  52.812  1.00  0.00     0.190 C 
BRANCH  14  15
HETATM   15  C5  UNL     1      26.013   1.667  52.936  1.00  0.00    -0.037 A 
HETATM   16  C6  UNL     1      27.248   2.126  53.366  1.00  0.00     0.009 A 
HETATM   17  C7  UNL     1      28.341   1.290  53.484  1.00  0.00     0.002 A 
HETATM   18  C8  UNL     1      28.175  -0.047  53.158  1.00  0.00     0.024 A 
HETATM   19  C9  UNL     1      26.945  -0.521  52.726  1.00  0.00     0.034 A 
HETATM   20 CL1  UNL     1      26.885  -2.239  52.347  1.00  0.00    -0.084 Cl
HETATM   21  C10 UNL     1      25.868   0.332  52.615  1.00  0.00     0.032 A 
ENDBRANCH  14  15
ENDBRANCH   1  14
BRANCH   1  22
HETATM   22  C11 UNL     1      25.360   3.686  50.541  1.00  0.00     0.053 A 
HETATM   23  C12 UNL     1      26.436   3.266  49.818  1.00  0.00     0.031 A 
HETATM   24  C13 UNL     1      27.129   4.137  49.002  1.00  0.00     0.002 A 
HETATM   25  C14 UNL     1      26.770   5.464  48.879  1.00  0.00     0.000 A 
HETATM   26  C15 UNL     1      25.680   5.880  49.615  1.00  0.00     0.002 A 
HETATM   27  C16 UNL     1      25.001   4.989  50.426  1.00  0.00     0.031 A 
ENDBRANCH   1  22
TORSDOF 4
ENDMDL
MODEL 5
REMARK VINA RESULT:      -8.3      3.724      6.843
REMARK  4 active torsions:
REMARK  status: ('A' for Active; 'I' for Inactive)
REMARK    1  A    between atoms: N1_4  and  N2_5 
REMARK    2  A    between atoms: N2_5  and  C4_6 
REMARK    3  A    between atoms: N2_5  and  C11_14 
REMARK    4  A    between atoms: C4_6  and  C5_7 
ROOT
HETATM    1  N2  UNL     1      25.232   3.194  50.907  1.00  0.00    -0.266 N 
ENDROOT
BRANCH   1   2
HETATM    2  N1  UNL     1      26.283   3.086  51.821  1.00  0.00    -0.176 NA
HETATM    3  C3  UNL     1      26.839   2.029  52.239  1.00  0.00     0.065 A 
HETATM    4  C2  UNL     1      26.549   0.615  51.889  1.00  0.00     0.095 A 
HETATM    5  C17 UNL     1      27.920   2.323  53.203  1.00  0.00     0.032 A 
HETATM    6  C1  UNL     1      25.138   0.225  52.233  1.00  0.00     0.024 C 
HETATM    7  C20 UNL     1      27.455  -0.312  52.620  1.00  0.00     0.089 A 
HETATM    8  C19 UNL     1      28.427  -0.031  53.490  1.00  0.00     0.098 A 
HETATM    9  O1  UNL     1      27.195  -1.642  52.303  1.00  0.00    -0.350 OA
HETATM   10  C18 UNL     1      28.647   1.382  53.777  1.00  0.00     0.041 A 
HETATM   11  O2  UNL     1      29.154  -1.051  54.057  1.00  0.00    -0.346 OA
HETATM   12  C22 UNL     1      29.251  -2.280  53.327  1.00  0.00     0.202 C 
HETATM   13  C21 UNL     1      27.832  -2.703  53.010  1.00  0.00     0.202 C 
ENDBRANCH   1   2
BRANCH   1  14
HETATM   14  C4  UNL     1      25.633   3.010  49.526  1.00  0.00     0.190 C 
BRANCH  14  15
HETATM   15  C5  UNL     1      26.111   4.370  49.087  1.00  0.00    -0.037 A 
HETATM   16  C6  UNL     1      27.450   4.614  48.822  1.00  0.00     0.009 A 
HETATM   17  C7  UNL     1      27.904   5.854  48.420  1.00  0.00     0.002 A 
HETATM   18  C8  UNL     1      26.974   6.873  48.281  1.00  0.00     0.024 A 
HETATM   19  C9  UNL     1      25.631   6.644  48.543  1.00  0.00     0.034 A 
HETATM   20 CL1  UNL     1      24.568   8.031  48.326  1.00  0.00    -0.084 Cl
HETATM   21  C10 UNL     1      25.201   5.398  48.944  1.00  0.00     0.032 A 
ENDBRANCH  14  15
ENDBRANCH   1  14
BRANCH   1  22
HETATM   22  C11 UNL     1      23.907   3.465  51.382  1.00  0.00     0.053 A 
HETATM   23  C12 UNL     1      23.662   4.574  52.135  1.00  0.00     0.031 A 
HETATM   24  C13 UNL     1      22.393   4.851  52.600  1.00  0.00     0.002 A 
HETATM   25  C14 UNL     1      21.319   4.028  52.329  1.00  0.00     0.000 A 
HETATM   26  C15 UNL     1      21.577   2.908  51.566  1.00  0.00     0.002 A 
HETATM   27  C16 UNL     1      22.857   2.650  51.110  1.00  0.00     0.031 A 
ENDBRANCH   1  22
TORSDOF 4
ENDMDL
MODEL 6
REMARK VINA RESULT:      -8.2      3.590      5.085
REMARK  4 active torsions:
REMARK  status: ('A' for Active; 'I' for Inactive)
REMARK    1  A    between atoms: N1_4  and  N2_5 
REMARK    2  A    between atoms: N2_5  and  C4_6 
REMARK    3  A    between atoms: N2_5  and  C11_14 
REMARK    4  A    between atoms: C4_6  and  C5_7 
ROOT
HETATM    1  N2  UNL     1      24.521   1.120  52.647  1.00  0.00    -0.266 N 
ENDROOT
BRANCH   1   2
HETATM    2  N1  UNL     1      24.186   2.473  52.746  1.00  0.00    -0.176 NA
HETATM    3  C3  UNL     1      23.275   3.091  52.124  1.00  0.00     0.065 A 
HETATM    4  C2  UNL     1      22.308   2.577  51.121  1.00  0.00     0.095 A 
HETATM    5  C17 UNL     1      23.227   4.520  52.502  1.00  0.00     0.032 A 
HETATM    6  C1  UNL     1      22.995   2.003  49.913  1.00  0.00     0.024 C 
HETATM    7  C20 UNL     1      21.406   3.661  50.645  1.00  0.00     0.089 A 
HETATM    8  C19 UNL     1      21.376   4.948  50.995  1.00  0.00     0.098 A 
HETATM    9  O1  UNL     1      20.493   3.194  49.704  1.00  0.00    -0.350 OA
HETATM   10  C18 UNL     1      22.359   5.371  51.986  1.00  0.00     0.041 A 
HETATM   11  O2  UNL     1      20.449   5.790  50.426  1.00  0.00    -0.346 OA
HETATM   12  C22 UNL     1      19.236   5.206  49.938  1.00  0.00     0.202 C 
HETATM   13  C21 UNL     1      19.646   4.094  48.995  1.00  0.00     0.202 C 
ENDBRANCH   1   2
BRANCH   1  14
HETATM   14  C4  UNL     1      25.559   0.841  51.674  1.00  0.00     0.190 C 
BRANCH  14  15
HETATM   15  C5  UNL     1      26.845   0.937  52.454  1.00  0.00    -0.037 A 
HETATM   16  C6  UNL     1      27.323   2.156  52.912  1.00  0.00     0.009 A 
HETATM   17  C7  UNL     1      28.499   2.260  53.628  1.00  0.00     0.002 A 
HETATM   18  C8  UNL     1      29.208   1.097  53.886  1.00  0.00     0.024 A 
HETATM   19  C9  UNL     1      28.742  -0.129  53.434  1.00  0.00     0.034 A 
HETATM   20 CL1  UNL     1      29.747  -1.518  53.836  1.00  0.00    -0.084 Cl
HETATM   21  C10 UNL     1      27.566  -0.210  52.720  1.00  0.00     0.032 A 
ENDBRANCH  14  15
ENDBRANCH   1  14
BRANCH   1  22
HETATM   22  C11 UNL     1      23.847   0.162  53.472  1.00  0.00     0.053 A 
HETATM   23  C12 UNL     1      22.581  -0.238  53.166  1.00  0.00     0.031 A 
HETATM   24  C13 UNL     1      21.916  -1.159  53.948  1.00  0.00     0.002 A 
HETATM   25  C14 UNL     1      22.494  -1.717  55.071  1.00  0.00     0.000 A 
HETATM   26  C15 UNL     1      23.776  -1.306  55.374  1.00  0.00     0.002 A 
HETATM   27  C16 UNL     1      24.423  -0.381  54.575  1.00  0.00     0.031 A 
ENDBRANCH   1  22
TORSDOF 4
ENDMDL
MODEL 7
REMARK VINA RESULT:      -8.0      2.981      5.552
REMARK  4 active torsions:
REMARK  status: ('A' for Active; 'I' for Inactive)
REMARK    1  A    between atoms: N1_4  and  N2_5 
REMARK    2  A    between atoms: N2_5  and  C4_6 
REMARK    3  A    between atoms: N2_5  and  C11_14 
REMARK    4  A    between atoms: C4_6  and  C5_7 
ROOT
HETATM    1  N2  UNL     1      24.767   3.602  50.689  1.00  0.00    -0.266 N 
ENDROOT
BRANCH   1   2
HETATM    2  N1  UNL     1      23.901   2.743  50.008  1.00  0.00    -0.176 NA
HETATM    3  C3  UNL     1      22.766   3.016  49.522  1.00  0.00     0.065 A 
HETATM    4  C2  UNL     1      22.027   4.305  49.528  1.00  0.00     0.095 A 
HETATM    5  C17 UNL     1      22.151   1.840  48.870  1.00  0.00     0.032 A 
HETATM    6  C1  UNL     1      21.748   4.791  50.924  1.00  0.00     0.024 C 
HETATM    7  C20 UNL     1      20.717   4.173  48.835  1.00  0.00     0.089 A 
HETATM    8  C19 UNL     1      20.175   3.102  48.252  1.00  0.00     0.098 A 
HETATM    9  O1  UNL     1      20.013   5.373  48.833  1.00  0.00    -0.350 OA
HETATM   10  C18 UNL     1      20.966   1.877  48.290  1.00  0.00     0.041 A 
HETATM   11  O2  UNL     1      18.937   3.197  47.661  1.00  0.00    -0.346 OA
HETATM   12  C22 UNL     1      18.524   4.487  47.195  1.00  0.00     0.202 C 
HETATM   13  C21 UNL     1      18.666   5.433  48.369  1.00  0.00     0.202 C 
ENDBRANCH   1   2
BRANCH   1  14
HETATM   14  C4  UNL     1      24.658   3.523  52.133  1.00  0.00     0.190 C 
BRANCH  14  15
HETATM   15  C5  UNL     1      24.910   2.071  52.453  1.00  0.00    -0.037 A 
HETATM   16  C6  UNL     1      26.104   1.454  52.112  1.00  0.00     0.009 A 
HETATM   17  C7  UNL     1      26.350   0.126  52.397  1.00  0.00     0.002 A 
HETATM   18  C8  UNL     1      25.358  -0.595  53.046  1.00  0.00     0.024 A 
HETATM   19  C9  UNL     1      24.158   0.010  53.392  1.00  0.00     0.034 A 
HETATM   20 CL1  UNL     1      22.994  -1.028  54.209  1.00  0.00    -0.084 Cl
HETATM   21  C10 UNL     1      23.934   1.337  53.097  1.00  0.00     0.032 A 
ENDBRANCH  14  15
ENDBRANCH   1  14
BRANCH   1  22
HETATM   22  C11 UNL     1      25.650   4.451  49.946  1.00  0.00     0.053 A 
HETATM   23  C12 UNL     1      26.771   3.937  49.367  1.00  0.00     0.031 A 
HETATM   24  C13 UNL     1      27.633   4.739  48.648  1.00  0.00     0.002 A 
HETATM   25  C14 UNL     1      27.405   6.090  48.480  1.00  0.00     0.000 A 
HETATM   26  C15 UNL     1      26.268   6.602  49.070  1.00  0.00     0.002 A 
HETATM   27  C16 UNL     1      25.418   5.779  49.787  1.00  0.00     0.031 A 
ENDBRANCH   1  22
TORSDOF 4
ENDMDL
MODEL 8
REMARK VINA RESULT:      -7.4      3.963      7.481
REMARK  4 active torsions:
REMARK  status: ('A' for Active; 'I' for Inactive)
REMARK    1  A    between atoms: N1_4  and  N2_5 
REMARK    2  A    between atoms: N2_5  and  C4_6 
REMARK    3  A    between atoms: N2_5  and  C11_14 
REMARK    4  A    between atoms: C4_6  and  C5_7 
ROOT
HETATM    1  N2  UNL     1      23.411   2.693  50.809  1.00  0.00    -0.266 N 
ENDROOT
BRANCH   1   2
HETATM    2  N1  UNL     1      22.216   3.356  51.095  1.00  0.00    -0.176 NA
HETATM    3  C3  UNL     1      21.055   2.859  51.170  1.00  0.00     0.065 A 
HETATM    4  C2  UNL     1      20.622   1.451  50.980  1.00  0.00     0.095 A 
HETATM    5  C17 UNL     1      20.041   3.884  51.498  1.00  0.00     0.032 A 
HETATM    6  C1  UNL     1      20.950   0.939  49.604  1.00  0.00     0.024 C 
HETATM    7  C20 UNL     1      19.152   1.315  51.164  1.00  0.00     0.089 A 
HETATM    8  C19 UNL     1      18.249   2.252  51.459  1.00  0.00     0.098 A 
HETATM    9  O1  UNL     1      18.731   0.000  50.988  1.00  0.00    -0.350 OA
HETATM   10  C18 UNL     1      18.757   3.608  51.630  1.00  0.00     0.041 A 
HETATM   11  O2  UNL     1      16.923   1.908  51.585  1.00  0.00    -0.346 OA
HETATM   12  C22 UNL     1      16.622   0.556  51.951  1.00  0.00     0.202 C 
HETATM   13  C21 UNL     1      17.344  -0.328  50.956  1.00  0.00     0.202 C 
ENDBRANCH   1   2
BRANCH   1  14
HETATM   14  C4  UNL     1      23.745   2.665  49.398  1.00  0.00     0.190 C 
BRANCH  14  15
HETATM   15  C5  UNL     1      24.799   3.731  49.238  1.00  0.00    -0.037 A 
HETATM   16  C6  UNL     1      26.150   3.428  49.309  1.00  0.00     0.009 A 
HETATM   17  C7  UNL     1      27.127   4.393  49.165  1.00  0.00     0.002 A 
HETATM   18  C8  UNL     1      26.721   5.701  48.943  1.00  0.00     0.024 A 
HETATM   19  C9  UNL     1      25.373   6.019  48.870  1.00  0.00     0.034 A 
HETATM   20 CL1  UNL     1      25.009   7.718  48.585  1.00  0.00    -0.084 Cl
HETATM   21  C10 UNL     1      24.415   5.039  49.018  1.00  0.00     0.032 A 
ENDBRANCH  14  15
ENDBRANCH   1  14
BRANCH   1  22
HETATM   22  C11 UNL     1      24.175   2.119  51.877  1.00  0.00     0.053 A 
HETATM   23  C12 UNL     1      24.175   0.771  52.075  1.00  0.00     0.031 A 
HETATM   24  C13 UNL     1      24.904   0.202  53.098  1.00  0.00     0.002 A 
HETATM   25  C14 UNL     1      25.664   0.961  53.964  1.00  0.00     0.000 A 
HETATM   26  C15 UNL     1      25.659   2.325  53.756  1.00  0.00     0.002 A 
HETATM   27  C16 UNL     1      24.920   2.874  52.724  1.00  0.00     0.031 A 
ENDBRANCH   1  22
TORSDOF 4
ENDMDL
MODEL 9
REMARK VINA RESULT:      -7.4      2.608      4.872
REMARK  4 active torsions:
REMARK  status: ('A' for Active; 'I' for Inactive)
REMARK    1  A    between atoms: N1_4  and  N2_5 
REMARK    2  A    between atoms: N2_5  and  C4_6 
REMARK    3  A    between atoms: N2_5  and  C11_14 
REMARK    4  A    between atoms: C4_6  and  C5_7 
ROOT
HETATM    1  N2  UNL     1      24.670   4.336  50.132  1.00  0.00    -0.266 N 
ENDROOT
BRANCH   1   2
HETATM    2  N1  UNL     1      24.991   5.665  50.416  1.00  0.00    -0.176 NA
HETATM    3  C3  UNL     1      25.798   6.415  49.796  1.00  0.00     0.065 A 
HETATM    4  C2  UNL     1      26.630   6.116  48.603  1.00  0.00     0.095 A 
HETATM    5  C17 UNL     1      25.867   7.763  50.400  1.00  0.00     0.032 A 
HETATM    6  C1  UNL     1      27.589   4.984  48.850  1.00  0.00     0.024 C 
HETATM    7  C20 UNL     1      27.437   7.301  48.203  1.00  0.00     0.089 A 
HETATM    8  C19 UNL     1      27.489   8.512  48.761  1.00  0.00     0.098 A 
HETATM    9  O1  UNL     1      28.222   7.035  47.086  1.00  0.00    -0.350 OA
HETATM   10  C18 UNL     1      26.641   8.723  49.928  1.00  0.00     0.041 A 
HETATM   11  O2  UNL     1      28.313   9.476  48.227  1.00  0.00    -0.346 OA
HETATM   12  C22 UNL     1      28.641   9.369  46.836  1.00  0.00     0.202 C 
HETATM   13  C21 UNL     1      29.195   7.974  46.633  1.00  0.00     0.202 C 
ENDBRANCH   1   2
BRANCH   1  14
HETATM   14  C4  UNL     1      23.910   4.163  48.909  1.00  0.00     0.190 C 
BRANCH  14  15
HETATM   15  C5  UNL     1      22.700   3.366  49.325  1.00  0.00    -0.037 A 
HETATM   16  C6  UNL     1      22.540   2.043  48.943  1.00  0.00     0.009 A 
HETATM   17  C7  UNL     1      21.437   1.301  49.316  1.00  0.00     0.002 A 
HETATM   18  C8  UNL     1      20.472   1.917  50.099  1.00  0.00     0.024 A 
HETATM   19  C9  UNL     1      20.619   3.240  50.488  1.00  0.00     0.034 A 
HETATM   20 CL1  UNL     1      19.315   3.889  51.478  1.00  0.00    -0.084 Cl
HETATM   21  C10 UNL     1      21.728   3.963  50.104  1.00  0.00     0.032 A 
ENDBRANCH  14  15
ENDBRANCH   1  14
BRANCH   1  22
HETATM   22  C11 UNL     1      25.095   3.299  51.025  1.00  0.00     0.053 A 
HETATM   23  C12 UNL     1      26.115   2.466  50.674  1.00  0.00     0.031 A 
HETATM   24  C13 UNL     1      26.537   1.462  51.522  1.00  0.00     0.002 A 
HETATM   25  C14 UNL     1      25.954   1.254  52.755  1.00  0.00     0.000 A 
HETATM   26  C15 UNL     1      24.923   2.101  53.101  1.00  0.00     0.002 A 
HETATM   27  C16 UNL     1      24.516   3.101  52.236  1.00  0.00     0.031 A 
ENDBRANCH   1  22
TORSDOF 4
ENDMDL
