MODEL 1
REMARK VINA RESULT:      -9.6      0.000      0.000
REMARK  6 active torsions:
REMARK  status: ('A' for Active; 'I' for Inactive)
REMARK    1  A    between atoms: C6_6  and  N1_7 
REMARK    2  A    between atoms: N1_7  and  C7_8 
REMARK    3  A    between atoms: N4_18  and  C15_19 
REMARK    4  A    between atoms: C15_19  and  C16_20 
REMARK    5  A    between atoms: C16_20  and  C17_21 
REMARK    6  A    between atoms: C17_21  and  N5_22 
ROOT
HETATM    1  C7  UNL     1      24.709  -0.344  53.742  1.00  0.00     0.142 A 
HETATM    2  N2  UNL     1      25.159  -0.885  54.886  1.00  0.00    -0.224 NA
HETATM    3  C8  UNL     1      24.354  -1.437  55.822  1.00  0.00     0.236 A 
HETATM    4  N3  UNL     1      22.992  -1.476  55.648  1.00  0.00    -0.241 NA
HETATM    5  C9  UNL     1      22.518  -0.938  54.507  1.00  0.00     0.075 A 
HETATM    6  C10 UNL     1      21.146  -1.008  54.389  1.00  0.00     0.071 A 
HETATM    7  C11 UNL     1      20.523  -0.497  53.275  1.00  0.00     0.098 A 
HETATM    8  C12 UNL     1      21.342   0.071  52.314  1.00  0.00     0.071 A 
HETATM    9  C13 UNL     1      22.705   0.163  52.383  1.00  0.00     0.050 A 
HETATM   10  C14 UNL     1      23.324  -0.360  53.521  1.00  0.00     0.041 A 
HETATM   11  N4  UNL     1      20.759   0.628  51.146  1.00  0.00    -0.314 N 
HETATM   12  C22 UNL     1      19.317   0.529  51.095  1.00  0.00     0.248 C 
HETATM   13  O2  UNL     1      18.693   0.542  49.979  1.00  0.00    -0.271 OA
HETATM   14  C23 UNL     1      18.462   0.402  52.305  1.00  0.00     0.279 C 
HETATM   15  O3  UNL     1      19.138  -0.560  53.139  1.00  0.00    -0.340 OA
ENDROOT
BRANCH   1  16
HETATM   16  N1  UNL     1      25.388   0.236  52.639  1.00  0.00    -0.340 N 
HETATM   17  H7  UNL     1      24.966   0.442  51.696  1.00  0.00     0.167 HD
BRANCH  16  18
HETATM   18  C6  UNL     1      26.728   0.493  53.044  1.00  0.00     0.034 A 
HETATM   19  C5  UNL     1      27.110   1.799  53.364  1.00  0.00     0.029 A 
HETATM   20  C4  UNL     1      28.393   2.136  53.768  1.00  0.00     0.003 A 
HETATM   21  C3  UNL     1      29.333   1.139  53.861  1.00  0.00     0.007 A 
HETATM   22  C2  UNL     1      28.995  -0.172  53.554  1.00  0.00    -0.060 A 
HETATM   23  C1  UNL     1      30.090  -1.155  53.704  1.00  0.00     0.048 C 
HETATM   24  C24 UNL     1      27.722  -0.471  53.157  1.00  0.00     0.036 A 
ENDBRANCH  16  18
ENDBRANCH   1  16
BRANCH  11  25
HETATM   25  C15 UNL     1      21.410   1.300  50.044  1.00  0.00     0.134 C 
BRANCH  25  26
HETATM   26  C16 UNL     1      21.299   2.804  50.161  1.00  0.00     0.050 C 
BRANCH  26  27
HETATM   27  C17 UNL     1      22.501   3.495  50.682  1.00  0.00     0.274 C 
BRANCH  27  28
HETATM   28  N5  UNL     1      23.717   3.364  49.977  1.00  0.00     0.092 N 
HETATM   29  C18 UNL     1      24.915   3.230  50.734  1.00  0.00     0.298 C 
HETATM   30  C19 UNL     1      26.069   3.391  49.745  1.00  0.00     0.198 C 
HETATM   31  O1  UNL     1      26.148   4.654  49.203  1.00  0.00    -0.388 OA
HETATM   32  C20 UNL     1      24.927   5.296  49.034  1.00  0.00     0.198 C 
HETATM   33  C21 UNL     1      23.775   4.346  48.927  1.00  0.00     0.298 C 
ENDBRANCH  27  28
ENDBRANCH  26  27
ENDBRANCH  25  26
ENDBRANCH  11  25
TORSDOF 6
ENDMDL
MODEL 2
REMARK VINA RESULT:      -9.4      2.033      5.943
REMARK  6 active torsions:
REMARK  status: ('A' for Active; 'I' for Inactive)
REMARK    1  A    between atoms: C6_6  and  N1_7 
REMARK    2  A    between atoms: N1_7  and  C7_8 
REMARK    3  A    between atoms: N4_18  and  C15_19 
REMARK    4  A    between atoms: C15_19  and  C16_20 
REMARK    5  A    between atoms: C16_20  and  C17_21 
REMARK    6  A    between atoms: C17_21  and  N5_22 
ROOT
HETATM    1  C7  UNL     1      23.989   2.872  50.090  1.00  0.00     0.142 A 
HETATM    2  N2  UNL     1      23.339   3.422  49.051  1.00  0.00    -0.224 NA
HETATM    3  C8  UNL     1      22.049   3.152  48.746  1.00  0.00     0.236 A 
HETATM    4  N3  UNL     1      21.313   2.274  49.504  1.00  0.00    -0.241 NA
HETATM    5  C9  UNL     1      21.945   1.710  50.552  1.00  0.00     0.075 A 
HETATM    6  C10 UNL     1      21.155   0.841  51.273  1.00  0.00     0.071 A 
HETATM    7  C11 UNL     1      21.670   0.191  52.370  1.00  0.00     0.098 A 
HETATM    8  C12 UNL     1      22.990   0.461  52.687  1.00  0.00     0.071 A 
HETATM    9  C13 UNL     1      23.814   1.315  52.005  1.00  0.00     0.050 A 
HETATM   10  C14 UNL     1      23.277   1.968  50.893  1.00  0.00     0.041 A 
HETATM   11  N4  UNL     1      23.584  -0.188  53.800  1.00  0.00    -0.314 N 
HETATM   12  C22 UNL     1      22.701  -1.091  54.503  1.00  0.00     0.248 C 
HETATM   13  O2  UNL     1      22.897  -1.384  55.733  1.00  0.00    -0.271 OA
HETATM   14  C23 UNL     1      21.520  -1.737  53.872  1.00  0.00     0.279 C 
HETATM   15  O3  UNL     1      20.885  -0.690  53.112  1.00  0.00    -0.340 OA
ENDROOT
BRANCH   1  16
HETATM   16  N1  UNL     1      25.305   3.058  50.587  1.00  0.00    -0.340 N 
HETATM   17  H7  UNL     1      25.800   2.425  51.270  1.00  0.00     0.167 HD
BRANCH  16  18
HETATM   18  C6  UNL     1      25.829   4.237  49.990  1.00  0.00     0.034 A 
HETATM   19  C5  UNL     1      26.946   4.146  49.154  1.00  0.00     0.029 A 
HETATM   20  C4  UNL     1      27.519   5.246  48.532  1.00  0.00     0.003 A 
HETATM   21  C3  UNL     1      26.962   6.483  48.746  1.00  0.00     0.007 A 
HETATM   22  C2  UNL     1      25.852   6.618  49.567  1.00  0.00    -0.060 A 
HETATM   23  C1  UNL     1      25.337   7.997  49.708  1.00  0.00     0.048 C 
HETATM   24  C24 UNL     1      25.311   5.515  50.167  1.00  0.00     0.036 A 
ENDBRANCH  16  18
ENDBRANCH   1  16
BRANCH  11  25
HETATM   25  C15 UNL     1      24.943  -0.088  54.285  1.00  0.00     0.134 C 
BRANCH  25  26
HETATM   26  C16 UNL     1      25.830  -1.159  53.690  1.00  0.00     0.050 C 
BRANCH  26  27
HETATM   27  C17 UNL     1      26.747  -0.706  52.617  1.00  0.00     0.274 C 
BRANCH  27  28
HETATM   28  N5  UNL     1      27.866   0.078  52.970  1.00  0.00     0.092 N 
HETATM   29  C18 UNL     1      28.373  -0.042  54.295  1.00  0.00     0.298 C 
HETATM   30  C19 UNL     1      29.374   1.098  54.479  1.00  0.00     0.198 C 
HETATM   31  O1  UNL     1      28.790   2.344  54.448  1.00  0.00    -0.388 OA
HETATM   32  C20 UNL     1      27.682   2.452  53.617  1.00  0.00     0.198 C 
HETATM   33  C21 UNL     1      27.670   1.431  52.522  1.00  0.00     0.298 C 
ENDBRANCH  27  28
ENDBRANCH  26  27
ENDBRANCH  25  26
ENDBRANCH  11  25
TORSDOF 6
ENDMDL
MODEL 3
REMARK VINA RESULT:      -9.0      2.365      6.456
REMARK  6 active torsions:
REMARK  status: ('A' for Active; 'I' for Inactive)
REMARK    1  A    between atoms: C6_6  and  N1_7 
REMARK    2  A    between atoms: N1_7  and  C7_8 
REMARK    3  A    between atoms: N4_18  and  C15_19 
REMARK    4  A    between atoms: C15_19  and  C16_20 
REMARK    5  A    between atoms: C16_20  and  C17_21 
REMARK    6  A    between atoms: C17_21  and  N5_22 
ROOT
HETATM    1  C7  UNL     1      22.051  -0.358  52.819  1.00  0.00     0.142 A 
HETATM    2  N2  UNL     1      21.120  -0.981  53.560  1.00  0.00    -0.224 NA
HETATM    3  C8  UNL     1      21.372  -1.537  54.767  1.00  0.00     0.236 A 
HETATM    4  N3  UNL     1      22.630  -1.496  55.315  1.00  0.00    -0.241 NA
HETATM    5  C9  UNL     1      23.581  -0.876  54.588  1.00  0.00     0.075 A 
HETATM    6  C10 UNL     1      24.821  -0.866  55.191  1.00  0.00     0.071 A 
HETATM    7  C11 UNL     1      25.887  -0.268  54.562  1.00  0.00     0.098 A 
HETATM    8  C12 UNL     1      25.637   0.302  53.326  1.00  0.00     0.071 A 
HETATM    9  C13 UNL     1      24.427   0.319  52.687  1.00  0.00     0.050 A 
HETATM   10  C14 UNL     1      23.353  -0.292  53.338  1.00  0.00     0.041 A 
HETATM   11  N4  UNL     1      26.700   0.923  52.620  1.00  0.00    -0.314 N 
HETATM   12  C22 UNL     1      27.971   0.887  53.306  1.00  0.00     0.248 C 
HETATM   13  O2  UNL     1      28.878   1.755  53.062  1.00  0.00    -0.271 OA
HETATM   14  C23 UNL     1      28.321  -0.134  54.329  1.00  0.00     0.279 C 
HETATM   15  O3  UNL     1      27.147  -0.248  55.157  1.00  0.00    -0.340 OA
ENDROOT
BRANCH   1  16
HETATM   16  N1  UNL     1      21.973   0.312  51.570  1.00  0.00    -0.340 N 
HETATM   17  H7  UNL     1      22.738   0.358  50.848  1.00  0.00     0.167 HD
BRANCH  16  18
HETATM   18  C6  UNL     1      20.679   0.894  51.473  1.00  0.00     0.034 A 
HETATM   19  C5  UNL     1      20.454   2.162  52.018  1.00  0.00     0.029 A 
HETATM   20  C4  UNL     1      19.224   2.802  51.966  1.00  0.00     0.003 A 
HETATM   21  C3  UNL     1      18.178   2.161  51.348  1.00  0.00     0.007 A 
HETATM   22  C2  UNL     1      18.359   0.902  50.792  1.00  0.00    -0.060 A 
HETATM   23  C1  UNL     1      17.162   0.323  50.145  1.00  0.00     0.048 C 
HETATM   24  C24 UNL     1      19.583   0.298  50.862  1.00  0.00     0.036 A 
ENDBRANCH  16  18
ENDBRANCH   1  16
BRANCH  11  25
HETATM   25  C15 UNL     1      26.676   1.540  51.312  1.00  0.00     0.134 C 
BRANCH  25  26
HETATM   26  C16 UNL     1      26.183   2.968  51.375  1.00  0.00     0.050 C 
BRANCH  26  27
HETATM   27  C17 UNL     1      25.376   3.418  50.216  1.00  0.00     0.274 C 
BRANCH  27  28
HETATM   28  N5  UNL     1      24.001   3.673  50.407  1.00  0.00     0.092 N 
HETATM   29  C18 UNL     1      23.397   4.690  49.616  1.00  0.00     0.298 C 
HETATM   30  C19 UNL     1      22.014   4.940  50.218  1.00  0.00     0.198 C 
HETATM   31  O1  UNL     1      22.062   5.476  51.485  1.00  0.00    -0.388 OA
HETATM   32  C20 UNL     1      23.147   5.070  52.252  1.00  0.00     0.198 C 
HETATM   33  C21 UNL     1      23.715   3.756  51.815  1.00  0.00     0.298 C 
ENDBRANCH  27  28
ENDBRANCH  26  27
ENDBRANCH  25  26
ENDBRANCH  11  25
TORSDOF 6
ENDMDL
MODEL 4
REMARK VINA RESULT:      -8.9      1.433      2.112
REMARK  6 active torsions:
REMARK  status: ('A' for Active; 'I' for Inactive)
REMARK    1  A    between atoms: C6_6  and  N1_7 
REMARK    2  A    between atoms: N1_7  and  C7_8 
REMARK    3  A    between atoms: N4_18  and  C15_19 
REMARK    4  A    between atoms: C15_19  and  C16_20 
REMARK    5  A    between atoms: C16_20  and  C17_21 
REMARK    6  A    between atoms: C17_21  and  N5_22 
ROOT
HETATM    1  C7  UNL     1      24.648   0.477  53.048  1.00  0.00     0.142 A 
HETATM    2  N2  UNL     1      24.648  -0.282  54.157  1.00  0.00    -0.224 NA
HETATM    3  C8  UNL     1      23.552  -0.915  54.632  1.00  0.00     0.236 A 
HETATM    4  N3  UNL     1      22.343  -0.814  53.989  1.00  0.00    -0.241 NA
HETATM    5  C9  UNL     1      22.318  -0.056  52.875  1.00  0.00     0.075 A 
HETATM    6  C10 UNL     1      21.079   0.006  52.274  1.00  0.00     0.071 A 
HETATM    7  C11 UNL     1      20.906   0.745  51.127  1.00  0.00     0.098 A 
HETATM    8  C12 UNL     1      22.023   1.397  50.637  1.00  0.00     0.071 A 
HETATM    9  C13 UNL     1      23.272   1.366  51.194  1.00  0.00     0.050 A 
HETATM   10  C14 UNL     1      23.433   0.611  52.358  1.00  0.00     0.041 A 
HETATM   11  N4  UNL     1      21.907   2.187  49.463  1.00  0.00    -0.314 N 
HETATM   12  C22 UNL     1      20.578   2.215  48.894  1.00  0.00     0.248 C 
HETATM   13  O2  UNL     1      20.396   2.465  47.653  1.00  0.00    -0.271 OA
HETATM   14  C23 UNL     1      19.344   1.957  49.683  1.00  0.00     0.279 C 
HETATM   15  O3  UNL     1      19.660   0.818  50.507  1.00  0.00    -0.340 OA
ENDROOT
BRANCH   1  16
HETATM   16  N1  UNL     1      25.686   1.176  52.381  1.00  0.00    -0.340 N 
HETATM   17  H7  UNL     1      25.554   1.918  51.643  1.00  0.00     0.167 HD
BRANCH  16  18
HETATM   18  C6  UNL     1      26.925   0.701  52.893  1.00  0.00     0.034 A 
HETATM   19  C5  UNL     1      27.764   1.580  53.586  1.00  0.00     0.029 A 
HETATM   20  C4  UNL     1      28.987   1.199  54.119  1.00  0.00     0.003 A 
HETATM   21  C3  UNL     1      29.392  -0.103  53.961  1.00  0.00     0.007 A 
HETATM   22  C2  UNL     1      28.589  -1.009  53.282  1.00  0.00    -0.060 A 
HETATM   23  C1  UNL     1      29.130  -2.383  53.189  1.00  0.00     0.048 C 
HETATM   24  C24 UNL     1      27.390  -0.602  52.767  1.00  0.00     0.036 A 
ENDBRANCH  16  18
ENDBRANCH   1  16
BRANCH  11  25
HETATM   25  C15 UNL     1      22.921   2.979  48.803  1.00  0.00     0.134 C 
BRANCH  25  26
HETATM   26  C16 UNL     1      22.778   4.450  49.121  1.00  0.00     0.050 C 
BRANCH  26  27
HETATM   27  C17 UNL     1      23.579   4.936  50.269  1.00  0.00     0.274 C 
BRANCH  27  28
HETATM   28  N5  UNL     1      24.939   5.252  50.060  1.00  0.00     0.092 N 
HETATM   29  C18 UNL     1      25.308   5.810  48.803  1.00  0.00     0.298 C 
HETATM   30  C19 UNL     1      26.835   5.784  48.752  1.00  0.00     0.198 C 
HETATM   31  O1  UNL     1      27.356   4.511  48.727  1.00  0.00    -0.388 OA
HETATM   32  C20 UNL     1      26.618   3.561  49.422  1.00  0.00     0.198 C 
HETATM   33  C21 UNL     1      25.763   4.156  50.497  1.00  0.00     0.298 C 
ENDBRANCH  27  28
ENDBRANCH  26  27
ENDBRANCH  25  26
ENDBRANCH  11  25
TORSDOF 6
ENDMDL
MODEL 5
REMARK VINA RESULT:      -8.8      2.940      6.872
REMARK  6 active torsions:
REMARK  status: ('A' for Active; 'I' for Inactive)
REMARK    1  A    between atoms: C6_6  and  N1_7 
REMARK    2  A    between atoms: N1_7  and  C7_8 
REMARK    3  A    between atoms: N4_18  and  C15_19 
REMARK    4  A    between atoms: C15_19  and  C16_20 
REMARK    5  A    between atoms: C16_20  and  C17_21 
REMARK    6  A    between atoms: C17_21  and  N5_22 
ROOT
HETATM    1  C7  UNL     1      23.266   6.978  50.968  1.00  0.00     0.142 A 
HETATM    2  N2  UNL     1      22.630   7.968  50.318  1.00  0.00    -0.224 NA
HETATM    3  C8  UNL     1      21.356   7.877  49.876  1.00  0.00     0.236 A 
HETATM    4  N3  UNL     1      20.619   6.735  50.073  1.00  0.00    -0.241 NA
HETATM    5  C9  UNL     1      21.236   5.728  50.722  1.00  0.00     0.075 A 
HETATM    6  C10 UNL     1      20.447   4.610  50.889  1.00  0.00     0.071 A 
HETATM    7  C11 UNL     1      20.947   3.504  51.535  1.00  0.00     0.098 A 
HETATM    8  C12 UNL     1      22.253   3.589  51.988  1.00  0.00     0.071 A 
HETATM    9  C13 UNL     1      23.075   4.674  51.848  1.00  0.00     0.050 A 
HETATM   10  C14 UNL     1      22.553   5.790  51.190  1.00  0.00     0.041 A 
HETATM   11  N4  UNL     1      22.831   2.476  52.651  1.00  0.00    -0.314 N 
HETATM   12  C22 UNL     1      21.951   1.337  52.782  1.00  0.00     0.248 C 
HETATM   13  O2  UNL     1      22.121   0.473  53.710  1.00  0.00    -0.271 OA
HETATM   14  C23 UNL     1      20.800   1.084  51.875  1.00  0.00     0.279 C 
HETATM   15  O3  UNL     1      20.163   2.366  51.714  1.00  0.00    -0.340 OA
ENDROOT
BRANCH   1  16
HETATM   16  N1  UNL     1      24.564   6.900  51.535  1.00  0.00    -0.340 N 
HETATM   17  H7  UNL     1      24.783   6.814  52.562  1.00  0.00     0.167 HD
BRANCH  16  18
HETATM   18  C6  UNL     1      25.504   6.949  50.469  1.00  0.00     0.034 A 
HETATM   19  C5  UNL     1      25.744   5.798  49.711  1.00  0.00     0.029 A 
HETATM   20  C4  UNL     1      26.642   5.760  48.655  1.00  0.00     0.003 A 
HETATM   21  C3  UNL     1      27.327   6.907  48.336  1.00  0.00     0.007 A 
HETATM   22  C2  UNL     1      27.118   8.071  49.061  1.00  0.00    -0.060 A 
HETATM   23  C1  UNL     1      27.905   9.241  48.614  1.00  0.00     0.048 C 
HETATM   24  C24 UNL     1      26.227   8.076  50.098  1.00  0.00     0.036 A 
ENDBRANCH  16  18
ENDBRANCH   1  16
BRANCH  11  25
HETATM   25  C15 UNL     1      24.175   2.330  53.167  1.00  0.00     0.134 C 
BRANCH  25  26
HETATM   26  C16 UNL     1      25.055   1.544  52.221  1.00  0.00     0.050 C 
BRANCH  26  27
HETATM   27  C17 UNL     1      25.613   0.284  52.766  1.00  0.00     0.274 C 
BRANCH  27  28
HETATM   28  N5  UNL     1      26.951   0.275  53.216  1.00  0.00     0.092 N 
HETATM   29  C18 UNL     1      27.184   0.098  54.609  1.00  0.00     0.298 C 
HETATM   30  C19 UNL     1      28.662   0.409  54.841  1.00  0.00     0.198 C 
HETATM   31  O1  UNL     1      28.984   1.727  54.605  1.00  0.00    -0.388 OA
HETATM   32  C20 UNL     1      28.242   2.341  53.604  1.00  0.00     0.198 C 
HETATM   33  C21 UNL     1      27.670   1.370  52.619  1.00  0.00     0.298 C 
ENDBRANCH  27  28
ENDBRANCH  26  27
ENDBRANCH  25  26
ENDBRANCH  11  25
TORSDOF 6
ENDMDL
MODEL 6
REMARK VINA RESULT:      -8.8      2.210      5.031
REMARK  6 active torsions:
REMARK  status: ('A' for Active; 'I' for Inactive)
REMARK    1  A    between atoms: C6_6  and  N1_7 
REMARK    2  A    between atoms: N1_7  and  C7_8 
REMARK    3  A    between atoms: N4_18  and  C15_19 
REMARK    4  A    between atoms: C15_19  and  C16_20 
REMARK    5  A    between atoms: C16_20  and  C17_21 
REMARK    6  A    between atoms: C17_21  and  N5_22 
ROOT
HETATM    1  C7  UNL     1      26.495   2.224  51.677  1.00  0.00     0.142 A 
HETATM    2  N2  UNL     1      27.733   2.649  51.980  1.00  0.00    -0.224 NA
HETATM    3  C8  UNL     1      28.400   2.277  53.096  1.00  0.00     0.236 A 
HETATM    4  N3  UNL     1      27.833   1.421  54.007  1.00  0.00    -0.241 NA
HETATM    5  C9  UNL     1      26.590   0.983  53.724  1.00  0.00     0.075 A 
HETATM    6  C10 UNL     1      26.074   0.127  54.674  1.00  0.00     0.071 A 
HETATM    7  C11 UNL     1      24.814  -0.398  54.516  1.00  0.00     0.098 A 
HETATM    8  C12 UNL     1      24.124  -0.020  53.377  1.00  0.00     0.071 A 
HETATM    9  C13 UNL     1      24.591   0.823  52.407  1.00  0.00     0.050 A 
HETATM   10  C14 UNL     1      25.873   1.349  52.580  1.00  0.00     0.041 A 
HETATM   11  N4  UNL     1      22.812  -0.518  53.163  1.00  0.00    -0.314 N 
HETATM   12  C22 UNL     1      22.333  -1.401  54.203  1.00  0.00     0.248 C 
HETATM   13  O2  UNL     1      21.424  -2.269  53.966  1.00  0.00    -0.271 OA
HETATM   14  C23 UNL     1      22.847  -1.376  55.598  1.00  0.00     0.279 C 
HETATM   15  O3  UNL     1      24.277  -1.266  55.466  1.00  0.00    -0.340 OA
ENDROOT
BRANCH   1  16
HETATM   16  N1  UNL     1      25.661   2.465  50.555  1.00  0.00    -0.340 N 
HETATM   17  H7  UNL     1      24.972   1.783  50.142  1.00  0.00     0.167 HD
BRANCH  16  18
HETATM   18  C6  UNL     1      25.917   3.789  50.103  1.00  0.00     0.034 A 
HETATM   19  C5  UNL     1      26.938   4.012  49.174  1.00  0.00     0.029 A 
HETATM   20  C4  UNL     1      27.253   5.270  48.681  1.00  0.00     0.003 A 
HETATM   21  C3  UNL     1      26.526   6.347  49.124  1.00  0.00     0.007 A 
HETATM   22  C2  UNL     1      25.503   6.170  50.044  1.00  0.00    -0.060 A 
HETATM   23  C1  UNL     1      24.787   7.405  50.434  1.00  0.00     0.048 C 
HETATM   24  C24 UNL     1      25.218   4.918  50.513  1.00  0.00     0.036 A 
ENDBRANCH  16  18
ENDBRANCH   1  16
BRANCH  11  25
HETATM   25  C15 UNL     1      21.902  -0.229  52.076  1.00  0.00     0.134 C 
BRANCH  25  26
HETATM   26  C16 UNL     1      20.860   0.791  52.475  1.00  0.00     0.050 C 
BRANCH  26  27
HETATM   27  C17 UNL     1      21.293   2.207  52.409  1.00  0.00     0.274 C 
BRANCH  27  28
HETATM   28  N5  UNL     1      21.071   2.927  51.216  1.00  0.00     0.092 N 
HETATM   29  C18 UNL     1      22.085   2.892  50.218  1.00  0.00     0.298 C 
HETATM   30  C19 UNL     1      21.715   3.959  49.189  1.00  0.00     0.198 C 
HETATM   31  O1  UNL     1      21.774   5.240  49.690  1.00  0.00    -0.388 OA
HETATM   32  C20 UNL     1      21.451   5.358  51.036  1.00  0.00     0.198 C 
HETATM   33  C21 UNL     1      20.582   4.244  51.530  1.00  0.00     0.298 C 
ENDBRANCH  27  28
ENDBRANCH  26  27
ENDBRANCH  25  26
ENDBRANCH  11  25
TORSDOF 6
ENDMDL
MODEL 7
REMARK VINA RESULT:      -8.6      2.078      4.597
REMARK  6 active torsions:
REMARK  status: ('A' for Active; 'I' for Inactive)
REMARK    1  A    between atoms: C6_6  and  N1_7 
REMARK    2  A    between atoms: N1_7  and  C7_8 
REMARK    3  A    between atoms: N4_18  and  C15_19 
REMARK    4  A    between atoms: C15_19  and  C16_20 
REMARK    5  A    between atoms: C16_20  and  C17_21 
REMARK    6  A    between atoms: C17_21  and  N5_22 
ROOT
HETATM    1  C7  UNL     1      25.570   2.516  51.250  1.00  0.00     0.142 A 
HETATM    2  N2  UNL     1      26.904   2.506  51.414  1.00  0.00    -0.224 NA
HETATM    3  C8  UNL     1      27.544   1.705  52.297  1.00  0.00     0.236 A 
HETATM    4  N3  UNL     1      26.845   0.834  53.096  1.00  0.00    -0.241 NA
HETATM    5  C9  UNL     1      25.505   0.828  52.949  1.00  0.00     0.075 A 
HETATM    6  C10 UNL     1      24.861  -0.066  53.777  1.00  0.00     0.071 A 
HETATM    7  C11 UNL     1      23.491  -0.179  53.735  1.00  0.00     0.098 A 
HETATM    8  C12 UNL     1      22.829   0.639  52.836  1.00  0.00     0.071 A 
HETATM    9  C13 UNL     1      23.422   1.540  51.994  1.00  0.00     0.050 A 
HETATM   10  C14 UNL     1      24.814   1.643  52.047  1.00  0.00     0.041 A 
HETATM   11  N4  UNL     1      21.414   0.579  52.754  1.00  0.00    -0.314 N 
HETATM   12  C22 UNL     1      20.805  -0.371  53.657  1.00  0.00     0.248 C 
HETATM   13  O2  UNL     1      19.658  -0.878  53.408  1.00  0.00    -0.271 OA
HETATM   14  C23 UNL     1      21.448  -0.831  54.917  1.00  0.00     0.279 C 
HETATM   15  O3  UNL     1      22.823  -1.078  54.565  1.00  0.00    -0.340 OA
ENDROOT
BRANCH   1  16
HETATM   16  N1  UNL     1      24.733   3.241  50.363  1.00  0.00    -0.340 N 
HETATM   17  H7  UNL     1      23.737   2.998  50.120  1.00  0.00     0.167 HD
BRANCH  16  18
HETATM   18  C6  UNL     1      25.477   4.352  49.878  1.00  0.00     0.034 A 
HETATM   19  C5  UNL     1      24.968   5.644  50.040  1.00  0.00     0.029 A 
HETATM   20  C4  UNL     1      25.629   6.780  49.598  1.00  0.00     0.003 A 
HETATM   21  C3  UNL     1      26.842   6.630  48.973  1.00  0.00     0.007 A 
HETATM   22  C2  UNL     1      27.385   5.365  48.793  1.00  0.00    -0.060 A 
HETATM   23  C1  UNL     1      28.702   5.336  48.119  1.00  0.00     0.048 C 
HETATM   24  C24 UNL     1      26.709   4.265  49.239  1.00  0.00     0.036 A 
ENDBRANCH  16  18
ENDBRANCH   1  16
BRANCH  11  25
HETATM   25  C15 UNL     1      20.523   1.361  51.925  1.00  0.00     0.134 C 
BRANCH  25  26
HETATM   26  C16 UNL     1      20.221   0.665  50.617  1.00  0.00     0.050 C 
BRANCH  26  27
HETATM   27  C17 UNL     1      19.620   1.516  49.564  1.00  0.00     0.274 C 
BRANCH  27  28
HETATM   28  N5  UNL     1      20.454   2.022  48.543  1.00  0.00     0.092 N 
HETATM   29  C18 UNL     1      21.782   1.516  48.457  1.00  0.00     0.298 C 
HETATM   30  C19 UNL     1      22.524   2.421  47.474  1.00  0.00     0.198 C 
HETATM   31  O1  UNL     1      22.678   3.710  47.932  1.00  0.00    -0.388 OA
HETATM   32  C20 UNL     1      21.645   4.173  48.737  1.00  0.00     0.198 C 
HETATM   33  C21 UNL     1      20.352   3.456  48.501  1.00  0.00     0.298 C 
ENDBRANCH  27  28
ENDBRANCH  26  27
ENDBRANCH  25  26
ENDBRANCH  11  25
TORSDOF 6
ENDMDL
MODEL 8
REMARK VINA RESULT:      -8.3      2.445      5.955
REMARK  6 active torsions:
REMARK  status: ('A' for Active; 'I' for Inactive)
REMARK    1  A    between atoms: C6_6  and  N1_7 
REMARK    2  A    between atoms: N1_7  and  C7_8 
REMARK    3  A    between atoms: N4_18  and  C15_19 
REMARK    4  A    between atoms: C15_19  and  C16_20 
REMARK    5  A    between atoms: C16_20  and  C17_21 
REMARK    6  A    between atoms: C17_21  and  N5_22 
ROOT
HETATM    1  C7  UNL     1      21.527   5.684  51.213  1.00  0.00     0.142 A 
HETATM    2  N2  UNL     1      21.136   6.722  50.455  1.00  0.00    -0.224 NA
HETATM    3  C8  UNL     1      19.999   6.730  49.723  1.00  0.00     0.236 A 
HETATM    4  N3  UNL     1      19.157   5.645  49.715  1.00  0.00    -0.241 NA
HETATM    5  C9  UNL     1      19.530   4.591  50.467  1.00  0.00     0.075 A 
HETATM    6  C10 UNL     1      18.645   3.535  50.419  1.00  0.00     0.071 A 
HETATM    7  C11 UNL     1      18.898   2.391  51.139  1.00  0.00     0.098 A 
HETATM    8  C12 UNL     1      20.062   2.376  51.888  1.00  0.00     0.071 A 
HETATM    9  C13 UNL     1      20.969   3.396  51.971  1.00  0.00     0.050 A 
HETATM   10  C14 UNL     1      20.699   4.552  51.234  1.00  0.00     0.041 A 
HETATM   11  N4  UNL     1      20.386   1.219  52.643  1.00  0.00    -0.314 N 
HETATM   12  C22 UNL     1      19.420   0.148  52.537  1.00  0.00     0.248 C 
HETATM   13  O2  UNL     1      19.304  -0.731  53.459  1.00  0.00    -0.271 OA
HETATM   14  C23 UNL     1      18.502  -0.014  51.379  1.00  0.00     0.279 C 
HETATM   15  O3  UNL     1      18.014   1.314  51.102  1.00  0.00    -0.340 OA
ENDROOT
BRANCH   1  16
HETATM   16  N1  UNL     1      22.645   5.506  52.068  1.00  0.00    -0.340 N 
HETATM   17  H7  UNL     1      22.605   5.344  53.108  1.00  0.00     0.167 HD
BRANCH  16  18
HETATM   18  C6  UNL     1      23.817   5.577  51.265  1.00  0.00     0.034 A 
HETATM   19  C5  UNL     1      24.364   6.826  50.957  1.00  0.00     0.029 A 
HETATM   20  C4  UNL     1      25.505   6.984  50.182  1.00  0.00     0.003 A 
HETATM   21  C3  UNL     1      26.127   5.860  49.698  1.00  0.00     0.007 A 
HETATM   22  C2  UNL     1      25.619   4.600  49.983  1.00  0.00    -0.060 A 
HETATM   23  C1  UNL     1      26.385   3.469  49.415  1.00  0.00     0.048 C 
HETATM   24  C24 UNL     1      24.493   4.478  50.747  1.00  0.00     0.036 A 
ENDBRANCH  16  18
ENDBRANCH   1  16
BRANCH  11  25
HETATM   25  C15 UNL     1      21.555   0.970  53.457  1.00  0.00     0.134 C 
BRANCH  25  26
HETATM   26  C16 UNL     1      22.584   0.142  52.721  1.00  0.00     0.050 C 
BRANCH  26  27
HETATM   27  C17 UNL     1      23.775   0.881  52.240  1.00  0.00     0.274 C 
BRANCH  27  28
HETATM   28  N5  UNL     1      25.043   0.528  52.749  1.00  0.00     0.092 N 
HETATM   29  C18 UNL     1      25.094  -0.126  54.013  1.00  0.00     0.298 C 
HETATM   30  C19 UNL     1      26.563  -0.130  54.436  1.00  0.00     0.198 C 
HETATM   31  O1  UNL     1      27.061   1.129  54.683  1.00  0.00    -0.388 OA
HETATM   32  C20 UNL     1      26.513   2.139  53.902  1.00  0.00     0.198 C 
HETATM   33  C21 UNL     1      25.947   1.639  52.610  1.00  0.00     0.298 C 
ENDBRANCH  27  28
ENDBRANCH  26  27
ENDBRANCH  25  26
ENDBRANCH  11  25
TORSDOF 6
ENDMDL
MODEL 9
REMARK VINA RESULT:      -8.2      2.355      4.619
REMARK  6 active torsions:
REMARK  status: ('A' for Active; 'I' for Inactive)
REMARK    1  A    between atoms: C6_6  and  N1_7 
REMARK    2  A    between atoms: N1_7  and  C7_8 
REMARK    3  A    between atoms: N4_18  and  C15_19 
REMARK    4  A    between atoms: C15_19  and  C16_20 
REMARK    5  A    between atoms: C16_20  and  C17_21 
REMARK    6  A    between atoms: C17_21  and  N5_22 
ROOT
HETATM    1  C7  UNL     1      26.363   2.538  50.913  1.00  0.00     0.142 A 
HETATM    2  N2  UNL     1      27.488   2.622  51.642  1.00  0.00    -0.224 NA
HETATM    3  C8  UNL     1      27.572   2.240  52.936  1.00  0.00     0.236 A 
HETATM    4  N3  UNL     1      26.481   1.729  53.595  1.00  0.00    -0.241 NA
HETATM    5  C9  UNL     1      25.340   1.636  52.883  1.00  0.00     0.075 A 
HETATM    6  C10 UNL     1      24.282   1.117  53.597  1.00  0.00     0.071 A 
HETATM    7  C11 UNL     1      23.054   0.965  52.997  1.00  0.00     0.098 A 
HETATM    8  C12 UNL     1      22.960   1.357  51.672  1.00  0.00     0.071 A 
HETATM    9  C13 UNL     1      23.979   1.876  50.921  1.00  0.00     0.050 A 
HETATM   10  C14 UNL     1      25.220   2.024  51.545  1.00  0.00     0.041 A 
HETATM   11  N4  UNL     1      21.716   1.238  51.000  1.00  0.00    -0.314 N 
HETATM   12  C22 UNL     1      20.650   0.696  51.811  1.00  0.00     0.248 C 
HETATM   13  O2  UNL     1      19.648   0.106  51.279  1.00  0.00    -0.271 OA
HETATM   14  C23 UNL     1      20.632   0.773  53.296  1.00  0.00     0.279 C 
HETATM   15  O3  UNL     1      21.973   0.441  53.703  1.00  0.00    -0.340 OA
ENDROOT
BRANCH   1  16
HETATM   16  N1  UNL     1      26.092   2.845  49.554  1.00  0.00    -0.340 N 
HETATM   17  H7  UNL     1      25.704   2.176  48.838  1.00  0.00     0.167 HD
BRANCH  16  18
HETATM   18  C6  UNL     1      26.428   4.211  49.345  1.00  0.00     0.034 A 
HETATM   19  C5  UNL     1      25.595   5.210  49.859  1.00  0.00     0.029 A 
HETATM   20  C4  UNL     1      25.849   6.564  49.702  1.00  0.00     0.003 A 
HETATM   21  C3  UNL     1      26.973   6.943  49.011  1.00  0.00     0.007 A 
HETATM   22  C2  UNL     1      27.829   5.984  48.486  1.00  0.00    -0.060 A 
HETATM   23  C1  UNL     1      29.011   6.518  47.775  1.00  0.00     0.048 C 
HETATM   24  C24 UNL     1      27.550   4.657  48.657  1.00  0.00     0.036 A 
ENDBRANCH  16  18
ENDBRANCH   1  16
BRANCH  11  25
HETATM   25  C15 UNL     1      21.382   1.618  49.645  1.00  0.00     0.134 C 
BRANCH  25  26
HETATM   26  C16 UNL     1      20.674   2.953  49.596  1.00  0.00     0.050 C 
BRANCH  26  27
HETATM   27  C17 UNL     1      21.024   3.902  50.679  1.00  0.00     0.274 C 
BRANCH  27  28
HETATM   28  N5  UNL     1      21.803   5.035  50.360  1.00  0.00     0.092 N 
HETATM   29  C18 UNL     1      21.562   6.235  51.088  1.00  0.00     0.298 C 
HETATM   30  C19 UNL     1      22.324   7.341  50.359  1.00  0.00     0.198 C 
HETATM   31  O1  UNL     1      21.833   7.600  49.100  1.00  0.00    -0.388 OA
HETATM   32  C20 UNL     1      21.305   6.499  48.438  1.00  0.00     0.198 C 
HETATM   33  C21 UNL     1      21.858   5.199  48.932  1.00  0.00     0.298 C 
ENDBRANCH  27  28
ENDBRANCH  26  27
ENDBRANCH  25  26
ENDBRANCH  11  25
TORSDOF 6
ENDMDL
