MODEL 1
REMARK VINA RESULT:      -8.4      0.000      0.000
REMARK  7 active torsions:
REMARK  status: ('A' for Active; 'I' for Inactive)
REMARK    1  A    between atoms: N1_1  and  C1_2 
REMARK    2  A    between atoms: C6_7  and  N2_8 
REMARK       I    between atoms: N2_8  and  C7_9 
REMARK    3  A    between atoms: C7_9  and  C8_11 
REMARK    4  A    between atoms: C9_12  and  C10_13 
REMARK    5  A    between atoms: C13_16  and  C14_17 
REMARK    6  A    between atoms: C14_17  and  C15_18 
REMARK    7  A    between atoms: C15_18  and  C16_19 
ROOT
HETATM    1  C8  UNL     1      23.631  -0.781  54.082  1.00  0.00     0.077 C 
HETATM    2  C9  UNL     1      22.964  -0.032  53.219  1.00  0.00     0.042 C 
ENDROOT
BRANCH   2   3
HETATM    3  C10 UNL     1      21.513  -0.173  53.030  1.00  0.00     0.075 A 
HETATM    4  C11 UNL     1      20.548  -0.742  53.845  1.00  0.00     0.040 A 
HETATM    5  C12 UNL     1      19.326  -0.624  53.222  1.00  0.00     0.035 A 
HETATM    6  C13 UNL     1      19.589   0.020  52.033  1.00  0.00     0.054 A 
HETATM    7  O2  UNL     1      20.878   0.262  51.970  1.00  0.00    -0.315 OA
BRANCH   6   8
HETATM    8  C14 UNL     1      18.574   0.387  50.985  1.00  0.00     0.071 C 
BRANCH   8   9
HETATM    9  C15 UNL     1      17.242   0.051  51.556  1.00  0.00     0.061 C 
BRANCH   9  10
HETATM   10  C16 UNL     1      16.323   1.152  51.808  1.00  0.00     0.017 C 
HETATM   11  N3  UNL     1      15.263   0.930  52.517  1.00  0.00    -0.251 NA
HETATM   12  C17 UNL     1      14.204   1.803  52.918  1.00  0.00     0.232 C 
HETATM   13  N4  UNL     1      14.233   3.096  52.992  1.00  0.00    -0.254 NA
HETATM   14  C18 UNL     1      15.342   3.951  52.686  1.00  0.00     0.114 C 
HETATM   15  C19 UNL     1      16.376   3.607  51.928  1.00  0.00    -0.002 C 
HETATM   16  C20 UNL     1      16.782   2.389  51.180  1.00  0.00     0.083 C 
ENDBRANCH   9  10
ENDBRANCH   8   9
ENDBRANCH   6   8
ENDBRANCH   2   3
BRANCH   1  17
HETATM   17  C7  UNL     1      25.067  -0.637  54.264  1.00  0.00     0.245 C 
HETATM   18  N2  UNL     1      25.965  -0.407  53.202  1.00  0.00    -0.322 N 
HETATM   19  H7  UNL     1      25.631  -0.331  52.234  1.00  0.00     0.169 HD
HETATM   20  O1  UNL     1      25.561  -0.716  55.418  1.00  0.00    -0.268 OA
BRANCH  18  21
HETATM   21  C6  UNL     1      27.375  -0.262  53.360  1.00  0.00     0.061 A 
HETATM   22  C1  UNL     1      28.035  -1.474  53.170  1.00  0.00     0.052 A 
HETATM   23  C2  UNL     1      29.406  -1.583  53.273  1.00  0.00     0.031 A 
HETATM   24  C3  UNL     1      30.147  -0.446  53.574  1.00  0.00     0.002 A 
HETATM   25  C4  UNL     1      29.486   0.750  53.761  1.00  0.00     0.002 A 
HETATM   26  C5  UNL     1      28.118   0.863  53.659  1.00  0.00     0.032 A 
BRANCH  22  27
HETATM   27  N1  UNL     1      27.409  -2.723  52.856  1.00  0.00    -0.397 N 
HETATM   28  H1  UNL     1      27.862  -3.639  52.822  1.00  0.00     0.156 HD
HETATM   29  H2  UNL     1      26.404  -2.862  52.620  1.00  0.00     0.156 HD
ENDBRANCH  22  27
ENDBRANCH  18  21
ENDBRANCH   1  17
TORSDOF 7
ENDMDL
MODEL 2
REMARK VINA RESULT:      -8.4      2.218      3.604
REMARK  7 active torsions:
REMARK  status: ('A' for Active; 'I' for Inactive)
REMARK    1  A    between atoms: N1_1  and  C1_2 
REMARK    2  A    between atoms: C6_7  and  N2_8 
REMARK       I    between atoms: N2_8  and  C7_9 
REMARK    3  A    between atoms: C7_9  and  C8_11 
REMARK    4  A    between atoms: C9_12  and  C10_13 
REMARK    5  A    between atoms: C13_16  and  C14_17 
REMARK    6  A    between atoms: C14_17  and  C15_18 
REMARK    7  A    between atoms: C15_18  and  C16_19 
ROOT
HETATM    1  C8  UNL     1      23.562  -0.110  53.569  1.00  0.00     0.077 C 
HETATM    2  C9  UNL     1      23.224   0.939  52.836  1.00  0.00     0.042 C 
ENDROOT
BRANCH   2   3
HETATM    3  C10 UNL     1      21.818   1.284  52.579  1.00  0.00     0.075 A 
HETATM    4  C11 UNL     1      21.215   2.512  52.365  1.00  0.00     0.040 A 
HETATM    5  C12 UNL     1      19.868   2.308  52.169  1.00  0.00     0.035 A 
HETATM    6  C13 UNL     1      19.691   0.947  52.271  1.00  0.00     0.054 A 
HETATM    7  O2  UNL     1      20.858   0.395  52.510  1.00  0.00    -0.315 OA
BRANCH   6   8
HETATM    8  C14 UNL     1      18.385   0.213  52.132  1.00  0.00     0.071 C 
BRANCH   8   9
HETATM    9  C15 UNL     1      18.518  -1.032  52.937  1.00  0.00     0.061 C 
BRANCH   9  10
HETATM   10  C16 UNL     1      17.360  -1.914  53.005  1.00  0.00     0.017 C 
HETATM   11  N3  UNL     1      16.291  -1.590  52.352  1.00  0.00    -0.251 NA
HETATM   12  C17 UNL     1      15.028  -2.250  52.236  1.00  0.00     0.232 C 
HETATM   13  N4  UNL     1      14.772  -3.503  52.442  1.00  0.00    -0.254 NA
HETATM   14  C18 UNL     1      15.702  -4.519  52.836  1.00  0.00     0.114 C 
HETATM   15  C19 UNL     1      16.873  -4.288  53.416  1.00  0.00    -0.002 C 
HETATM   16  C20 UNL     1      17.622  -3.078  53.847  1.00  0.00     0.083 C 
ENDBRANCH   9  10
ENDBRANCH   8   9
ENDBRANCH   6   8
ENDBRANCH   2   3
BRANCH   1  17
HETATM   17  C7  UNL     1      24.955  -0.446  53.819  1.00  0.00     0.245 C 
HETATM   18  N2  UNL     1      26.009  -0.083  52.955  1.00  0.00    -0.322 N 
HETATM   19  H7  UNL     1      25.828   0.445  52.094  1.00  0.00     0.169 HD
HETATM   20  O1  UNL     1      25.265  -1.092  54.853  1.00  0.00    -0.268 OA
BRANCH  18  21
HETATM   21  C6  UNL     1      27.380  -0.402  53.184  1.00  0.00     0.061 A 
HETATM   22  C1  UNL     1      28.085   0.701  53.660  1.00  0.00     0.052 A 
HETATM   23  C2  UNL     1      29.431   0.635  53.955  1.00  0.00     0.031 A 
HETATM   24  C3  UNL     1      30.099  -0.570  53.768  1.00  0.00     0.002 A 
HETATM   25  C4  UNL     1      29.394  -1.656  53.296  1.00  0.00     0.002 A 
HETATM   26  C5  UNL     1      28.051  -1.596  53.001  1.00  0.00     0.032 A 
BRANCH  22  27
HETATM   27  N1  UNL     1      27.534   2.000  53.901  1.00  0.00    -0.397 N 
HETATM   28  H1  UNL     1      26.889   2.257  54.653  1.00  0.00     0.156 HD
HETATM   29  H2  UNL     1      27.720   2.858  53.342  1.00  0.00     0.156 HD
ENDBRANCH  22  27
ENDBRANCH  18  21
ENDBRANCH   1  17
TORSDOF 7
ENDMDL
MODEL 3
REMARK VINA RESULT:      -8.3      6.952     10.670
REMARK  7 active torsions:
REMARK  status: ('A' for Active; 'I' for Inactive)
REMARK    1  A    between atoms: N1_1  and  C1_2 
REMARK    2  A    between atoms: C6_7  and  N2_8 
REMARK       I    between atoms: N2_8  and  C7_9 
REMARK    3  A    between atoms: C7_9  and  C8_11 
REMARK    4  A    between atoms: C9_12  and  C10_13 
REMARK    5  A    between atoms: C13_16  and  C14_17 
REMARK    6  A    between atoms: C14_17  and  C15_18 
REMARK    7  A    between atoms: C15_18  and  C16_19 
ROOT
HETATM    1  C8  UNL     1      27.451   5.341  48.592  1.00  0.00     0.077 C 
HETATM    2  C9  UNL     1      26.418   5.470  49.408  1.00  0.00     0.042 C 
ENDROOT
BRANCH   2   3
HETATM    3  C10 UNL     1      25.595   4.318  49.804  1.00  0.00     0.075 A 
HETATM    4  C11 UNL     1      24.358   3.892  49.348  1.00  0.00     0.040 A 
HETATM    5  C12 UNL     1      24.008   2.753  50.037  1.00  0.00     0.035 A 
HETATM    6  C13 UNL     1      25.053   2.519  50.901  1.00  0.00     0.054 A 
HETATM    7  O2  UNL     1      25.954   3.458  50.726  1.00  0.00    -0.315 OA
BRANCH   6   8
HETATM    8  C14 UNL     1      25.152   1.380  51.880  1.00  0.00     0.071 C 
BRANCH   8   9
HETATM    9  C15 UNL     1      26.505   1.473  52.493  1.00  0.00     0.061 C 
BRANCH   9  10
HETATM   10  C16 UNL     1      27.151   0.228  52.886  1.00  0.00     0.017 C 
HETATM   11  N3  UNL     1      26.666  -0.890  52.451  1.00  0.00    -0.251 NA
HETATM   12  C17 UNL     1      27.083  -2.240  52.668  1.00  0.00     0.232 C 
HETATM   13  N4  UNL     1      28.254  -2.654  53.036  1.00  0.00    -0.254 NA
HETATM   14  C18 UNL     1      29.405  -1.846  53.311  1.00  0.00     0.114 C 
HETATM   15  C19 UNL     1      29.369  -0.552  53.604  1.00  0.00    -0.002 C 
HETATM   16  C20 UNL     1      28.300   0.470  53.755  1.00  0.00     0.083 C 
ENDBRANCH   9  10
ENDBRANCH   8   9
ENDBRANCH   6   8
ENDBRANCH   2   3
BRANCH   1  17
HETATM   17  C7  UNL     1      28.261   6.486  48.203  1.00  0.00     0.245 C 
HETATM   18  N2  UNL     1      29.324   6.985  48.983  1.00  0.00    -0.322 N 
HETATM   19  H7  UNL     1      29.573   6.550  49.878  1.00  0.00     0.169 HD
HETATM   20  O1  UNL     1      28.024   7.079  47.120  1.00  0.00    -0.268 OA
BRANCH  18  21
HETATM   21  C6  UNL     1      30.130   8.104  48.619  1.00  0.00     0.061 A 
HETATM   22  C1  UNL     1      29.693   9.270  49.243  1.00  0.00     0.052 A 
HETATM   23  C2  UNL     1      30.318  10.483  49.044  1.00  0.00     0.031 A 
HETATM   24  C3  UNL     1      31.416  10.540  48.193  1.00  0.00     0.002 A 
HETATM   25  C4  UNL     1      31.842   9.381  47.578  1.00  0.00     0.002 A 
HETATM   26  C5  UNL     1      31.221   8.168  47.774  1.00  0.00     0.032 A 
BRANCH  22  27
HETATM   27  N1  UNL     1      28.583   9.367  50.142  1.00  0.00    -0.397 N 
HETATM   28  H1  UNL     1      27.819  10.046  50.094  1.00  0.00     0.156 HD
HETATM   29  H2  UNL     1      28.405   8.755  50.966  1.00  0.00     0.156 HD
ENDBRANCH  22  27
ENDBRANCH  18  21
ENDBRANCH   1  17
TORSDOF 7
ENDMDL
MODEL 4
REMARK VINA RESULT:      -8.3      6.976     10.456
REMARK  7 active torsions:
REMARK  status: ('A' for Active; 'I' for Inactive)
REMARK    1  A    between atoms: N1_1  and  C1_2 
REMARK    2  A    between atoms: C6_7  and  N2_8 
REMARK       I    between atoms: N2_8  and  C7_9 
REMARK    3  A    between atoms: C7_9  and  C8_11 
REMARK    4  A    between atoms: C9_12  and  C10_13 
REMARK    5  A    between atoms: C13_16  and  C14_17 
REMARK    6  A    between atoms: C14_17  and  C15_18 
REMARK    7  A    between atoms: C15_18  and  C16_19 
ROOT
HETATM    1  C8  UNL     1      26.979   5.497  48.583  1.00  0.00     0.077 C 
HETATM    2  C9  UNL     1      26.042   5.595  49.512  1.00  0.00     0.042 C 
ENDROOT
BRANCH   2   3
HETATM    3  C10 UNL     1      25.183   4.457  49.868  1.00  0.00     0.075 A 
HETATM    4  C11 UNL     1      24.091   3.911  49.214  1.00  0.00     0.040 A 
HETATM    5  C12 UNL     1      23.625   2.848  49.954  1.00  0.00     0.035 A 
HETATM    6  C13 UNL     1      24.457   2.780  51.049  1.00  0.00     0.054 A 
HETATM    7  O2  UNL     1      25.349   3.739  50.951  1.00  0.00    -0.315 OA
BRANCH   6   8
HETATM    8  C14 UNL     1      24.365   1.778  52.168  1.00  0.00     0.071 C 
BRANCH   8   9
HETATM    9  C15 UNL     1      25.383   2.182  53.175  1.00  0.00     0.061 C 
BRANCH   9  10
HETATM   10  C16 UNL     1      26.655   1.472  53.165  1.00  0.00     0.017 C 
HETATM   11  N3  UNL     1      27.649   1.964  53.833  1.00  0.00    -0.251 NA
HETATM   12  C17 UNL     1      28.989   1.494  54.001  1.00  0.00     0.232 C 
HETATM   13  N4  UNL     1      29.425   0.286  53.842  1.00  0.00    -0.254 NA
HETATM   14  C18 UNL     1      28.660  -0.864  53.459  1.00  0.00     0.114 C 
HETATM   15  C19 UNL     1      27.485  -0.819  52.843  1.00  0.00    -0.002 C 
HETATM   16  C20 UNL     1      26.586   0.259  52.354  1.00  0.00     0.083 C 
ENDBRANCH   9  10
ENDBRANCH   8   9
ENDBRANCH   6   8
ENDBRANCH   2   3
BRANCH   1  17
HETATM   17  C7  UNL     1      27.827   6.628  48.234  1.00  0.00     0.245 C 
HETATM   18  N2  UNL     1      28.984   6.982  48.957  1.00  0.00    -0.322 N 
HETATM   19  H7  UNL     1      29.280   6.443  49.779  1.00  0.00     0.169 HD
HETATM   20  O1  UNL     1      27.536   7.342  47.241  1.00  0.00    -0.268 OA
BRANCH  18  21
HETATM   21  C6  UNL     1      29.828   8.084  48.631  1.00  0.00     0.061 A 
HETATM   22  C1  UNL     1      29.461   9.231  49.332  1.00  0.00     0.052 A 
HETATM   23  C2  UNL     1      30.133  10.426  49.181  1.00  0.00     0.031 A 
HETATM   24  C3  UNL     1      31.208  10.483  48.302  1.00  0.00     0.002 A 
HETATM   25  C4  UNL     1      31.564   9.344  47.611  1.00  0.00     0.002 A 
HETATM   26  C5  UNL     1      30.897   8.150  47.758  1.00  0.00     0.032 A 
BRANCH  22  27
HETATM   27  N1  UNL     1      28.381   9.324  50.269  1.00  0.00    -0.397 N 
HETATM   28  H1  UNL     1      28.422   9.107  51.267  1.00  0.00     0.156 HD
HETATM   29  H2  UNL     1      27.408   9.627  50.054  1.00  0.00     0.156 HD
ENDBRANCH  22  27
ENDBRANCH  18  21
ENDBRANCH   1  17
TORSDOF 7
ENDMDL
MODEL 5
REMARK VINA RESULT:      -8.1      6.429     12.166
REMARK  7 active torsions:
REMARK  status: ('A' for Active; 'I' for Inactive)
REMARK    1  A    between atoms: N1_1  and  C1_2 
REMARK    2  A    between atoms: C6_7  and  N2_8 
REMARK       I    between atoms: N2_8  and  C7_9 
REMARK    3  A    between atoms: C7_9  and  C8_11 
REMARK    4  A    between atoms: C9_12  and  C10_13 
REMARK    5  A    between atoms: C13_16  and  C14_17 
REMARK    6  A    between atoms: C14_17  and  C15_18 
REMARK    7  A    between atoms: C15_18  and  C16_19 
ROOT
HETATM    1  C8  UNL     1      26.709   3.081  50.703  1.00  0.00     0.077 C 
HETATM    2  C9  UNL     1      26.246   3.734  49.650  1.00  0.00     0.042 C 
ENDROOT
BRANCH   2   3
HETATM    3  C10 UNL     1      27.003   4.823  49.018  1.00  0.00     0.075 A 
HETATM    4  C11 UNL     1      26.589   6.063  48.561  1.00  0.00     0.040 A 
HETATM    5  C12 UNL     1      27.681   6.726  48.047  1.00  0.00     0.035 A 
HETATM    6  C13 UNL     1      28.738   5.859  48.210  1.00  0.00     0.054 A 
HETATM    7  O2  UNL     1      28.290   4.764  48.781  1.00  0.00    -0.315 OA
BRANCH   6   8
HETATM    8  C14 UNL     1      30.164   6.118  47.806  1.00  0.00     0.071 C 
BRANCH   8   9
HETATM    9  C15 UNL     1      30.744   4.794  47.451  1.00  0.00     0.061 C 
BRANCH   9  10
HETATM   10  C16 UNL     1      32.106   4.520  47.890  1.00  0.00     0.017 C 
HETATM   11  N3  UNL     1      32.696   3.450  47.461  1.00  0.00    -0.251 NA
HETATM   12  C17 UNL     1      34.004   2.934  47.718  1.00  0.00     0.232 C 
HETATM   13  N4  UNL     1      35.042   3.589  48.132  1.00  0.00    -0.254 NA
HETATM   14  C18 UNL     1      35.115   4.989  48.430  1.00  0.00     0.114 C 
HETATM   15  C19 UNL     1      34.069   5.761  48.696  1.00  0.00    -0.002 C 
HETATM   16  C20 UNL     1      32.599   5.558  48.790  1.00  0.00     0.083 C 
ENDBRANCH   9  10
ENDBRANCH   8   9
ENDBRANCH   6   8
ENDBRANCH   2   3
BRANCH   1  17
HETATM   17  C7  UNL     1      25.954   2.003  51.324  1.00  0.00     0.245 C 
HETATM   18  N2  UNL     1      24.623   2.143  51.767  1.00  0.00    -0.322 N 
HETATM   19  H7  UNL     1      24.123   3.034  51.666  1.00  0.00     0.169 HD
HETATM   20  O1  UNL     1      26.492   0.878  51.487  1.00  0.00    -0.268 OA
BRANCH  18  21
HETATM   21  C6  UNL     1      23.866   1.099  52.376  1.00  0.00     0.061 A 
HETATM   22  C1  UNL     1      22.668   0.880  51.702  1.00  0.00     0.052 A 
HETATM   23  C2  UNL     1      21.767  -0.082  52.107  1.00  0.00     0.031 A 
HETATM   24  C3  UNL     1      22.069  -0.854  53.223  1.00  0.00     0.002 A 
HETATM   25  C4  UNL     1      23.257  -0.630  53.886  1.00  0.00     0.002 A 
HETATM   26  C5  UNL     1      24.159   0.329  53.485  1.00  0.00     0.032 A 
BRANCH  22  27
HETATM   27  N1  UNL     1      22.223   1.592  50.542  1.00  0.00    -0.397 N 
HETATM   28  H1  UNL     1      22.654   2.429  50.140  1.00  0.00     0.156 HD
HETATM   29  H2  UNL     1      21.401   1.350  49.951  1.00  0.00     0.156 HD
ENDBRANCH  22  27
ENDBRANCH  18  21
ENDBRANCH   1  17
TORSDOF 7
ENDMDL
MODEL 6
REMARK VINA RESULT:      -8.1      6.670     10.125
REMARK  7 active torsions:
REMARK  status: ('A' for Active; 'I' for Inactive)
REMARK    1  A    between atoms: N1_1  and  C1_2 
REMARK    2  A    between atoms: C6_7  and  N2_8 
REMARK       I    between atoms: N2_8  and  C7_9 
REMARK    3  A    between atoms: C7_9  and  C8_11 
REMARK    4  A    between atoms: C9_12  and  C10_13 
REMARK    5  A    between atoms: C13_16  and  C14_17 
REMARK    6  A    between atoms: C14_17  and  C15_18 
REMARK    7  A    between atoms: C15_18  and  C16_19 
ROOT
HETATM    1  C8  UNL     1      27.821   4.972  48.726  1.00  0.00     0.077 C 
HETATM    2  C9  UNL     1      26.626   5.390  49.110  1.00  0.00     0.042 C 
ENDROOT
BRANCH   2   3
HETATM    3  C10 UNL     1      25.569   4.452  49.515  1.00  0.00     0.075 A 
HETATM    4  C11 UNL     1      24.281   4.282  49.036  1.00  0.00     0.040 A 
HETATM    5  C12 UNL     1      23.681   3.266  49.747  1.00  0.00     0.035 A 
HETATM    6  C13 UNL     1      24.635   2.845  50.647  1.00  0.00     0.054 A 
HETATM    7  O2  UNL     1      25.717   3.567  50.470  1.00  0.00    -0.315 OA
BRANCH   6   8
HETATM    8  C14 UNL     1      24.469   1.745  51.659  1.00  0.00     0.071 C 
BRANCH   8   9
HETATM    9  C15 UNL     1      25.255   2.154  52.854  1.00  0.00     0.061 C 
BRANCH   9  10
HETATM   10  C16 UNL     1      26.586   1.582  53.010  1.00  0.00     0.017 C 
HETATM   11  N3  UNL     1      27.468   2.233  53.698  1.00  0.00    -0.251 NA
HETATM   12  C17 UNL     1      28.827   1.921  54.013  1.00  0.00     0.232 C 
HETATM   13  N4  UNL     1      29.389   0.754  54.010  1.00  0.00    -0.254 NA
HETATM   14  C18 UNL     1      28.772  -0.498  53.688  1.00  0.00     0.114 C 
HETATM   15  C19 UNL     1      27.654  -0.632  52.984  1.00  0.00    -0.002 C 
HETATM   16  C20 UNL     1      26.701   0.298  52.323  1.00  0.00     0.083 C 
ENDBRANCH   9  10
ENDBRANCH   8   9
ENDBRANCH   6   8
ENDBRANCH   2   3
BRANCH   1  17
HETATM   17  C7  UNL     1      28.862   5.907  48.326  1.00  0.00     0.245 C 
HETATM   18  N2  UNL     1      30.053   6.099  49.055  1.00  0.00    -0.322 N 
HETATM   19  H7  UNL     1      30.236   5.574  49.918  1.00  0.00     0.169 HD
HETATM   20  O1  UNL     1      28.719   6.590  47.281  1.00  0.00    -0.268 OA
BRANCH  18  21
HETATM   21  C6  UNL     1      31.086   7.008  48.679  1.00  0.00     0.061 A 
HETATM   22  C1  UNL     1      32.321   6.370  48.597  1.00  0.00     0.052 A 
HETATM   23  C2  UNL     1      33.471   7.046  48.250  1.00  0.00     0.031 A 
HETATM   24  C3  UNL     1      33.391   8.406  47.974  1.00  0.00     0.002 A 
HETATM   25  C4  UNL     1      32.165   9.031  48.058  1.00  0.00     0.002 A 
HETATM   26  C5  UNL     1      31.014   8.360  48.404  1.00  0.00     0.032 A 
BRANCH  22  27
HETATM   27  N1  UNL     1      32.558   4.980  48.851  1.00  0.00    -0.397 N 
HETATM   28  H1  UNL     1      33.426   4.469  48.674  1.00  0.00     0.156 HD
HETATM   29  H2  UNL     1      31.873   4.305  49.251  1.00  0.00     0.156 HD
ENDBRANCH  22  27
ENDBRANCH  18  21
ENDBRANCH   1  17
TORSDOF 7
ENDMDL
MODEL 7
REMARK VINA RESULT:      -8.1      2.676      3.837
REMARK  7 active torsions:
REMARK  status: ('A' for Active; 'I' for Inactive)
REMARK    1  A    between atoms: N1_1  and  C1_2 
REMARK    2  A    between atoms: C6_7  and  N2_8 
REMARK       I    between atoms: N2_8  and  C7_9 
REMARK    3  A    between atoms: C7_9  and  C8_11 
REMARK    4  A    between atoms: C9_12  and  C10_13 
REMARK    5  A    between atoms: C13_16  and  C14_17 
REMARK    6  A    between atoms: C14_17  and  C15_18 
REMARK    7  A    between atoms: C15_18  and  C16_19 
ROOT
HETATM    1  C8  UNL     1      23.376  -0.284  53.125  1.00  0.00     0.077 C 
HETATM    2  C9  UNL     1      22.396  -0.722  53.899  1.00  0.00     0.042 C 
ENDROOT
BRANCH   2   3
HETATM    3  C10 UNL     1      20.986  -0.622  53.496  1.00  0.00     0.075 A 
HETATM    4  C11 UNL     1      19.883  -1.367  53.878  1.00  0.00     0.040 A 
HETATM    5  C12 UNL     1      18.778  -0.880  53.218  1.00  0.00     0.035 A 
HETATM    6  C13 UNL     1      19.248   0.158  52.445  1.00  0.00     0.054 A 
HETATM    7  O2  UNL     1      20.541   0.268  52.644  1.00  0.00    -0.315 OA
BRANCH   6   8
HETATM    8  C14 UNL     1      18.424   1.022  51.530  1.00  0.00     0.071 C 
BRANCH   8   9
HETATM    9  C15 UNL     1      18.943   0.789  50.155  1.00  0.00     0.061 C 
BRANCH   9  10
HETATM   10  C16 UNL     1      19.945   1.718  49.650  1.00  0.00     0.017 C 
HETATM   11  N3  UNL     1      19.661   2.980  49.608  1.00  0.00    -0.251 NA
HETATM   12  C17 UNL     1      20.434   4.100  49.170  1.00  0.00     0.232 C 
HETATM   13  N4  UNL     1      21.722   4.176  49.064  1.00  0.00    -0.254 NA
HETATM   14  C18 UNL     1      22.673   3.146  49.365  1.00  0.00     0.114 C 
HETATM   15  C19 UNL     1      22.390   1.851  49.431  1.00  0.00    -0.002 C 
HETATM   16  C20 UNL     1      21.168   1.024  49.254  1.00  0.00     0.083 C 
ENDBRANCH   9  10
ENDBRANCH   8   9
ENDBRANCH   6   8
ENDBRANCH   2   3
BRANCH   1  17
HETATM   17  C7  UNL     1      24.770  -0.387  53.530  1.00  0.00     0.245 C 
HETATM   18  N2  UNL     1      25.841   0.106  52.757  1.00  0.00    -0.322 N 
HETATM   19  H7  UNL     1      25.674   0.567  51.856  1.00  0.00     0.169 HD
HETATM   20  O1  UNL     1      25.063  -0.937  54.622  1.00  0.00    -0.268 OA
BRANCH  18  21
HETATM   21  C6  UNL     1      27.212   0.016  53.137  1.00  0.00     0.061 A 
HETATM   22  C1  UNL     1      27.672   1.219  53.670  1.00  0.00     0.052 A 
HETATM   23  C2  UNL     1      28.970   1.375  54.108  1.00  0.00     0.031 A 
HETATM   24  C3  UNL     1      29.843   0.297  54.014  1.00  0.00     0.002 A 
HETATM   25  C4  UNL     1      29.380  -0.890  53.486  1.00  0.00     0.002 A 
HETATM   26  C5  UNL     1      28.086  -1.050  53.047  1.00  0.00     0.032 A 
BRANCH  22  27
HETATM   27  N1  UNL     1      26.893   2.410  53.830  1.00  0.00    -0.397 N 
HETATM   28  H1  UNL     1      26.154   2.565  54.520  1.00  0.00     0.156 HD
HETATM   29  H2  UNL     1      26.977   3.279  53.262  1.00  0.00     0.156 HD
ENDBRANCH  22  27
ENDBRANCH  18  21
ENDBRANCH   1  17
TORSDOF 7
ENDMDL
MODEL 8
REMARK VINA RESULT:      -8.0      6.693     12.297
REMARK  7 active torsions:
REMARK  status: ('A' for Active; 'I' for Inactive)
REMARK    1  A    between atoms: N1_1  and  C1_2 
REMARK    2  A    between atoms: C6_7  and  N2_8 
REMARK       I    between atoms: N2_8  and  C7_9 
REMARK    3  A    between atoms: C7_9  and  C8_11 
REMARK    4  A    between atoms: C9_12  and  C10_13 
REMARK    5  A    between atoms: C13_16  and  C14_17 
REMARK    6  A    between atoms: C14_17  and  C15_18 
REMARK    7  A    between atoms: C15_18  and  C16_19 
ROOT
HETATM    1  C8  UNL     1      25.698   4.371  50.010  1.00  0.00     0.077 C 
HETATM    2  C9  UNL     1      26.768   4.173  49.256  1.00  0.00     0.042 C 
ENDROOT
BRANCH   2   3
HETATM    3  C10 UNL     1      27.501   5.290  48.643  1.00  0.00     0.075 A 
HETATM    4  C11 UNL     1      27.065   6.539  48.233  1.00  0.00     0.040 A 
HETATM    5  C12 UNL     1      28.139   7.229  47.718  1.00  0.00     0.035 A 
HETATM    6  C13 UNL     1      29.208   6.368  47.831  1.00  0.00     0.054 A 
HETATM    7  O2  UNL     1      28.783   5.252  48.377  1.00  0.00    -0.315 OA
BRANCH   6   8
HETATM    8  C14 UNL     1      30.622   6.654  47.405  1.00  0.00     0.071 C 
BRANCH   8   9
HETATM    9  C15 UNL     1      31.500   6.084  48.463  1.00  0.00     0.061 C 
BRANCH   9  10
HETATM   10  C16 UNL     1      32.532   5.145  48.044  1.00  0.00     0.017 C 
HETATM   11  N3  UNL     1      33.741   5.314  48.473  1.00  0.00    -0.251 NA
HETATM   12  C17 UNL     1      34.934   4.564  48.233  1.00  0.00     0.232 C 
HETATM   13  N4  UNL     1      35.026   3.334  47.841  1.00  0.00    -0.254 NA
HETATM   14  C18 UNL     1      33.945   2.437  47.557  1.00  0.00     0.114 C 
HETATM   15  C19 UNL     1      32.702   2.814  47.280  1.00  0.00    -0.002 C 
HETATM   16  C20 UNL     1      31.992   4.115  47.160  1.00  0.00     0.083 C 
ENDBRANCH   9  10
ENDBRANCH   8   9
ENDBRANCH   6   8
ENDBRANCH   2   3
BRANCH   1  17
HETATM   17  C7  UNL     1      24.977   3.262  50.614  1.00  0.00     0.245 C 
HETATM   18  N2  UNL     1      25.220   2.799  51.923  1.00  0.00    -0.322 N 
HETATM   19  H7  UNL     1      25.935   3.237  52.515  1.00  0.00     0.169 HD
HETATM   20  O1  UNL     1      24.084   2.667  49.958  1.00  0.00    -0.268 OA
BRANCH  18  21
HETATM   21  C6  UNL     1      24.523   1.714  52.533  1.00  0.00     0.061 A 
HETATM   22  C1  UNL     1      25.356   0.613  52.717  1.00  0.00     0.052 A 
HETATM   23  C2  UNL     1      24.904  -0.557  53.290  1.00  0.00     0.031 A 
HETATM   24  C3  UNL     1      23.577  -0.635  53.696  1.00  0.00     0.002 A 
HETATM   25  C4  UNL     1      22.758   0.460  53.510  1.00  0.00     0.002 A 
HETATM   26  C5  UNL     1      23.205   1.629  52.938  1.00  0.00     0.032 A 
BRANCH  22  27
HETATM   27  N1  UNL     1      26.739   0.546  52.353  1.00  0.00    -0.397 N 
HETATM   28  H1  UNL     1      27.254   1.229  51.792  1.00  0.00     0.156 HD
HETATM   29  H2  UNL     1      27.406  -0.210  52.613  1.00  0.00     0.156 HD
ENDBRANCH  22  27
ENDBRANCH  18  21
ENDBRANCH   1  17
TORSDOF 7
ENDMDL
MODEL 9
REMARK VINA RESULT:      -7.8      2.499      3.334
REMARK  7 active torsions:
REMARK  status: ('A' for Active; 'I' for Inactive)
REMARK    1  A    between atoms: N1_1  and  C1_2 
REMARK    2  A    between atoms: C6_7  and  N2_8 
REMARK       I    between atoms: N2_8  and  C7_9 
REMARK    3  A    between atoms: C7_9  and  C8_11 
REMARK    4  A    between atoms: C9_12  and  C10_13 
REMARK    5  A    between atoms: C13_16  and  C14_17 
REMARK    6  A    between atoms: C14_17  and  C15_18 
REMARK    7  A    between atoms: C15_18  and  C16_19 
ROOT
HETATM    1  C8  UNL     1      23.738   0.522  52.572  1.00  0.00     0.077 C 
HETATM    2  C9  UNL     1      23.045  -0.455  53.133  1.00  0.00     0.042 C 
ENDROOT
BRANCH   2   3
HETATM    3  C10 UNL     1      21.576  -0.488  53.090  1.00  0.00     0.075 A 
HETATM    4  C11 UNL     1      20.657  -0.977  54.003  1.00  0.00     0.040 A 
HETATM    5  C12 UNL     1      19.391  -0.772  53.502  1.00  0.00     0.035 A 
HETATM    6  C13 UNL     1      19.582  -0.157  52.285  1.00  0.00     0.054 A 
HETATM    7  O2  UNL     1      20.872  -0.014  52.091  1.00  0.00    -0.315 OA
BRANCH   6   8
HETATM    8  C14 UNL     1      18.498   0.278  51.336  1.00  0.00     0.071 C 
BRANCH   8   9
HETATM    9  C15 UNL     1      18.344   1.746  51.524  1.00  0.00     0.061 C 
BRANCH   9  10
HETATM   10  C16 UNL     1      19.501   2.584  51.243  1.00  0.00     0.017 C 
HETATM   11  N3  UNL     1      20.008   3.290  52.202  1.00  0.00    -0.251 NA
HETATM   12  C17 UNL     1      21.122   4.186  52.219  1.00  0.00     0.232 C 
HETATM   13  N4  UNL     1      22.115   4.224  51.390  1.00  0.00    -0.254 NA
HETATM   14  C18 UNL     1      22.326   3.370  50.258  1.00  0.00     0.114 C 
HETATM   15  C19 UNL     1      21.376   2.666  49.654  1.00  0.00    -0.002 C 
HETATM   16  C20 UNL     1      19.913   2.479  49.846  1.00  0.00     0.083 C 
ENDBRANCH   9  10
ENDBRANCH   8   9
ENDBRANCH   6   8
ENDBRANCH   2   3
BRANCH   1  17
HETATM   17  C7  UNL     1      25.192   0.548  52.618  1.00  0.00     0.245 C 
HETATM   18  N2  UNL     1      25.952  -0.191  53.546  1.00  0.00    -0.322 N 
HETATM   19  H7  UNL     1      25.497  -0.792  54.243  1.00  0.00     0.169 HD
HETATM   20  O1  UNL     1      25.829   1.258  51.799  1.00  0.00    -0.268 OA
BRANCH  18  21
HETATM   21  C6  UNL     1      27.377  -0.180  53.606  1.00  0.00     0.061 A 
HETATM   22  C1  UNL     1      27.912  -1.405  53.214  1.00  0.00     0.052 A 
HETATM   23  C2  UNL     1      29.272  -1.634  53.191  1.00  0.00     0.031 A 
HETATM   24  C3  UNL     1      30.131  -0.609  53.571  1.00  0.00     0.002 A 
HETATM   25  C4  UNL     1      29.593   0.600  53.958  1.00  0.00     0.002 A 
HETATM   26  C5  UNL     1      28.237   0.833  53.983  1.00  0.00     0.032 A 
BRANCH  22  27
HETATM   27  N1  UNL     1      27.157  -2.548  52.798  1.00  0.00    -0.397 N 
HETATM   28  H1  UNL     1      26.138  -2.614  52.736  1.00  0.00     0.156 HD
HETATM   29  H2  UNL     1      27.548  -3.466  52.500  1.00  0.00     0.156 HD
ENDBRANCH  22  27
ENDBRANCH  18  21
ENDBRANCH   1  17
TORSDOF 7
ENDMDL
