MODEL 1
REMARK VINA RESULT:      -6.7      0.000      0.000
REMARK  6 active torsions:
REMARK  status: ('A' for Active; 'I' for Inactive)
REMARK    1  A    between atoms: C2_2  and  O1_3 
REMARK    2  A    between atoms: O1_3  and  C3_4 
REMARK    3  A    between atoms: C3_4  and  O2_6 
REMARK    4  A    between atoms: O2_6  and  C5_7 
REMARK    5  A    between atoms: C5_7  and  C10_15 
REMARK    6  A    between atoms: C6_8  and  C7_9 
ROOT
HETATM    1  C5  UNL     1      24.495   0.009  53.633  1.00  0.00     0.111 C 
HETATM    2  C6  UNL     1      25.692  -0.031  54.075  1.00  0.00     0.097 C 
ENDROOT
BRANCH   1   3
HETATM    3  O2  UNL     1      24.761   0.629  52.425  1.00  0.00    -0.318 OA
BRANCH   3   4
HETATM    4  C3  UNL     1      24.410   1.970  52.122  1.00  0.00     0.262 C 
HETATM    5  C4  UNL     1      23.464   2.049  50.955  1.00  0.00     0.071 C 
BRANCH   4   6
HETATM    6  O1  UNL     1      25.521   2.797  51.979  1.00  0.00    -0.362 OA
BRANCH   6   7
HETATM    7  C2  UNL     1      26.403   2.345  51.030  1.00  0.00     0.166 C 
HETATM    8  C1  UNL     1      26.585   3.279  49.855  1.00  0.00     0.033 C 
ENDBRANCH   6   7
ENDBRANCH   4   6
ENDBRANCH   3   4
ENDBRANCH   1   3
BRANCH   1   9
HETATM    9  C10 UNL     1      23.176  -0.385  54.059  1.00  0.00     0.124 C 
HETATM   10  C11 UNL     1      22.913  -1.365  54.896  1.00  0.00     0.174 C 
HETATM   11  O4  UNL     1      21.580  -1.612  55.199  1.00  0.00    -0.358 OA
HETATM   12  C12 UNL     1      20.651  -1.563  54.134  1.00  0.00     0.201 C 
HETATM   13  C13 UNL     1      20.879  -0.332  53.302  1.00  0.00     0.202 C 
HETATM   14  O5  UNL     1      22.102   0.320  53.551  1.00  0.00    -0.344 OA
ENDBRANCH   1   9
BRANCH   2  15
HETATM   15  C7  UNL     1      27.078   0.185  54.040  1.00  0.00     0.169 A 
HETATM   16  N1  UNL     1      27.640  -0.919  53.655  1.00  0.00    -0.218 NA
HETATM   17  C8  UNL     1      29.060  -0.997  53.525  1.00  0.00     0.232 A 
HETATM   18  N2  UNL     1      29.748   0.041  53.798  1.00  0.00    -0.257 NA
HETATM   19  C9  UNL     1      29.208   1.303  54.232  1.00  0.00     0.327 A 
HETATM   20  O3  UNL     1      27.802   1.302  54.335  1.00  0.00    -0.313 OA
ENDBRANCH   2  15
TORSDOF 6
ENDMDL
MODEL 2
REMARK VINA RESULT:      -6.7      1.067      1.331
REMARK  6 active torsions:
REMARK  status: ('A' for Active; 'I' for Inactive)
REMARK    1  A    between atoms: C2_2  and  O1_3 
REMARK    2  A    between atoms: O1_3  and  C3_4 
REMARK    3  A    between atoms: C3_4  and  O2_6 
REMARK    4  A    between atoms: O2_6  and  C5_7 
REMARK    5  A    between atoms: C5_7  and  C10_15 
REMARK    6  A    between atoms: C6_8  and  C7_9 
ROOT
HETATM    1  C5  UNL     1      24.244  -0.185  53.611  1.00  0.00     0.111 C 
HETATM    2  C6  UNL     1      25.389  -0.665  53.910  1.00  0.00     0.097 C 
ENDROOT
BRANCH   1   3
HETATM    3  O2  UNL     1      24.670   0.781  52.720  1.00  0.00    -0.318 OA
BRANCH   3   4
HETATM    4  C3  UNL     1      25.020   2.108  53.086  1.00  0.00     0.262 C 
HETATM    5  C4  UNL     1      23.906   3.077  52.805  1.00  0.00     0.071 C 
BRANCH   4   6
HETATM    6  O1  UNL     1      26.240   2.509  52.548  1.00  0.00    -0.362 OA
BRANCH   6   7
HETATM    7  C2  UNL     1      26.460   2.005  51.291  1.00  0.00     0.166 C 
HETATM    8  C1  UNL     1      26.517   3.053  50.203  1.00  0.00     0.033 C 
ENDBRANCH   6   7
ENDBRANCH   4   6
ENDBRANCH   3   4
ENDBRANCH   1   3
BRANCH   1   9
HETATM    9  C10 UNL     1      22.861  -0.407  53.953  1.00  0.00     0.124 C 
HETATM   10  C11 UNL     1      22.422  -1.352  54.757  1.00  0.00     0.174 C 
HETATM   11  O4  UNL     1      21.053  -1.425  54.977  1.00  0.00    -0.358 OA
HETATM   12  C12 UNL     1      20.204  -1.245  53.860  1.00  0.00     0.201 C 
HETATM   13  C13 UNL     1      20.641  -0.047  53.063  1.00  0.00     0.202 C 
HETATM   14  O5  UNL     1      21.921   0.437  53.395  1.00  0.00    -0.344 OA
ENDBRANCH   1   9
BRANCH   2  15
HETATM   15  C7  UNL     1      26.787  -0.770  53.854  1.00  0.00     0.169 A 
HETATM   16  N1  UNL     1      27.279   0.046  54.734  1.00  0.00    -0.218 NA
HETATM   17  C8  UNL     1      28.693   0.153  54.904  1.00  0.00     0.232 A 
HETATM   18  N2  UNL     1      29.445  -0.570  54.170  1.00  0.00    -0.257 NA
HETATM   19  C9  UNL     1      28.984  -1.499  53.172  1.00  0.00     0.327 A 
HETATM   20  O3  UNL     1      27.579  -1.549  53.064  1.00  0.00    -0.313 OA
ENDBRANCH   2  15
TORSDOF 6
ENDMDL
MODEL 3
REMARK VINA RESULT:      -6.6      2.402      5.481
REMARK  6 active torsions:
REMARK  status: ('A' for Active; 'I' for Inactive)
REMARK    1  A    between atoms: C2_2  and  O1_3 
REMARK    2  A    between atoms: O1_3  and  C3_4 
REMARK    3  A    between atoms: C3_4  and  O2_6 
REMARK    4  A    between atoms: O2_6  and  C5_7 
REMARK    5  A    between atoms: C5_7  and  C10_15 
REMARK    6  A    between atoms: C6_8  and  C7_9 
ROOT
HETATM    1  C5  UNL     1      25.687  -0.132  53.251  1.00  0.00     0.111 C 
HETATM    2  C6  UNL     1      24.483  -0.464  53.519  1.00  0.00     0.097 C 
ENDROOT
BRANCH   1   3
HETATM    3  O2  UNL     1      25.415   0.757  52.227  1.00  0.00    -0.318 OA
BRANCH   3   4
HETATM    4  C3  UNL     1      25.712   2.144  52.274  1.00  0.00     0.262 C 
HETATM    5  C4  UNL     1      24.467   2.979  52.387  1.00  0.00     0.071 C 
BRANCH   4   6
HETATM    6  O1  UNL     1      26.546   2.549  51.235  1.00  0.00    -0.362 OA
BRANCH   6   7
HETATM    7  C2  UNL     1      25.936   3.423  50.371  1.00  0.00     0.166 C 
HETATM    8  C1  UNL     1      26.852   3.987  49.308  1.00  0.00     0.033 C 
ENDBRANCH   6   7
ENDBRANCH   4   6
ENDBRANCH   3   4
ENDBRANCH   1   3
BRANCH   1   9
HETATM    9  C10 UNL     1      27.016  -0.439  53.713  1.00  0.00     0.124 C 
HETATM   10  C11 UNL     1      27.755   0.345  54.470  1.00  0.00     0.174 C 
HETATM   11  O4  UNL     1      29.019  -0.108  54.824  1.00  0.00    -0.358 OA
HETATM   12  C12 UNL     1      29.785  -0.749  53.822  1.00  0.00     0.201 C 
HETATM   13  C13 UNL     1      28.945  -1.763  53.096  1.00  0.00     0.202 C 
HETATM   14  O5  UNL     1      27.562  -1.650  53.335  1.00  0.00    -0.344 OA
ENDBRANCH   1   9
BRANCH   2  15
HETATM   15  C7  UNL     1      23.088  -0.445  53.375  1.00  0.00     0.169 A 
HETATM   16  N1  UNL     1      22.581  -1.131  54.352  1.00  0.00    -0.218 NA
HETATM   17  C8  UNL     1      21.165  -1.286  54.464  1.00  0.00     0.232 A 
HETATM   18  N2  UNL     1      20.427  -0.734  53.584  1.00  0.00    -0.257 NA
HETATM   19  C9  UNL     1      20.904   0.042  52.469  1.00  0.00     0.327 A 
HETATM   20  O3  UNL     1      22.309   0.150  52.426  1.00  0.00    -0.313 OA
ENDBRANCH   2  15
TORSDOF 6
ENDMDL
MODEL 4
REMARK VINA RESULT:      -6.2      2.777      6.090
REMARK  6 active torsions:
REMARK  status: ('A' for Active; 'I' for Inactive)
REMARK    1  A    between atoms: C2_2  and  O1_3 
REMARK    2  A    between atoms: O1_3  and  C3_4 
REMARK    3  A    between atoms: C3_4  and  O2_6 
REMARK    4  A    between atoms: O2_6  and  C5_7 
REMARK    5  A    between atoms: C5_7  and  C10_15 
REMARK    6  A    between atoms: C6_8  and  C7_9 
ROOT
HETATM    1  C5  UNL     1      24.640   0.167  53.184  1.00  0.00     0.111 C 
HETATM    2  C6  UNL     1      24.112   1.172  52.599  1.00  0.00     0.097 C 
ENDROOT
BRANCH   1   3
HETATM    3  O2  UNL     1      23.525  -0.650  53.200  1.00  0.00    -0.318 OA
BRANCH   3   4
HETATM    4  C3  UNL     1      22.553  -0.654  54.235  1.00  0.00     0.262 C 
HETATM    5  C4  UNL     1      23.029  -1.410  55.444  1.00  0.00     0.071 C 
BRANCH   4   6
HETATM    6  O1  UNL     1      21.299  -1.068  53.792  1.00  0.00    -0.362 OA
BRANCH   6   7
HETATM    7  C2  UNL     1      20.409  -0.032  53.666  1.00  0.00     0.166 C 
HETATM    8  C1  UNL     1      19.786   0.088  52.294  1.00  0.00     0.033 C 
ENDBRANCH   6   7
ENDBRANCH   4   6
ENDBRANCH   3   4
ENDBRANCH   1   3
BRANCH   1   9
HETATM    9  C10 UNL     1      25.919  -0.213  53.726  1.00  0.00     0.124 C 
HETATM   10  C11 UNL     1      26.443   0.264  54.836  1.00  0.00     0.174 C 
HETATM   11  O4  UNL     1      27.691  -0.212  55.215  1.00  0.00    -0.358 OA
HETATM   12  C12 UNL     1      28.663  -0.371  54.200  1.00  0.00     0.201 C 
HETATM   13  C13 UNL     1      28.064  -1.078  53.015  1.00  0.00     0.202 C 
HETATM   14  O5  UNL     1      26.657  -1.150  53.031  1.00  0.00    -0.344 OA
ENDBRANCH   1   9
BRANCH   2  15
HETATM   15  C7  UNL     1      23.082   1.899  51.984  1.00  0.00     0.169 A 
HETATM   16  N1  UNL     1      23.016   1.519  50.745  1.00  0.00    -0.218 NA
HETATM   17  C8  UNL     1      22.049   2.095  49.866  1.00  0.00     0.232 A 
HETATM   18  N2  UNL     1      21.264   2.984  50.333  1.00  0.00    -0.257 NA
HETATM   19  C9  UNL     1      21.268   3.464  51.691  1.00  0.00     0.327 A 
HETATM   20  O3  UNL     1      22.248   2.849  52.496  1.00  0.00    -0.313 OA
ENDBRANCH   2  15
TORSDOF 6
ENDMDL
MODEL 5
REMARK VINA RESULT:      -6.1      2.106      4.597
REMARK  6 active torsions:
REMARK  status: ('A' for Active; 'I' for Inactive)
REMARK    1  A    between atoms: C2_2  and  O1_3 
REMARK    2  A    between atoms: O1_3  and  C3_4 
REMARK    3  A    between atoms: C3_4  and  O2_6 
REMARK    4  A    between atoms: O2_6  and  C5_7 
REMARK    5  A    between atoms: C5_7  and  C10_15 
REMARK    6  A    between atoms: C6_8  and  C7_9 
ROOT
HETATM    1  C5  UNL     1      24.074   2.575  52.558  1.00  0.00     0.111 C 
HETATM    2  C6  UNL     1      25.238   2.118  52.818  1.00  0.00     0.097 C 
ENDROOT
BRANCH   1   3
HETATM    3  O2  UNL     1      23.338   1.570  53.157  1.00  0.00    -0.318 OA
BRANCH   3   4
HETATM    4  C3  UNL     1      22.584   0.600  52.446  1.00  0.00     0.262 C 
HETATM    5  C4  UNL     1      21.116   0.927  52.442  1.00  0.00     0.071 C 
BRANCH   4   6
HETATM    6  O1  UNL     1      22.850  -0.701  52.865  1.00  0.00    -0.362 OA
BRANCH   6   7
HETATM    7  C2  UNL     1      23.199  -0.773  54.190  1.00  0.00     0.166 C 
HETATM    8  C1  UNL     1      22.204  -1.513  55.055  1.00  0.00     0.033 C 
ENDBRANCH   6   7
ENDBRANCH   4   6
ENDBRANCH   3   4
ENDBRANCH   1   3
BRANCH   1   9
HETATM    9  C10 UNL     1      23.488   3.710  51.892  1.00  0.00     0.124 C 
HETATM   10  C11 UNL     1      23.396   4.921  52.400  1.00  0.00     0.174 C 
HETATM   11  O4  UNL     1      22.798   5.902  51.619  1.00  0.00    -0.358 OA
HETATM   12  C12 UNL     1      21.636   5.542  50.898  1.00  0.00     0.201 C 
HETATM   13  C13 UNL     1      21.849   4.232  50.191  1.00  0.00     0.202 C 
HETATM   14  O5  UNL     1      22.983   3.517  50.622  1.00  0.00    -0.344 OA
ENDBRANCH   1   9
BRANCH   2  15
HETATM   15  C7  UNL     1      26.168   1.210  53.347  1.00  0.00     0.169 A 
HETATM   16  N1  UNL     1      26.291   0.234  52.501  1.00  0.00    -0.218 NA
HETATM   17  C8  UNL     1      27.181  -0.849  52.776  1.00  0.00     0.232 A 
HETATM   18  N2  UNL     1      27.840  -0.825  53.867  1.00  0.00    -0.257 NA
HETATM   19  C9  UNL     1      27.763   0.215  54.860  1.00  0.00     0.327 A 
HETATM   20  O3  UNL     1      26.866   1.247  54.518  1.00  0.00    -0.313 OA
ENDBRANCH   2  15
TORSDOF 6
ENDMDL
MODEL 6
REMARK VINA RESULT:      -6.0      2.482      5.774
REMARK  6 active torsions:
REMARK  status: ('A' for Active; 'I' for Inactive)
REMARK    1  A    between atoms: C2_2  and  O1_3 
REMARK    2  A    between atoms: O1_3  and  C3_4 
REMARK    3  A    between atoms: C3_4  and  O2_6 
REMARK    4  A    between atoms: O2_6  and  C5_7 
REMARK    5  A    between atoms: C5_7  and  C10_15 
REMARK    6  A    between atoms: C6_8  and  C7_9 
ROOT
HETATM    1  C5  UNL     1      24.905   1.587  51.986  1.00  0.00     0.111 C 
HETATM    2  C6  UNL     1      23.977   1.023  52.659  1.00  0.00     0.097 C 
ENDROOT
BRANCH   1   3
HETATM    3  O2  UNL     1      25.950   0.777  52.390  1.00  0.00    -0.318 OA
BRANCH   3   4
HETATM    4  C3  UNL     1      26.762   1.028  53.527  1.00  0.00     0.262 C 
HETATM    5  C4  UNL     1      27.719   2.164  53.290  1.00  0.00     0.071 C 
BRANCH   4   6
HETATM    6  O1  UNL     1      27.388  -0.120  54.005  1.00  0.00    -0.362 OA
BRANCH   6   7
HETATM    7  C2  UNL     1      28.685   0.102  54.394  1.00  0.00     0.166 C 
HETATM    8  C1  UNL     1      29.691  -0.833  53.763  1.00  0.00     0.033 C 
ENDBRANCH   6   7
ENDBRANCH   4   6
ENDBRANCH   3   4
ENDBRANCH   1   3
BRANCH   1   9
HETATM    9  C10 UNL     1      25.052   2.687  51.068  1.00  0.00     0.124 C 
HETATM   10  C11 UNL     1      26.089   2.883  50.281  1.00  0.00     0.174 C 
HETATM   11  O4  UNL     1      26.069   3.999  49.455  1.00  0.00    -0.358 OA
HETATM   12  C12 UNL     1      25.589   5.209  50.008  1.00  0.00     0.201 C 
HETATM   13  C13 UNL     1      24.307   4.966  50.754  1.00  0.00     0.202 C 
HETATM   14  O5  UNL     1      24.027   3.609  51.004  1.00  0.00    -0.344 OA
ENDBRANCH   1   9
BRANCH   2  15
HETATM   15  C7  UNL     1      23.428   0.084  53.545  1.00  0.00     0.169 A 
HETATM   16  N1  UNL     1      22.188  -0.095  53.210  1.00  0.00    -0.218 NA
HETATM   17  C8  UNL     1      21.369  -1.008  53.943  1.00  0.00     0.232 A 
HETATM   18  N2  UNL     1      21.892  -1.631  54.925  1.00  0.00    -0.257 NA
HETATM   19  C9  UNL     1      23.256  -1.492  55.364  1.00  0.00     0.327 A 
HETATM   20  O3  UNL     1      23.999  -0.577  54.592  1.00  0.00    -0.313 OA
ENDBRANCH   2  15
TORSDOF 6
ENDMDL
MODEL 7
REMARK VINA RESULT:      -6.0      1.995      4.957
REMARK  6 active torsions:
REMARK  status: ('A' for Active; 'I' for Inactive)
REMARK    1  A    between atoms: C2_2  and  O1_3 
REMARK    2  A    between atoms: O1_3  and  C3_4 
REMARK    3  A    between atoms: C3_4  and  O2_6 
REMARK    4  A    between atoms: O2_6  and  C5_7 
REMARK    5  A    between atoms: C5_7  and  C10_15 
REMARK    6  A    between atoms: C6_8  and  C7_9 
ROOT
HETATM    1  C5  UNL     1      25.063   2.618  52.135  1.00  0.00     0.111 C 
HETATM    2  C6  UNL     1      26.149   2.024  52.449  1.00  0.00     0.097 C 
ENDROOT
BRANCH   1   3
HETATM    3  O2  UNL     1      24.233   1.987  53.044  1.00  0.00    -0.318 OA
BRANCH   3   4
HETATM    4  C3  UNL     1      23.255   1.020  52.694  1.00  0.00     0.262 C 
HETATM    5  C4  UNL     1      21.888   1.631  52.561  1.00  0.00     0.071 C 
BRANCH   4   6
HETATM    6  O1  UNL     1      23.275  -0.092  53.533  1.00  0.00    -0.362 OA
BRANCH   6   7
HETATM    7  C2  UNL     1      22.095  -0.268  54.212  1.00  0.00     0.166 C 
HETATM    8  C1  UNL     1      21.689  -1.714  54.386  1.00  0.00     0.033 C 
ENDBRANCH   6   7
ENDBRANCH   4   6
ENDBRANCH   3   4
ENDBRANCH   1   3
BRANCH   1   9
HETATM    9  C10 UNL     1      24.615   3.620  51.202  1.00  0.00     0.124 C 
HETATM   10  C11 UNL     1      24.920   3.653  49.922  1.00  0.00     0.174 C 
HETATM   11  O4  UNL     1      24.401   4.695  49.164  1.00  0.00    -0.358 OA
HETATM   12  C12 UNL     1      24.407   5.986  49.742  1.00  0.00     0.201 C 
HETATM   13  C13 UNL     1      23.886   5.926  51.151  1.00  0.00     0.202 C 
HETATM   14  O5  UNL     1      23.801   4.627  51.685  1.00  0.00    -0.344 OA
ENDBRANCH   1   9
BRANCH   2  15
HETATM   15  C7  UNL     1      26.958   1.128  53.164  1.00  0.00     0.169 A 
HETATM   16  N1  UNL     1      26.997   0.015  52.499  1.00  0.00    -0.218 NA
HETATM   17  C8  UNL     1      27.753  -1.092  52.992  1.00  0.00     0.232 A 
HETATM   18  N2  UNL     1      28.379  -0.950  54.094  1.00  0.00    -0.257 NA
HETATM   19  C9  UNL     1      28.390   0.246  54.895  1.00  0.00     0.327 A 
HETATM   20  O3  UNL     1      27.623   1.292  54.343  1.00  0.00    -0.313 OA
ENDBRANCH   2  15
TORSDOF 6
ENDMDL
MODEL 8
REMARK VINA RESULT:      -5.9      2.166      4.552
REMARK  6 active torsions:
REMARK  status: ('A' for Active; 'I' for Inactive)
REMARK    1  A    between atoms: C2_2  and  O1_3 
REMARK    2  A    between atoms: O1_3  and  C3_4 
REMARK    3  A    between atoms: C3_4  and  O2_6 
REMARK    4  A    between atoms: O2_6  and  C5_7 
REMARK    5  A    between atoms: C5_7  and  C10_15 
REMARK    6  A    between atoms: C6_8  and  C7_9 
ROOT
HETATM    1  C5  UNL     1      23.224   1.024  51.906  1.00  0.00     0.111 C 
HETATM    2  C6  UNL     1      24.443   0.982  52.284  1.00  0.00     0.097 C 
ENDROOT
BRANCH   1   3
HETATM    3  O2  UNL     1      22.736   0.031  52.734  1.00  0.00    -0.318 OA
BRANCH   3   4
HETATM    4  C3  UNL     1      21.959   0.271  53.898  1.00  0.00     0.262 C 
HETATM    5  C4  UNL     1      21.991  -0.898  54.842  1.00  0.00     0.071 C 
BRANCH   4   6
HETATM    6  O1  UNL     1      20.666   0.697  53.602  1.00  0.00    -0.362 OA
BRANCH   6   7
HETATM    7  C2  UNL     1      19.832  -0.335  53.254  1.00  0.00     0.166 C 
HETATM    8  C1  UNL     1      18.985  -0.064  52.031  1.00  0.00     0.033 C 
ENDBRANCH   6   7
ENDBRANCH   4   6
ENDBRANCH   3   4
ENDBRANCH   1   3
BRANCH   1   9
HETATM    9  C10 UNL     1      22.412   1.758  50.969  1.00  0.00     0.124 C 
HETATM   10  C11 UNL     1      21.944   2.973  51.162  1.00  0.00     0.174 C 
HETATM   11  O4  UNL     1      21.174   3.534  50.151  1.00  0.00    -0.358 OA
HETATM   12  C12 UNL     1      20.227   2.698  49.514  1.00  0.00     0.201 C 
HETATM   13  C13 UNL     1      20.857   1.381  49.155  1.00  0.00     0.202 C 
HETATM   14  O5  UNL     1      22.099   1.142  49.774  1.00  0.00    -0.344 OA
ENDBRANCH   1   9
BRANCH   2  15
HETATM   15  C7  UNL     1      25.536   0.522  53.033  1.00  0.00     0.169 A 
HETATM   16  N1  UNL     1      26.161  -0.362  52.318  1.00  0.00    -0.218 NA
HETATM   17  C8  UNL     1      27.327  -1.009  52.830  1.00  0.00     0.232 A 
HETATM   18  N2  UNL     1      27.726  -0.693  53.999  1.00  0.00    -0.257 NA
HETATM   19  C9  UNL     1      27.095   0.273  54.859  1.00  0.00     0.327 A 
HETATM   20  O3  UNL     1      25.954   0.868  54.285  1.00  0.00    -0.313 OA
ENDBRANCH   2  15
TORSDOF 6
ENDMDL
MODEL 9
REMARK VINA RESULT:      -5.7      3.085      5.998
REMARK  6 active torsions:
REMARK  status: ('A' for Active; 'I' for Inactive)
REMARK    1  A    between atoms: C2_2  and  O1_3 
REMARK    2  A    between atoms: O1_3  and  C3_4 
REMARK    3  A    between atoms: C3_4  and  O2_6 
REMARK    4  A    between atoms: O2_6  and  C5_7 
REMARK    5  A    between atoms: C5_7  and  C10_15 
REMARK    6  A    between atoms: C6_8  and  C7_9 
ROOT
HETATM    1  C5  UNL     1      25.002   1.913  52.220  1.00  0.00     0.111 C 
HETATM    2  C6  UNL     1      25.088   2.723  51.237  1.00  0.00     0.097 C 
ENDROOT
BRANCH   1   3
HETATM    3  O2  UNL     1      23.626   1.924  52.354  1.00  0.00    -0.318 OA
BRANCH   3   4
HETATM    4  C3  UNL     1      22.810   0.763  52.312  1.00  0.00     0.262 C 
HETATM    5  C4  UNL     1      21.795   0.833  51.204  1.00  0.00     0.071 C 
BRANCH   4   6
HETATM    6  O1  UNL     1      22.246   0.458  53.548  1.00  0.00    -0.362 OA
BRANCH   6   7
HETATM    7  C2  UNL     1      22.645  -0.763  54.029  1.00  0.00     0.166 C 
HETATM    8  C1  UNL     1      21.508  -1.668  54.447  1.00  0.00     0.033 C 
ENDBRANCH   6   7
ENDBRANCH   4   6
ENDBRANCH   3   4
ENDBRANCH   1   3
BRANCH   1   9
HETATM    9  C10 UNL     1      25.883   1.139  53.057  1.00  0.00     0.124 C 
HETATM   10  C11 UNL     1      26.405   1.552  54.192  1.00  0.00     0.174 C 
HETATM   11  O4  UNL     1      27.237   0.674  54.874  1.00  0.00    -0.358 OA
HETATM   12  C12 UNL     1      28.163  -0.073  54.109  1.00  0.00     0.201 C 
HETATM   13  C13 UNL     1      27.480  -0.672  52.910  1.00  0.00     0.202 C 
HETATM   14  O5  UNL     1      26.206  -0.137  52.639  1.00  0.00    -0.344 OA
ENDBRANCH   1   9
BRANCH   2  15
HETATM   15  C7  UNL     1      24.603   3.591  50.246  1.00  0.00     0.169 A 
HETATM   16  N1  UNL     1      25.411   4.603  50.178  1.00  0.00    -0.218 NA
HETATM   17  C8  UNL     1      25.166   5.658  49.246  1.00  0.00     0.232 A 
HETATM   18  N2  UNL     1      24.140   5.572  48.495  1.00  0.00    -0.257 NA
HETATM   19  C9  UNL     1      23.192   4.487  48.505  1.00  0.00     0.327 A 
HETATM   20  O3  UNL     1      23.501   3.487  49.448  1.00  0.00    -0.313 OA
ENDBRANCH   2  15
TORSDOF 6
ENDMDL
