MODEL 1
REMARK VINA RESULT:      -6.1      0.000      0.000
REMARK  10 active torsions:
REMARK  status: ('A' for Active; 'I' for Inactive)
REMARK    1  A    between atoms: C2_2  and  O1_3 
REMARK    2  A    between atoms: O1_3  and  C3_4 
REMARK    3  A    between atoms: C5_6  and  O2_7 
REMARK    4  A    between atoms: C5_6  and  C7_9 
REMARK    5  A    between atoms: C10_14  and  C11_15 
REMARK    6  A    between atoms: C11_15  and  C12_16 
REMARK    7  A    between atoms: C12_16  and  C13_17 
REMARK    8  A    between atoms: C13_17  and  O3_18 
REMARK    9  A    between atoms: C14_19  and  C15_20 
REMARK   10  A    between atoms: C15_20  and  C16_21 
ROOT
HETATM    1  C7  UNL     1      23.057   1.598  52.490  1.00  0.00     0.117 A 
HETATM    2  C8  UNL     1      21.740   0.963  52.688  1.00  0.00     0.167 A 
HETATM    3  N1  UNL     1      21.743  -0.198  53.487  1.00  0.00    -0.282 NA
HETATM    4  C9  UNL     1      22.628  -0.876  54.039  1.00  0.00     0.226 A 
HETATM    5  N2  UNL     1      23.891  -0.286  53.764  1.00  0.00    -0.246 NA
HETATM    6  C10 UNL     1      24.121   0.783  53.088  1.00  0.00     0.054 A 
ENDROOT
BRANCH   6   7
HETATM    7  C11 UNL     1      25.604   0.917  53.069  1.00  0.00    -0.030 C 
HETATM    8  C14 UNL     1      26.604   1.764  53.277  1.00  0.00     0.014 C 
BRANCH   7   9
HETATM    9  C12 UNL     1      26.311  -0.300  52.595  1.00  0.00     0.033 C 
BRANCH   9  10
HETATM   10  C13 UNL     1      26.818  -1.577  52.720  1.00  0.00     0.132 C 
BRANCH  10  11
HETATM   11  O3  UNL     1      27.457  -2.760  52.792  1.00  0.00    -0.373 OA
HETATM   12  H18 UNL     1      26.870  -3.604  52.680  1.00  0.00     0.216 HD
ENDBRANCH  10  11
ENDBRANCH   9  10
ENDBRANCH   7   9
BRANCH   8  13
HETATM   13  C15 UNL     1      28.041   1.407  53.124  1.00  0.00     0.066 C 
BRANCH  13  14
HETATM   14  C16 UNL     1      28.823   2.138  53.835  1.00  0.00     0.419 C 
HETATM   15  F1  UNL     1      29.796   2.511  54.697  1.00  0.00    -0.455 F 
ENDBRANCH  13  14
ENDBRANCH   8  13
ENDBRANCH   6   7
BRANCH   1  16
HETATM   16  C5  UNL     1      23.231   2.318  51.244  1.00  0.00     0.086 C 
HETATM   17  C3  UNL     1      23.117   2.528  49.922  1.00  0.00     0.072 C 
HETATM   18  C4  UNL     1      23.639   3.675  49.128  1.00  0.00     0.079 C 
BRANCH  17  19
HETATM   19  O1  UNL     1      22.503   1.761  48.944  1.00  0.00    -0.354 OA
BRANCH  19  20
HETATM   20  C2  UNL     1      21.388   0.988  48.942  1.00  0.00     0.171 C 
HETATM   21  C1  UNL     1      20.172   1.912  49.125  1.00  0.00     0.034 C 
ENDBRANCH  19  20
ENDBRANCH  17  19
BRANCH  16  22
HETATM   22  O2  UNL     1      23.965   3.464  51.692  1.00  0.00    -0.357 OA
HETATM   23  C6  UNL     1      23.478   4.400  52.623  1.00  0.00     0.209 C 
ENDBRANCH  16  22
ENDBRANCH   1  16
TORSDOF 10
ENDMDL
MODEL 2
REMARK VINA RESULT:      -6.1      1.973      2.427
REMARK  10 active torsions:
REMARK  status: ('A' for Active; 'I' for Inactive)
REMARK    1  A    between atoms: C2_2  and  O1_3 
REMARK    2  A    between atoms: O1_3  and  C3_4 
REMARK    3  A    between atoms: C5_6  and  O2_7 
REMARK    4  A    between atoms: C5_6  and  C7_9 
REMARK    5  A    between atoms: C10_14  and  C11_15 
REMARK    6  A    between atoms: C11_15  and  C12_16 
REMARK    7  A    between atoms: C12_16  and  C13_17 
REMARK    8  A    between atoms: C13_17  and  O3_18 
REMARK    9  A    between atoms: C14_19  and  C15_20 
REMARK   10  A    between atoms: C15_20  and  C16_21 
ROOT
HETATM    1  C7  UNL     1      22.848   1.138  52.963  1.00  0.00     0.117 A 
HETATM    2  C8  UNL     1      21.451   0.921  53.383  1.00  0.00     0.167 A 
HETATM    3  N1  UNL     1      21.248  -0.153  54.274  1.00  0.00    -0.282 NA
HETATM    4  C9  UNL     1      21.980  -1.030  54.766  1.00  0.00     0.226 A 
HETATM    5  N2  UNL     1      23.302  -0.844  54.279  1.00  0.00    -0.246 NA
HETATM    6  C10 UNL     1      23.718   0.079  53.488  1.00  0.00     0.054 A 
ENDROOT
BRANCH   6   7
HETATM    7  C11 UNL     1      25.160  -0.221  53.266  1.00  0.00    -0.030 C 
HETATM    8  C14 UNL     1      26.000  -1.097  52.730  1.00  0.00     0.014 C 
BRANCH   7   9
HETATM    9  C12 UNL     1      26.081   0.753  53.906  1.00  0.00     0.033 C 
BRANCH   9  10
HETATM   10  C13 UNL     1      26.900   1.863  53.933  1.00  0.00     0.132 C 
BRANCH  10  11
HETATM   11  O3  UNL     1      27.713   2.920  54.123  1.00  0.00    -0.373 OA
HETATM   12  H18 UNL     1      27.691   3.651  53.392  1.00  0.00     0.216 HD
ENDBRANCH  10  11
ENDBRANCH   9  10
ENDBRANCH   7   9
BRANCH   8  13
HETATM   13  C15 UNL     1      27.481  -0.952  52.757  1.00  0.00     0.066 C 
BRANCH  13  14
HETATM   14  C16 UNL     1      28.095  -2.059  52.979  1.00  0.00     0.419 C 
HETATM   15  F1  UNL     1      29.087  -2.954  53.188  1.00  0.00    -0.455 F 
ENDBRANCH  13  14
ENDBRANCH   8  13
ENDBRANCH   6   7
BRANCH   1  16
HETATM   16  C5  UNL     1      23.029   1.717  51.646  1.00  0.00     0.086 C 
HETATM   17  C3  UNL     1      22.818   1.854  50.326  1.00  0.00     0.072 C 
HETATM   18  C4  UNL     1      23.473   2.808  49.388  1.00  0.00     0.079 C 
BRANCH  17  19
HETATM   19  O1  UNL     1      21.961   1.167  49.481  1.00  0.00    -0.354 OA
BRANCH  19  20
HETATM   20  C2  UNL     1      20.729   1.449  48.988  1.00  0.00     0.171 C 
HETATM   21  C1  UNL     1      19.694   1.085  50.065  1.00  0.00     0.034 C 
ENDBRANCH  19  20
ENDBRANCH  17  19
BRANCH  16  22
HETATM   22  O2  UNL     1      24.024   2.712  51.921  1.00  0.00    -0.357 OA
HETATM   23  C6  UNL     1      23.860   3.757  52.848  1.00  0.00     0.209 C 
ENDBRANCH  16  22
ENDBRANCH   1  16
TORSDOF 10
ENDMDL
MODEL 3
REMARK VINA RESULT:      -5.9      1.426      2.217
REMARK  10 active torsions:
REMARK  status: ('A' for Active; 'I' for Inactive)
REMARK    1  A    between atoms: C2_2  and  O1_3 
REMARK    2  A    between atoms: O1_3  and  C3_4 
REMARK    3  A    between atoms: C5_6  and  O2_7 
REMARK    4  A    between atoms: C5_6  and  C7_9 
REMARK    5  A    between atoms: C10_14  and  C11_15 
REMARK    6  A    between atoms: C11_15  and  C12_16 
REMARK    7  A    between atoms: C12_16  and  C13_17 
REMARK    8  A    between atoms: C13_17  and  O3_18 
REMARK    9  A    between atoms: C14_19  and  C15_20 
REMARK   10  A    between atoms: C15_20  and  C16_21 
ROOT
HETATM    1  C7  UNL     1      23.173   1.784  52.372  1.00  0.00     0.117 A 
HETATM    2  C8  UNL     1      21.841   1.150  52.390  1.00  0.00     0.167 A 
HETATM    3  N1  UNL     1      21.796  -0.146  52.943  1.00  0.00    -0.282 NA
HETATM    4  C9  UNL     1      22.649  -0.938  53.384  1.00  0.00     0.226 A 
HETATM    5  N2  UNL     1      23.929  -0.331  53.279  1.00  0.00    -0.246 NA
HETATM    6  C10 UNL     1      24.201   0.845  52.838  1.00  0.00     0.054 A 
ENDROOT
BRANCH   6   7
HETATM    7  C11 UNL     1      25.685   0.950  52.903  1.00  0.00    -0.030 C 
HETATM    8  C14 UNL     1      26.687   1.771  53.188  1.00  0.00     0.014 C 
BRANCH   7   9
HETATM    9  C12 UNL     1      26.394  -0.268  52.433  1.00  0.00     0.033 C 
BRANCH   9  10
HETATM   10  C13 UNL     1      26.895  -1.547  52.560  1.00  0.00     0.132 C 
BRANCH  10  11
HETATM   11  O3  UNL     1      27.426  -2.753  52.839  1.00  0.00    -0.373 OA
HETATM   12  H18 UNL     1      26.756  -3.535  52.940  1.00  0.00     0.216 HD
ENDBRANCH  10  11
ENDBRANCH   9  10
ENDBRANCH   7   9
BRANCH   8  13
HETATM   13  C15 UNL     1      28.124   1.389  53.103  1.00  0.00     0.066 C 
BRANCH  13  14
HETATM   14  C16 UNL     1      28.887   2.123  53.831  1.00  0.00     0.419 C 
HETATM   15  F1  UNL     1      29.806   2.499  54.749  1.00  0.00    -0.455 F 
ENDBRANCH  13  14
ENDBRANCH   8  13
ENDBRANCH   6   7
BRANCH   1  16
HETATM   16  C5  UNL     1      23.408   2.732  51.301  1.00  0.00     0.086 C 
HETATM   17  C3  UNL     1      24.097   3.308  50.302  1.00  0.00     0.072 C 
HETATM   18  C4  UNL     1      23.698   4.478  49.470  1.00  0.00     0.079 C 
BRANCH  17  19
HETATM   19  O1  UNL     1      25.340   2.995  49.775  1.00  0.00    -0.354 OA
BRANCH  19  20
HETATM   20  C2  UNL     1      26.603   3.365  50.107  1.00  0.00     0.171 C 
HETATM   21  C1  UNL     1      27.111   4.335  49.027  1.00  0.00     0.034 C 
ENDBRANCH  19  20
ENDBRANCH  17  19
BRANCH  16  22
HETATM   22  O2  UNL     1      22.206   3.511  51.359  1.00  0.00    -0.357 OA
HETATM   23  C6  UNL     1      21.982   4.547  52.283  1.00  0.00     0.209 C 
ENDBRANCH  16  22
ENDBRANCH   1  16
TORSDOF 10
ENDMDL
MODEL 4
REMARK VINA RESULT:      -5.8      2.893      5.743
REMARK  10 active torsions:
REMARK  status: ('A' for Active; 'I' for Inactive)
REMARK    1  A    between atoms: C2_2  and  O1_3 
REMARK    2  A    between atoms: O1_3  and  C3_4 
REMARK    3  A    between atoms: C5_6  and  O2_7 
REMARK    4  A    between atoms: C5_6  and  C7_9 
REMARK    5  A    between atoms: C10_14  and  C11_15 
REMARK    6  A    between atoms: C11_15  and  C12_16 
REMARK    7  A    between atoms: C12_16  and  C13_17 
REMARK    8  A    between atoms: C13_17  and  O3_18 
REMARK    9  A    between atoms: C14_19  and  C15_20 
REMARK   10  A    between atoms: C15_20  and  C16_21 
ROOT
HETATM    1  C7  UNL     1      23.409  -0.364  53.437  1.00  0.00     0.117 A 
HETATM    2  C8  UNL     1      23.171  -1.116  54.683  1.00  0.00     0.167 A 
HETATM    3  N1  UNL     1      21.840  -1.530  54.894  1.00  0.00    -0.282 NA
HETATM    4  C9  UNL     1      20.766  -1.360  54.290  1.00  0.00     0.226 A 
HETATM    5  N2  UNL     1      21.014  -0.564  53.139  1.00  0.00    -0.246 NA
HETATM    6  C10 UNL     1      22.144  -0.104  52.738  1.00  0.00     0.054 A 
ENDROOT
BRANCH   6   7
HETATM    7  C11 UNL     1      21.829   0.694  51.521  1.00  0.00    -0.030 C 
HETATM    8  C14 UNL     1      22.301   1.080  50.343  1.00  0.00     0.014 C 
BRANCH   7   9
HETATM    9  C12 UNL     1      20.530   1.412  51.595  1.00  0.00     0.033 C 
BRANCH   9  10
HETATM   10  C13 UNL     1      19.711   2.482  51.892  1.00  0.00     0.132 C 
BRANCH  10  11
HETATM   11  O3  UNL     1      18.810   3.415  52.253  1.00  0.00    -0.373 OA
HETATM   12  H18 UNL     1      18.468   3.367  53.228  1.00  0.00     0.216 HD
ENDBRANCH  10  11
ENDBRANCH   9  10
ENDBRANCH   7   9
BRANCH   8  13
HETATM   13  C15 UNL     1      21.552   1.946  49.391  1.00  0.00     0.066 C 
BRANCH  13  14
HETATM   14  C16 UNL     1      22.012   1.898  48.192  1.00  0.00     0.419 C 
HETATM   15  F1  UNL     1      22.851   1.707  47.149  1.00  0.00    -0.455 F 
ENDBRANCH  13  14
ENDBRANCH   8  13
ENDBRANCH   6   7
BRANCH   1  16
HETATM   16  C5  UNL     1      24.492   0.600  53.477  1.00  0.00     0.086 C 
HETATM   17  C3  UNL     1      25.053   1.819  53.407  1.00  0.00     0.072 C 
HETATM   18  C4  UNL     1      26.493   2.173  53.543  1.00  0.00     0.079 C 
BRANCH  17  19
HETATM   19  O1  UNL     1      24.474   3.059  53.191  1.00  0.00    -0.354 OA
BRANCH  19  20
HETATM   20  C2  UNL     1      24.106   3.723  52.065  1.00  0.00     0.171 C 
HETATM   21  C1  UNL     1      22.797   4.471  52.364  1.00  0.00     0.034 C 
ENDBRANCH  19  20
ENDBRANCH  17  19
BRANCH  16  22
HETATM   22  O2  UNL     1      25.612  -0.260  53.719  1.00  0.00    -0.357 OA
HETATM   23  C6  UNL     1      26.175  -1.114  52.752  1.00  0.00     0.209 C 
ENDBRANCH  16  22
ENDBRANCH   1  16
TORSDOF 10
ENDMDL
MODEL 5
REMARK VINA RESULT:      -5.8      2.650      4.309
REMARK  10 active torsions:
REMARK  status: ('A' for Active; 'I' for Inactive)
REMARK    1  A    between atoms: C2_2  and  O1_3 
REMARK    2  A    between atoms: O1_3  and  C3_4 
REMARK    3  A    between atoms: C5_6  and  O2_7 
REMARK    4  A    between atoms: C5_6  and  C7_9 
REMARK    5  A    between atoms: C10_14  and  C11_15 
REMARK    6  A    between atoms: C11_15  and  C12_16 
REMARK    7  A    between atoms: C12_16  and  C13_17 
REMARK    8  A    between atoms: C13_17  and  O3_18 
REMARK    9  A    between atoms: C14_19  and  C15_20 
REMARK   10  A    between atoms: C15_20  and  C16_21 
ROOT
HETATM    1  C7  UNL     1      24.160   0.628  52.931  1.00  0.00     0.117 A 
HETATM    2  C8  UNL     1      24.511  -0.543  53.758  1.00  0.00     0.167 A 
HETATM    3  N1  UNL     1      25.892  -0.786  53.906  1.00  0.00    -0.282 NA
HETATM    4  C9  UNL     1      26.924  -0.267  53.445  1.00  0.00     0.226 A 
HETATM    5  N2  UNL     1      26.551   0.804  52.589  1.00  0.00    -0.246 NA
HETATM    6  C10 UNL     1      25.363   1.219  52.333  1.00  0.00     0.054 A 
ENDROOT
BRANCH   6   7
HETATM    7  C11 UNL     1      25.541   2.323  51.349  1.00  0.00    -0.030 C 
HETATM    8  C14 UNL     1      26.242   2.710  50.291  1.00  0.00     0.014 C 
BRANCH   7   9
HETATM    9  C12 UNL     1      24.683   3.506  51.613  1.00  0.00     0.033 C 
BRANCH   9  10
HETATM   10  C13 UNL     1      23.739   4.233  52.309  1.00  0.00     0.132 C 
BRANCH  10  11
HETATM   11  O3  UNL     1      22.778   5.011  52.843  1.00  0.00    -0.373 OA
HETATM   12  H18 UNL     1      22.238   5.590  52.179  1.00  0.00     0.216 HD
ENDBRANCH  10  11
ENDBRANCH   9  10
ENDBRANCH   7   9
BRANCH   8  13
HETATM   13  C15 UNL     1      26.036   4.006  49.587  1.00  0.00     0.066 C 
BRANCH  13  14
HETATM   14  C16 UNL     1      27.109   4.467  49.050  1.00  0.00     0.419 C 
HETATM   15  F1  UNL     1      28.244   4.545  48.319  1.00  0.00    -0.455 F 
ENDBRANCH  13  14
ENDBRANCH   8  13
ENDBRANCH   6   7
BRANCH   1  16
HETATM   16  C5  UNL     1      22.895   0.548  52.227  1.00  0.00     0.086 C 
HETATM   17  C3  UNL     1      22.032   0.781  51.225  1.00  0.00     0.072 C 
HETATM   18  C4  UNL     1      20.609   0.353  51.122  1.00  0.00     0.079 C 
BRANCH  17  19
HETATM   19  O1  UNL     1      22.208   1.470  50.035  1.00  0.00    -0.354 OA
BRANCH  19  20
HETATM   20  C2  UNL     1      21.587   1.405  48.830  1.00  0.00     0.171 C 
HETATM   21  C1  UNL     1      22.512   2.054  47.786  1.00  0.00     0.034 C 
ENDBRANCH  19  20
ENDBRANCH  17  19
BRANCH  16  22
HETATM   22  O2  UNL     1      22.114  -0.213  53.158  1.00  0.00    -0.357 OA
HETATM   23  C6  UNL     1      21.331   0.354  54.180  1.00  0.00     0.209 C 
ENDBRANCH  16  22
ENDBRANCH   1  16
TORSDOF 10
ENDMDL
MODEL 6
REMARK VINA RESULT:      -5.7      2.872      4.796
REMARK  10 active torsions:
REMARK  status: ('A' for Active; 'I' for Inactive)
REMARK    1  A    between atoms: C2_2  and  O1_3 
REMARK    2  A    between atoms: O1_3  and  C3_4 
REMARK    3  A    between atoms: C5_6  and  O2_7 
REMARK    4  A    between atoms: C5_6  and  C7_9 
REMARK    5  A    between atoms: C10_14  and  C11_15 
REMARK    6  A    between atoms: C11_15  and  C12_16 
REMARK    7  A    between atoms: C12_16  and  C13_17 
REMARK    8  A    between atoms: C13_17  and  O3_18 
REMARK    9  A    between atoms: C14_19  and  C15_20 
REMARK   10  A    between atoms: C15_20  and  C16_21 
ROOT
HETATM    1  C7  UNL     1      22.420   1.928  52.328  1.00  0.00     0.117 A 
HETATM    2  C8  UNL     1      21.647   3.183  52.386  1.00  0.00     0.167 A 
HETATM    3  N1  UNL     1      22.415   4.366  52.401  1.00  0.00    -0.282 NA
HETATM    4  C9  UNL     1      23.634   4.615  52.436  1.00  0.00     0.226 A 
HETATM    5  N2  UNL     1      24.349   3.388  52.461  1.00  0.00    -0.246 NA
HETATM    6  C10 UNL     1      23.860   2.200  52.424  1.00  0.00     0.054 A 
ENDROOT
BRANCH   6   7
HETATM    7  C11 UNL     1      25.036   1.293  52.524  1.00  0.00    -0.030 C 
HETATM    8  C14 UNL     1      25.433   0.035  52.379  1.00  0.00     0.014 C 
BRANCH   7   9
HETATM    9  C12 UNL     1      26.266   1.959  53.025  1.00  0.00     0.033 C 
BRANCH   9  10
HETATM   10  C13 UNL     1      27.572   2.394  52.938  1.00  0.00     0.132 C 
BRANCH  10  11
HETATM   11  O3  UNL     1      28.815   2.913  52.988  1.00  0.00    -0.373 OA
HETATM   12  H18 UNL     1      29.333   2.944  52.093  1.00  0.00     0.216 HD
ENDBRANCH  10  11
ENDBRANCH   9  10
ENDBRANCH   7   9
BRANCH   8  13
HETATM   13  C15 UNL     1      26.830  -0.427  52.605  1.00  0.00     0.066 C 
BRANCH  13  14
HETATM   14  C16 UNL     1      26.940  -1.707  52.643  1.00  0.00     0.419 C 
HETATM   15  F1  UNL     1      27.425  -2.957  52.464  1.00  0.00    -0.455 F 
ENDBRANCH  13  14
ENDBRANCH   8  13
ENDBRANCH   6   7
BRANCH   1  16
HETATM   16  C5  UNL     1      21.800   0.774  52.949  1.00  0.00     0.086 C 
HETATM   17  C3  UNL     1      21.648  -0.189  53.873  1.00  0.00     0.072 C 
HETATM   18  C4  UNL     1      20.628  -1.274  53.908  1.00  0.00     0.079 C 
BRANCH  17  19
HETATM   19  O1  UNL     1      22.377  -0.447  55.023  1.00  0.00    -0.354 OA
BRANCH  19  20
HETATM   20  C2  UNL     1      23.036  -1.545  55.472  1.00  0.00     0.171 C 
HETATM   21  C1  UNL     1      24.514  -1.164  55.665  1.00  0.00     0.034 C 
ENDBRANCH  19  20
ENDBRANCH  17  19
BRANCH  16  22
HETATM   22  O2  UNL     1      20.742   0.502  52.021  1.00  0.00    -0.357 OA
HETATM   23  C6  UNL     1      20.921   0.392  50.630  1.00  0.00     0.209 C 
ENDBRANCH  16  22
ENDBRANCH   1  16
TORSDOF 10
ENDMDL
MODEL 7
REMARK VINA RESULT:      -5.7      2.010      3.363
REMARK  10 active torsions:
REMARK  status: ('A' for Active; 'I' for Inactive)
REMARK    1  A    between atoms: C2_2  and  O1_3 
REMARK    2  A    between atoms: O1_3  and  C3_4 
REMARK    3  A    between atoms: C5_6  and  O2_7 
REMARK    4  A    between atoms: C5_6  and  C7_9 
REMARK    5  A    between atoms: C10_14  and  C11_15 
REMARK    6  A    between atoms: C11_15  and  C12_16 
REMARK    7  A    between atoms: C12_16  and  C13_17 
REMARK    8  A    between atoms: C13_17  and  O3_18 
REMARK    9  A    between atoms: C14_19  and  C15_20 
REMARK   10  A    between atoms: C15_20  and  C16_21 
ROOT
HETATM    1  C7  UNL     1      21.949   0.327  53.127  1.00  0.00     0.117 A 
HETATM    2  C8  UNL     1      20.965  -0.506  53.844  1.00  0.00     0.167 A 
HETATM    3  N1  UNL     1      21.493  -1.322  54.865  1.00  0.00    -0.282 NA
HETATM    4  C9  UNL     1      22.638  -1.562  55.287  1.00  0.00     0.226 A 
HETATM    5  N2  UNL     1      23.571  -0.808  54.525  1.00  0.00    -0.246 NA
HETATM    6  C10 UNL     1      23.313   0.017  53.573  1.00  0.00     0.054 A 
ENDROOT
BRANCH   6   7
HETATM    7  C11 UNL     1      24.644   0.486  53.096  1.00  0.00    -0.030 C 
HETATM    8  C14 UNL     1      25.827   0.078  52.657  1.00  0.00     0.014 C 
BRANCH   7   9
HETATM    9  C12 UNL     1      24.817   1.960  53.155  1.00  0.00     0.033 C 
BRANCH   9  10
HETATM   10  C13 UNL     1      24.381   3.263  53.271  1.00  0.00     0.132 C 
BRANCH  10  11
HETATM   11  O3  UNL     1      23.962   4.543  53.218  1.00  0.00    -0.373 OA
HETATM   12  H18 UNL     1      23.006   4.725  53.569  1.00  0.00     0.216 HD
ENDBRANCH  10  11
ENDBRANCH   9  10
ENDBRANCH   7   9
BRANCH   8  13
HETATM   13  C15 UNL     1      26.930   0.997  52.263  1.00  0.00     0.066 C 
BRANCH  13  14
HETATM   14  C16 UNL     1      28.004   0.823  52.947  1.00  0.00     0.419 C 
HETATM   15  F1  UNL     1      29.225   0.381  53.323  1.00  0.00    -0.455 F 
ENDBRANCH  13  14
ENDBRANCH   8  13
ENDBRANCH   6   7
BRANCH   1  16
HETATM   16  C5  UNL     1      21.630   0.638  51.748  1.00  0.00     0.086 C 
HETATM   17  C3  UNL     1      21.843   1.151  50.525  1.00  0.00     0.072 C 
HETATM   18  C4  UNL     1      20.921   1.145  49.355  1.00  0.00     0.079 C 
BRANCH  17  19
HETATM   19  O1  UNL     1      22.946   1.816  50.014  1.00  0.00    -0.354 OA
BRANCH  19  20
HETATM   20  C2  UNL     1      23.249   3.133  49.877  1.00  0.00     0.171 C 
HETATM   21  C1  UNL     1      24.751   3.242  49.565  1.00  0.00     0.034 C 
ENDBRANCH  19  20
ENDBRANCH  17  19
BRANCH  16  22
HETATM   22  O2  UNL     1      20.312   0.086  51.643  1.00  0.00    -0.357 OA
HETATM   23  C6  UNL     1      19.129   0.827  51.820  1.00  0.00     0.209 C 
ENDBRANCH  16  22
ENDBRANCH   1  16
TORSDOF 10
ENDMDL
MODEL 8
REMARK VINA RESULT:      -5.7      2.928      5.514
REMARK  10 active torsions:
REMARK  status: ('A' for Active; 'I' for Inactive)
REMARK    1  A    between atoms: C2_2  and  O1_3 
REMARK    2  A    between atoms: O1_3  and  C3_4 
REMARK    3  A    between atoms: C5_6  and  O2_7 
REMARK    4  A    between atoms: C5_6  and  C7_9 
REMARK    5  A    between atoms: C10_14  and  C11_15 
REMARK    6  A    between atoms: C11_15  and  C12_16 
REMARK    7  A    between atoms: C12_16  and  C13_17 
REMARK    8  A    between atoms: C13_17  and  O3_18 
REMARK    9  A    between atoms: C14_19  and  C15_20 
REMARK   10  A    between atoms: C15_20  and  C16_21 
ROOT
HETATM    1  C7  UNL     1      23.726  -0.224  53.138  1.00  0.00     0.117 A 
HETATM    2  C8  UNL     1      23.293  -0.863  54.396  1.00  0.00     0.167 A 
HETATM    3  N1  UNL     1      21.987  -0.543  54.818  1.00  0.00    -0.282 NA
HETATM    4  C9  UNL     1      21.097   0.220  54.402  1.00  0.00     0.226 A 
HETATM    5  N2  UNL     1      21.573   0.882  53.238  1.00  0.00    -0.246 NA
HETATM    6  C10 UNL     1      22.711   0.724  52.662  1.00  0.00     0.054 A 
ENDROOT
BRANCH   6   7
HETATM    7  C11 UNL     1      22.708   1.687  51.527  1.00  0.00    -0.030 C 
HETATM    8  C14 UNL     1      22.668   1.781  50.204  1.00  0.00     0.014 C 
BRANCH   7   9
HETATM    9  C12 UNL     1      22.860   3.105  51.943  1.00  0.00     0.033 C 
BRANCH   9  10
HETATM   10  C13 UNL     1      23.366   4.132  52.712  1.00  0.00     0.132 C 
BRANCH  10  11
HETATM   11  O3  UNL     1      23.878   5.219  53.321  1.00  0.00    -0.373 OA
HETATM   12  H18 UNL     1      24.564   5.768  52.775  1.00  0.00     0.216 HD
ENDBRANCH  10  11
ENDBRANCH   9  10
ENDBRANCH   7   9
BRANCH   8  13
HETATM   13  C15 UNL     1      22.682   3.072  49.462  1.00  0.00     0.066 C 
BRANCH  13  14
HETATM   14  C16 UNL     1      22.687   2.923  48.185  1.00  0.00     0.419 C 
HETATM   15  F1  UNL     1      22.481   2.398  46.956  1.00  0.00    -0.455 F 
ENDBRANCH  13  14
ENDBRANCH   8  13
ENDBRANCH   6   7
BRANCH   1  16
HETATM   16  C5  UNL     1      25.148   0.026  53.013  1.00  0.00     0.086 C 
HETATM   17  C3  UNL     1      26.260   0.540  52.462  1.00  0.00     0.072 C 
HETATM   18  C4  UNL     1      27.672   0.353  52.899  1.00  0.00     0.079 C 
BRANCH  17  19
HETATM   19  O1  UNL     1      26.412   1.365  51.358  1.00  0.00    -0.354 OA
BRANCH  19  20
HETATM   20  C2  UNL     1      26.493   2.712  51.216  1.00  0.00     0.171 C 
HETATM   21  C1  UNL     1      26.415   3.035  49.714  1.00  0.00     0.034 C 
ENDBRANCH  19  20
ENDBRANCH  17  19
BRANCH  16  22
HETATM   22  O2  UNL     1      25.656  -0.732  54.118  1.00  0.00    -0.357 OA
HETATM   23  C6  UNL     1      26.120  -0.164  55.319  1.00  0.00     0.209 C 
ENDBRANCH  16  22
ENDBRANCH   1  16
TORSDOF 10
ENDMDL
MODEL 9
REMARK VINA RESULT:      -5.6      3.151      4.820
REMARK  10 active torsions:
REMARK  status: ('A' for Active; 'I' for Inactive)
REMARK    1  A    between atoms: C2_2  and  O1_3 
REMARK    2  A    between atoms: O1_3  and  C3_4 
REMARK    3  A    between atoms: C5_6  and  O2_7 
REMARK    4  A    between atoms: C5_6  and  C7_9 
REMARK    5  A    between atoms: C10_14  and  C11_15 
REMARK    6  A    between atoms: C11_15  and  C12_16 
REMARK    7  A    between atoms: C12_16  and  C13_17 
REMARK    8  A    between atoms: C13_17  and  O3_18 
REMARK    9  A    between atoms: C14_19  and  C15_20 
REMARK   10  A    between atoms: C15_20  and  C16_21 
ROOT
HETATM    1  C7  UNL     1      23.771   2.396  50.764  1.00  0.00     0.117 A 
HETATM    2  C8  UNL     1      24.758   3.260  50.090  1.00  0.00     0.167 A 
HETATM    3  N1  UNL     1      26.103   3.033  50.447  1.00  0.00    -0.282 NA
HETATM    4  C9  UNL     1      26.677   2.292  51.265  1.00  0.00     0.226 A 
HETATM    5  N2  UNL     1      25.695   1.531  51.955  1.00  0.00    -0.246 NA
HETATM    6  C10 UNL     1      24.423   1.553  51.774  1.00  0.00     0.054 A 
ENDROOT
BRANCH   6   7
HETATM    7  C11 UNL     1      23.871   0.609  52.785  1.00  0.00    -0.030 C 
HETATM    8  C14 UNL     1      22.747   0.168  53.336  1.00  0.00     0.014 C 
BRANCH   7   9
HETATM    9  C12 UNL     1      24.911  -0.117  53.558  1.00  0.00     0.033 C 
BRANCH   9  10
HETATM   10  C13 UNL     1      26.001  -0.215  54.397  1.00  0.00     0.132 C 
BRANCH  10  11
HETATM   11  O3  UNL     1      27.160  -0.304  55.080  1.00  0.00    -0.373 OA
HETATM   12  H18 UNL     1      27.694  -1.181  54.960  1.00  0.00     0.216 HD
ENDBRANCH  10  11
ENDBRANCH   9  10
ENDBRANCH   7   9
BRANCH   8  13
HETATM   13  C15 UNL     1      22.695  -0.877  54.394  1.00  0.00     0.066 C 
BRANCH  13  14
HETATM   14  C16 UNL     1      21.617  -1.576  54.364  1.00  0.00     0.419 C 
HETATM   15  F1  UNL     1      20.307  -1.911  54.382  1.00  0.00    -0.455 F 
ENDBRANCH  13  14
ENDBRANCH   8  13
ENDBRANCH   6   7
BRANCH   1  16
HETATM   16  C5  UNL     1      22.455   2.972  50.959  1.00  0.00     0.086 C 
HETATM   17  C3  UNL     1      21.570   3.927  51.291  1.00  0.00     0.072 C 
HETATM   18  C4  UNL     1      20.084   3.841  51.286  1.00  0.00     0.079 C 
BRANCH  17  19
HETATM   19  O1  UNL     1      21.779   5.227  51.725  1.00  0.00    -0.354 OA
BRANCH  19  20
HETATM   20  C2  UNL     1      21.996   6.396  51.070  1.00  0.00     0.171 C 
HETATM   21  C1  UNL     1      23.514   6.633  51.016  1.00  0.00     0.034 C 
ENDBRANCH  19  20
ENDBRANCH  17  19
BRANCH  16  22
HETATM   22  O2  UNL     1      21.618   1.867  50.596  1.00  0.00    -0.357 OA
HETATM   23  C6  UNL     1      21.678   1.204  49.357  1.00  0.00     0.209 C 
ENDBRANCH  16  22
ENDBRANCH   1  16
TORSDOF 10
ENDMDL
