MODEL 1
REMARK VINA RESULT:      -8.2      0.000      0.000
REMARK  5 active torsions:
REMARK  status: ('A' for Active; 'I' for Inactive)
REMARK    1  A    between atoms: O1_2  and  C2_3 
REMARK    2  A    between atoms: C5_6  and  N1_7 
REMARK    3  A    between atoms: C9_14  and  C10_15 
REMARK    4  A    between atoms: C10_15  and  N5_16 
REMARK    5  A    between atoms: C13_19  and  N6_20 
ROOT
HETATM    1  N1  UNL     1      23.736  -0.056  53.560  1.00  0.00    -0.237 N 
HETATM    2  N2  UNL     1      23.377  -0.885  54.658  1.00  0.00    -0.284 N 
HETATM    3  C6  UNL     1      22.010  -1.224  54.908  1.00  0.00     0.246 A 
HETATM    4  N3  UNL     1      21.092  -0.763  54.117  1.00  0.00    -0.160 NA
HETATM    5  N4  UNL     1      21.395   0.053  53.029  1.00  0.00    -0.225 N 
HETATM    6  C7  UNL     1      20.667   0.652  52.047  1.00  0.00     0.121 A 
HETATM    7  C8  UNL     1      21.506   1.355  51.187  1.00  0.00     0.032 A 
HETATM    8  C9  UNL     1      22.805   1.191  51.646  1.00  0.00     0.019 A 
HETATM    9  C16 UNL     1      22.662   0.401  52.751  1.00  0.00     0.158 A 
HETATM   10  H6  UNL     1      24.059  -1.301  55.347  1.00  0.00     0.188 HD
ENDROOT
BRANCH   8  11
HETATM   11  C10 UNL     1      23.962   1.827  50.984  1.00  0.00     0.315 C 
BRANCH  11  12
HETATM   12  N5  UNL     1      23.640   3.203  50.705  1.00  0.00     0.092 N 
HETATM   13  C11 UNL     1      24.042   3.639  49.409  1.00  0.00     0.275 C 
HETATM   14  C12 UNL     1      23.926   5.083  49.134  1.00  0.00     0.065 C 
HETATM   15  C13 UNL     1      24.229   5.986  50.294  1.00  0.00     0.221 C 
HETATM   16  C14 UNL     1      23.570   5.502  51.560  1.00  0.00     0.065 C 
HETATM   17  C15 UNL     1      23.963   4.089  51.778  1.00  0.00     0.275 C 
BRANCH  15  18
HETATM   18  N6  UNL     1      25.643   6.200  50.427  1.00  0.00     0.083 N 
HETATM   19  H17 UNL     1      25.992   5.916  51.366  1.00  0.00     0.313 HD
HETATM   20  H18 UNL     1      25.819   7.225  50.333  1.00  0.00     0.313 HD
ENDBRANCH  15  18
ENDBRANCH  11  12
ENDBRANCH   8  11
BRANCH   1  21
HETATM   21  C5  UNL     1      25.137   0.147  53.470  1.00  0.00     0.060 A 
HETATM   22  C4  UNL     1      25.712  -1.066  53.055  1.00  0.00     0.034 A 
HETATM   23  C3  UNL     1      27.098  -1.198  52.890  1.00  0.00     0.041 A 
HETATM   24  C2  UNL     1      27.942  -0.121  53.138  1.00  0.00     0.090 A 
HETATM   25  C18 UNL     1      27.353   1.056  53.544  1.00  0.00     0.069 A 
HETATM   26  C17 UNL     1      25.996   1.198  53.709  1.00  0.00     0.058 A 
HETATM   27 CL1  UNL     1      28.271   2.515  53.899  1.00  0.00    -0.081 Cl
BRANCH  24  28
HETATM   28  O1  UNL     1      29.322  -0.167  53.001  1.00  0.00    -0.354 OA
HETATM   29  C1  UNL     1      30.098  -1.054  53.824  1.00  0.00     0.210 C 
ENDBRANCH  24  28
ENDBRANCH   1  21
TORSDOF 5
ENDMDL
MODEL 2
REMARK VINA RESULT:      -8.1      1.873      5.194
REMARK  5 active torsions:
REMARK  status: ('A' for Active; 'I' for Inactive)
REMARK    1  A    between atoms: O1_2  and  C2_3 
REMARK    2  A    between atoms: C5_6  and  N1_7 
REMARK    3  A    between atoms: C9_14  and  C10_15 
REMARK    4  A    between atoms: C10_15  and  N5_16 
REMARK    5  A    between atoms: C13_19  and  N6_20 
ROOT
HETATM    1  N1  UNL     1      26.024   2.922  51.029  1.00  0.00    -0.237 N 
HETATM    2  N2  UNL     1      26.831   3.319  49.928  1.00  0.00    -0.284 N 
HETATM    3  C6  UNL     1      26.464   4.435  49.111  1.00  0.00     0.246 A 
HETATM    4  N3  UNL     1      25.377   5.087  49.387  1.00  0.00    -0.160 NA
HETATM    5  N4  UNL     1      24.555   4.736  50.455  1.00  0.00    -0.225 N 
HETATM    6  C7  UNL     1      23.400   5.229  50.979  1.00  0.00     0.121 A 
HETATM    7  C8  UNL     1      23.016   4.481  52.089  1.00  0.00     0.032 A 
HETATM    8  C9  UNL     1      23.964   3.483  52.265  1.00  0.00     0.019 A 
HETATM    9  C16 UNL     1      24.855   3.697  51.252  1.00  0.00     0.158 A 
HETATM   10  H6  UNL     1      27.727   2.846  49.636  1.00  0.00     0.188 HD
ENDROOT
BRANCH   8  11
HETATM   11  C10 UNL     1      23.860   2.478  53.343  1.00  0.00     0.315 C 
BRANCH  11  12
HETATM   12  N5  UNL     1      23.019   1.398  52.893  1.00  0.00     0.092 N 
HETATM   13  C11 UNL     1      21.639   1.743  52.797  1.00  0.00     0.275 C 
HETATM   14  C12 UNL     1      20.700   0.636  52.538  1.00  0.00     0.065 C 
HETATM   15  C13 UNL     1      21.044  -0.667  53.197  1.00  0.00     0.221 C 
HETATM   16  C14 UNL     1      22.507  -0.996  53.044  1.00  0.00     0.065 C 
HETATM   17  C15 UNL     1      23.297   0.156  53.540  1.00  0.00     0.275 C 
BRANCH  15  18
HETATM   18  N6  UNL     1      20.587  -0.696  54.558  1.00  0.00     0.083 N 
HETATM   19  H17 UNL     1      21.257  -1.194  55.182  1.00  0.00     0.313 HD
HETATM   20  H18 UNL     1      19.692  -1.233  54.581  1.00  0.00     0.313 HD
ENDBRANCH  15  18
ENDBRANCH  11  12
ENDBRANCH   8  11
BRANCH   1  21
HETATM   21  C5  UNL     1      26.566   1.812  51.725  1.00  0.00     0.060 A 
HETATM   22  C4  UNL     1      27.513   2.307  52.638  1.00  0.00     0.034 A 
HETATM   23  C3  UNL     1      28.246   1.448  53.468  1.00  0.00     0.041 A 
HETATM   24  C2  UNL     1      28.050   0.073  53.406  1.00  0.00     0.090 A 
HETATM   25  C18 UNL     1      27.116  -0.387  52.504  1.00  0.00     0.069 A 
HETATM   26  C17 UNL     1      26.392   0.445  51.684  1.00  0.00     0.058 A 
HETATM   27 CL1  UNL     1      26.743  -2.095  52.295  1.00  0.00    -0.081 Cl
BRANCH  24  28
HETATM   28  O1  UNL     1      28.733  -0.846  54.190  1.00  0.00    -0.354 OA
HETATM   29  C1  UNL     1      30.061  -1.256  53.827  1.00  0.00     0.210 C 
ENDBRANCH  24  28
ENDBRANCH   1  21
TORSDOF 5
ENDMDL
MODEL 3
REMARK VINA RESULT:      -8.0      2.674      5.935
REMARK  5 active torsions:
REMARK  status: ('A' for Active; 'I' for Inactive)
REMARK    1  A    between atoms: O1_2  and  C2_3 
REMARK    2  A    between atoms: C5_6  and  N1_7 
REMARK    3  A    between atoms: C9_14  and  C10_15 
REMARK    4  A    between atoms: C10_15  and  N5_16 
REMARK    5  A    between atoms: C13_19  and  N6_20 
ROOT
HETATM    1  N1  UNL     1      22.863   2.126  50.857  1.00  0.00    -0.237 N 
HETATM    2  N2  UNL     1      21.717   2.162  50.015  1.00  0.00    -0.284 N 
HETATM    3  C6  UNL     1      20.681   1.183  50.141  1.00  0.00     0.246 A 
HETATM    4  N3  UNL     1      20.798   0.254  51.038  1.00  0.00    -0.160 NA
HETATM    5  N4  UNL     1      21.901   0.179  51.885  1.00  0.00    -0.225 N 
HETATM    6  C7  UNL     1      22.277  -0.647  52.900  1.00  0.00     0.121 A 
HETATM    7  C8  UNL     1      23.501  -0.240  53.425  1.00  0.00     0.032 A 
HETATM    8  C9  UNL     1      23.907   0.879  52.712  1.00  0.00     0.019 A 
HETATM    9  C16 UNL     1      22.901   1.072  51.808  1.00  0.00     0.158 A 
HETATM   10  H6  UNL     1      21.544   2.880  49.263  1.00  0.00     0.188 HD
ENDROOT
BRANCH   8  11
HETATM   11  C10 UNL     1      25.186   1.566  52.983  1.00  0.00     0.315 C 
BRANCH  11  12
HETATM   12  N5  UNL     1      26.146   0.596  53.446  1.00  0.00     0.092 N 
HETATM   13  C11 UNL     1      26.840   0.989  54.627  1.00  0.00     0.275 C 
HETATM   14  C12 UNL     1      27.973   0.140  55.039  1.00  0.00     0.065 C 
HETATM   15  C13 UNL     1      28.785  -0.438  53.918  1.00  0.00     0.221 C 
HETATM   16  C14 UNL     1      27.907  -0.996  52.827  1.00  0.00     0.065 C 
HETATM   17  C15 UNL     1      26.963   0.066  52.402  1.00  0.00     0.275 C 
BRANCH  15  18
HETATM   18  N6  UNL     1      29.761   0.505  53.446  1.00  0.00     0.083 N 
HETATM   19  H17 UNL     1      30.519   0.660  54.142  1.00  0.00     0.313 HD
HETATM   20  H18 UNL     1      29.277   1.421  53.311  1.00  0.00     0.313 HD
ENDBRANCH  15  18
ENDBRANCH  11  12
ENDBRANCH   8  11
BRANCH   1  21
HETATM   21  C5  UNL     1      23.762   3.190  50.592  1.00  0.00     0.060 A 
HETATM   22  C4  UNL     1      23.223   4.352  51.170  1.00  0.00     0.034 A 
HETATM   23  C3  UNL     1      23.873   5.589  51.063  1.00  0.00     0.041 A 
HETATM   24  C2  UNL     1      25.077   5.695  50.375  1.00  0.00     0.090 A 
HETATM   25  C18 UNL     1      25.583   4.542  49.817  1.00  0.00     0.069 A 
HETATM   26  C17 UNL     1      24.956   3.323  49.915  1.00  0.00     0.058 A 
HETATM   27 CL1  UNL     1      27.094   4.495  48.914  1.00  0.00    -0.081 Cl
BRANCH  24  28
HETATM   28  O1  UNL     1      25.784   6.879  50.221  1.00  0.00    -0.354 OA
HETATM   29  C1  UNL     1      25.079   8.123  50.063  1.00  0.00     0.210 C 
ENDBRANCH  24  28
ENDBRANCH   1  21
TORSDOF 5
ENDMDL
MODEL 4
REMARK VINA RESULT:      -7.7      2.821      5.781
REMARK  5 active torsions:
REMARK  status: ('A' for Active; 'I' for Inactive)
REMARK    1  A    between atoms: O1_2  and  C2_3 
REMARK    2  A    between atoms: C5_6  and  N1_7 
REMARK    3  A    between atoms: C9_14  and  C10_15 
REMARK    4  A    between atoms: C10_15  and  N5_16 
REMARK    5  A    between atoms: C13_19  and  N6_20 
ROOT
HETATM    1  N1  UNL     1      21.622   1.100  52.364  1.00  0.00    -0.237 N 
HETATM    2  N2  UNL     1      20.215   1.014  52.176  1.00  0.00    -0.284 N 
HETATM    3  C6  UNL     1      19.442   0.014  52.847  1.00  0.00     0.246 A 
HETATM    4  N3  UNL     1      20.043  -0.821  53.636  1.00  0.00    -0.160 NA
HETATM    5  N4  UNL     1      21.419  -0.776  53.852  1.00  0.00    -0.225 N 
HETATM    6  C7  UNL     1      22.294  -1.488  54.613  1.00  0.00     0.121 A 
HETATM    7  C8  UNL     1      23.585  -0.990  54.457  1.00  0.00     0.032 A 
HETATM    8  C9  UNL     1      23.515   0.072  53.566  1.00  0.00     0.019 A 
HETATM    9  C16 UNL     1      22.189   0.142  53.246  1.00  0.00     0.158 A 
HETATM   10  H6  UNL     1      19.650   1.652  51.554  1.00  0.00     0.188 HD
ENDROOT
BRANCH   8  11
HETATM   11  C10 UNL     1      24.713   0.827  53.144  1.00  0.00     0.315 C 
BRANCH  11  12
HETATM   12  N5  UNL     1      25.888   0.119  53.583  1.00  0.00     0.092 N 
HETATM   13  C11 UNL     1      26.537   0.715  54.703  1.00  0.00     0.275 C 
HETATM   14  C12 UNL     1      27.851   0.160  55.076  1.00  0.00     0.065 C 
HETATM   15  C13 UNL     1      28.713  -0.279  53.929  1.00  0.00     0.221 C 
HETATM   16  C14 UNL     1      27.927  -1.072  52.917  1.00  0.00     0.065 C 
HETATM   17  C15 UNL     1      26.748  -0.270  52.511  1.00  0.00     0.275 C 
BRANCH  15  18
HETATM   18  N6  UNL     1      29.426   0.831  53.362  1.00  0.00     0.083 N 
HETATM   19  H17 UNL     1      30.391   0.566  53.073  1.00  0.00     0.313 HD
HETATM   20  H18 UNL     1      29.519   1.561  54.103  1.00  0.00     0.313 HD
ENDBRANCH  15  18
ENDBRANCH  11  12
ENDBRANCH   8  11
BRANCH   1  21
HETATM   21  C5  UNL     1      22.202   2.166  51.630  1.00  0.00     0.060 A 
HETATM   22  C4  UNL     1      22.397   1.716  50.314  1.00  0.00     0.034 A 
HETATM   23  C3  UNL     1      22.978   2.538  49.339  1.00  0.00     0.041 A 
HETATM   24  C2  UNL     1      23.379   3.831  49.657  1.00  0.00     0.090 A 
HETATM   25  C18 UNL     1      23.177   4.248  50.954  1.00  0.00     0.069 A 
HETATM   26  C17 UNL     1      22.609   3.451  51.919  1.00  0.00     0.058 A 
HETATM   27 CL1  UNL     1      23.625   5.852  51.528  1.00  0.00    -0.081 Cl
BRANCH  24  28
HETATM   28  O1  UNL     1      23.962   4.709  48.754  1.00  0.00    -0.354 OA
HETATM   29  C1  UNL     1      23.137   5.563  47.945  1.00  0.00     0.210 C 
ENDBRANCH  24  28
ENDBRANCH   1  21
TORSDOF 5
ENDMDL
MODEL 5
REMARK VINA RESULT:      -7.4      2.071      2.958
REMARK  5 active torsions:
REMARK  status: ('A' for Active; 'I' for Inactive)
REMARK    1  A    between atoms: O1_2  and  C2_3 
REMARK    2  A    between atoms: C5_6  and  N1_7 
REMARK    3  A    between atoms: C9_14  and  C10_15 
REMARK    4  A    between atoms: C10_15  and  N5_16 
REMARK    5  A    between atoms: C13_19  and  N6_20 
ROOT
HETATM    1  N1  UNL     1      23.106   1.242  51.467  1.00  0.00    -0.237 N 
HETATM    2  N2  UNL     1      22.122   0.402  52.058  1.00  0.00    -0.284 N 
HETATM    3  C6  UNL     1      20.806   0.307  51.504  1.00  0.00     0.246 A 
HETATM    4  N3  UNL     1      20.517   1.002  50.447  1.00  0.00    -0.160 NA
HETATM    5  N4  UNL     1      21.447   1.838  49.834  1.00  0.00    -0.225 N 
HETATM    6  C7  UNL     1      21.434   2.648  48.740  1.00  0.00     0.121 A 
HETATM    7  C8  UNL     1      22.677   3.252  48.573  1.00  0.00     0.032 A 
HETATM    8  C9  UNL     1      23.497   2.806  49.600  1.00  0.00     0.019 A 
HETATM    9  C16 UNL     1      22.695   1.962  50.314  1.00  0.00     0.158 A 
HETATM   10  H6  UNL     1      22.275  -0.194  52.914  1.00  0.00     0.188 HD
ENDROOT
BRANCH   8  11
HETATM   11  C10 UNL     1      24.893   3.266  49.751  1.00  0.00     0.315 C 
BRANCH  11  12
HETATM   12  N5  UNL     1      24.981   4.635  49.311  1.00  0.00     0.092 N 
HETATM   13  C11 UNL     1      26.307   5.059  49.005  1.00  0.00     0.275 C 
HETATM   14  C12 UNL     1      26.495   6.498  48.745  1.00  0.00     0.065 C 
HETATM   15  C13 UNL     1      25.647   7.419  49.573  1.00  0.00     0.221 C 
HETATM   16  C14 UNL     1      24.219   6.944  49.642  1.00  0.00     0.065 C 
HETATM   17  C15 UNL     1      24.218   5.538  50.113  1.00  0.00     0.275 C 
BRANCH  15  18
HETATM   18  N6  UNL     1      26.240   7.650  50.861  1.00  0.00     0.083 N 
HETATM   19  H17 UNL     1      25.796   7.069  51.602  1.00  0.00     0.313 HD
HETATM   20  H18 UNL     1      26.071   8.649  51.113  1.00  0.00     0.313 HD
ENDBRANCH  15  18
ENDBRANCH  11  12
ENDBRANCH   8  11
BRANCH   1  21
HETATM   21  C5  UNL     1      24.348   1.182  52.148  1.00  0.00     0.060 A 
HETATM   22  C4  UNL     1      24.465   2.353  52.916  1.00  0.00     0.034 A 
HETATM   23  C3  UNL     1      25.602   2.605  53.696  1.00  0.00     0.041 A 
HETATM   24  C2  UNL     1      26.651   1.692  53.726  1.00  0.00     0.090 A 
HETATM   25  C18 UNL     1      26.512   0.552  52.965  1.00  0.00     0.069 A 
HETATM   26  C17 UNL     1      25.402   0.294  52.196  1.00  0.00     0.058 A 
HETATM   27 CL1  UNL     1      27.741  -0.706  52.887  1.00  0.00    -0.081 Cl
BRANCH  24  28
HETATM   28  O1  UNL     1      27.810   1.864  54.469  1.00  0.00    -0.354 OA
HETATM   29  C1  UNL     1      28.979   2.435  53.857  1.00  0.00     0.210 C 
ENDBRANCH  24  28
ENDBRANCH   1  21
TORSDOF 5
ENDMDL
MODEL 6
REMARK VINA RESULT:      -7.0      3.223      5.481
REMARK  5 active torsions:
REMARK  status: ('A' for Active; 'I' for Inactive)
REMARK    1  A    between atoms: O1_2  and  C2_3 
REMARK    2  A    between atoms: C5_6  and  N1_7 
REMARK    3  A    between atoms: C9_14  and  C10_15 
REMARK    4  A    between atoms: C10_15  and  N5_16 
REMARK    5  A    between atoms: C13_19  and  N6_20 
ROOT
HETATM    1  N1  UNL     1      23.258  -0.363  53.797  1.00  0.00    -0.237 N 
HETATM    2  N2  UNL     1      22.990  -1.202  54.913  1.00  0.00    -0.284 N 
HETATM    3  C6  UNL     1      24.027  -1.555  55.834  1.00  0.00     0.246 A 
HETATM    4  N3  UNL     1      25.224  -1.098  55.638  1.00  0.00    -0.160 NA
HETATM    5  N4  UNL     1      25.535  -0.274  54.560  1.00  0.00    -0.225 N 
HETATM    6  C7  UNL     1      26.662   0.351  54.123  1.00  0.00     0.121 A 
HETATM    7  C8  UNL     1      26.392   1.083  52.969  1.00  0.00     0.032 A 
HETATM    8  C9  UNL     1      25.047   0.910  52.673  1.00  0.00     0.019 A 
HETATM    9  C16 UNL     1      24.598   0.087  53.667  1.00  0.00     0.158 A 
HETATM   10  H6  UNL     1      22.047  -1.614  55.145  1.00  0.00     0.188 HD
ENDROOT
BRANCH   8  11
HETATM   11  C10 UNL     1      24.415   1.527  51.489  1.00  0.00     0.315 C 
BRANCH  11  12
HETATM   12  N5  UNL     1      24.496   2.960  51.613  1.00  0.00     0.092 N 
HETATM   13  C11 UNL     1      23.535   3.517  52.506  1.00  0.00     0.275 C 
HETATM   14  C12 UNL     1      23.428   4.987  52.526  1.00  0.00     0.065 C 
HETATM   15  C13 UNL     1      23.616   5.664  51.200  1.00  0.00     0.221 C 
HETATM   16  C14 UNL     1      24.795   5.100  50.452  1.00  0.00     0.065 C 
HETATM   17  C15 UNL     1      24.627   3.630  50.358  1.00  0.00     0.275 C 
BRANCH  15  18
HETATM   18  N6  UNL     1      22.396   5.661  50.441  1.00  0.00     0.083 N 
HETATM   19  H17 UNL     1      22.376   6.428  49.737  1.00  0.00     0.313 HD
HETATM   20  H18 UNL     1      21.608   5.833  51.104  1.00  0.00     0.313 HD
ENDBRANCH  15  18
ENDBRANCH  11  12
ENDBRANCH   8  11
BRANCH   1  21
HETATM   21  C5  UNL     1      22.099  -0.113  53.017  1.00  0.00     0.060 A 
HETATM   22  C4  UNL     1      20.982  -0.407  53.816  1.00  0.00     0.034 A 
HETATM   23  C3  UNL     1      19.677  -0.280  53.321  1.00  0.00     0.041 A 
HETATM   24  C2  UNL     1      19.457   0.143  52.015  1.00  0.00     0.090 A 
HETATM   25  C18 UNL     1      20.570   0.424  51.252  1.00  0.00     0.069 A 
HETATM   26  C17 UNL     1      21.854   0.303  51.726  1.00  0.00     0.058 A 
HETATM   27 CL1  UNL     1      20.475   0.970  49.581  1.00  0.00    -0.081 Cl
BRANCH  24  28
HETATM   28  O1  UNL     1      18.200   0.294  51.447  1.00  0.00    -0.354 OA
HETATM   29  C1  UNL     1      17.135  -0.600  51.808  1.00  0.00     0.210 C 
ENDBRANCH  24  28
ENDBRANCH   1  21
TORSDOF 5
ENDMDL
MODEL 7
REMARK VINA RESULT:      -6.9      3.113      6.021
REMARK  5 active torsions:
REMARK  status: ('A' for Active; 'I' for Inactive)
REMARK    1  A    between atoms: O1_2  and  C2_3 
REMARK    2  A    between atoms: C5_6  and  N1_7 
REMARK    3  A    between atoms: C9_14  and  C10_15 
REMARK    4  A    between atoms: C10_15  and  N5_16 
REMARK    5  A    between atoms: C13_19  and  N6_20 
ROOT
HETATM    1  N1  UNL     1      24.168   1.336  52.579  1.00  0.00    -0.237 N 
HETATM    2  N2  UNL     1      25.559   1.042  52.533  1.00  0.00    -0.284 N 
HETATM    3  C6  UNL     1      26.097  -0.085  53.233  1.00  0.00     0.246 A 
HETATM    4  N3  UNL     1      25.296  -0.843  53.915  1.00  0.00    -0.160 NA
HETATM    5  N4  UNL     1      23.927  -0.595  53.989  1.00  0.00    -0.225 N 
HETATM    6  C7  UNL     1      22.873  -1.208  54.594  1.00  0.00     0.121 A 
HETATM    7  C8  UNL     1      21.692  -0.525  54.313  1.00  0.00     0.032 A 
HETATM    8  C9  UNL     1      22.019   0.554  53.505  1.00  0.00     0.019 A 
HETATM    9  C16 UNL     1      23.373   0.449  53.352  1.00  0.00     0.158 A 
HETATM   10  H6  UNL     1      26.276   1.605  52.004  1.00  0.00     0.188 HD
ENDROOT
BRANCH   8  11
HETATM   11  C10 UNL     1      21.007   1.520  53.031  1.00  0.00     0.315 C 
BRANCH  11  12
HETATM   12  N5  UNL     1      20.251   0.917  51.963  1.00  0.00     0.092 N 
HETATM   13  C11 UNL     1      20.234   1.685  50.763  1.00  0.00     0.275 C 
HETATM   14  C12 UNL     1      19.319   1.228  49.701  1.00  0.00     0.065 C 
HETATM   15  C13 UNL     1      18.016   0.656  50.177  1.00  0.00     0.221 C 
HETATM   16  C14 UNL     1      18.215  -0.296  51.328  1.00  0.00     0.065 C 
HETATM   17  C15 UNL     1      18.986   0.406  52.383  1.00  0.00     0.275 C 
BRANCH  15  18
HETATM   18  N6  UNL     1      17.062   1.695  50.448  1.00  0.00     0.083 N 
HETATM   19  H17 UNL     1      17.306   2.230  51.308  1.00  0.00     0.313 HD
HETATM   20  H18 UNL     1      16.138   1.241  50.623  1.00  0.00     0.313 HD
ENDBRANCH  15  18
ENDBRANCH  11  12
ENDBRANCH   8  11
BRANCH   1  21
HETATM   21  C5  UNL     1      23.830   2.477  51.808  1.00  0.00     0.060 A 
HETATM   22  C4  UNL     1      23.845   3.587  52.668  1.00  0.00     0.034 A 
HETATM   23  C3  UNL     1      23.530   4.873  52.207  1.00  0.00     0.041 A 
HETATM   24  C2  UNL     1      23.192   5.079  50.874  1.00  0.00     0.090 A 
HETATM   25  C18 UNL     1      23.184   3.974  50.052  1.00  0.00     0.069 A 
HETATM   26  C17 UNL     1      23.491   2.709  50.492  1.00  0.00     0.058 A 
HETATM   27 CL1  UNL     1      22.780   4.054  48.340  1.00  0.00    -0.081 Cl
BRANCH  24  28
HETATM   28  O1  UNL     1      22.866   6.316  50.337  1.00  0.00    -0.354 OA
HETATM   29  C1  UNL     1      21.619   6.944  50.680  1.00  0.00     0.210 C 
ENDBRANCH  24  28
ENDBRANCH   1  21
TORSDOF 5
ENDMDL
MODEL 8
REMARK VINA RESULT:      -6.8      3.632      5.952
REMARK  5 active torsions:
REMARK  status: ('A' for Active; 'I' for Inactive)
REMARK    1  A    between atoms: O1_2  and  C2_3 
REMARK    2  A    between atoms: C5_6  and  N1_7 
REMARK    3  A    between atoms: C9_14  and  C10_15 
REMARK    4  A    between atoms: C10_15  and  N5_16 
REMARK    5  A    between atoms: C13_19  and  N6_20 
ROOT
HETATM    1  N1  UNL     1      21.934   0.206  53.169  1.00  0.00    -0.237 N 
HETATM    2  N2  UNL     1      21.529  -0.594  54.272  1.00  0.00    -0.284 N 
HETATM    3  C6  UNL     1      22.495  -1.218  55.124  1.00  0.00     0.246 A 
HETATM    4  N3  UNL     1      23.756  -1.045  54.877  1.00  0.00    -0.160 NA
HETATM    5  N4  UNL     1      24.201  -0.270  53.809  1.00  0.00    -0.225 N 
HETATM    6  C7  UNL     1      25.423   0.092  53.330  1.00  0.00     0.121 A 
HETATM    7  C8  UNL     1      25.279   0.915  52.216  1.00  0.00     0.032 A 
HETATM    8  C9  UNL     1      23.919   1.072  51.988  1.00  0.00     0.019 A 
HETATM    9  C16 UNL     1      23.336   0.336  52.980  1.00  0.00     0.158 A 
HETATM   10  H6  UNL     1      20.527  -0.785  54.542  1.00  0.00     0.188 HD
ENDROOT
BRANCH   8  11
HETATM   11  C10 UNL     1      23.396   1.869  50.860  1.00  0.00     0.315 C 
BRANCH  11  12
HETATM   12  N5  UNL     1      24.113   3.117  50.800  1.00  0.00     0.092 N 
HETATM   13  C11 UNL     1      23.422   4.209  51.401  1.00  0.00     0.275 C 
HETATM   14  C12 UNL     1      24.003   5.549  51.199  1.00  0.00     0.065 C 
HETATM   15  C13 UNL     1      24.631   5.782  49.856  1.00  0.00     0.221 C 
HETATM   16  C14 UNL     1      25.495   4.620  49.439  1.00  0.00     0.065 C 
HETATM   17  C15 UNL     1      24.680   3.383  49.517  1.00  0.00     0.275 C 
BRANCH  15  18
HETATM   18  N6  UNL     1      23.643   6.144  48.878  1.00  0.00     0.083 N 
HETATM   19  H17 UNL     1      23.931   6.979  48.327  1.00  0.00     0.313 HD
HETATM   20  H18 UNL     1      22.770   6.402  49.390  1.00  0.00     0.313 HD
ENDBRANCH  15  18
ENDBRANCH  11  12
ENDBRANCH   8  11
BRANCH   1  21
HETATM   21  C5  UNL     1      20.833   0.751  52.462  1.00  0.00     0.060 A 
HETATM   22  C4  UNL     1      20.727   2.104  52.824  1.00  0.00     0.034 A 
HETATM   23  C3  UNL     1      19.713   2.922  52.306  1.00  0.00     0.041 A 
HETATM   24  C2  UNL     1      18.780   2.406  51.413  1.00  0.00     0.090 A 
HETATM   25  C18 UNL     1      18.906   1.076  51.074  1.00  0.00     0.069 A 
HETATM   26  C17 UNL     1      19.895   0.265  51.575  1.00  0.00     0.058 A 
HETATM   27 CL1  UNL     1      17.814   0.263  49.959  1.00  0.00    -0.081 Cl
BRANCH  24  28
HETATM   28  O1  UNL     1      17.747   3.144  50.854  1.00  0.00    -0.354 OA
HETATM   29  C1  UNL     1      16.877   3.918  51.698  1.00  0.00     0.210 C 
ENDBRANCH  24  28
ENDBRANCH   1  21
TORSDOF 5
ENDMDL
MODEL 9
REMARK VINA RESULT:      -6.7      2.567      5.576
REMARK  5 active torsions:
REMARK  status: ('A' for Active; 'I' for Inactive)
REMARK    1  A    between atoms: O1_2  and  C2_3 
REMARK    2  A    between atoms: C5_6  and  N1_7 
REMARK    3  A    between atoms: C9_14  and  C10_15 
REMARK    4  A    between atoms: C10_15  and  N5_16 
REMARK    5  A    between atoms: C13_19  and  N6_20 
ROOT
HETATM    1  N1  UNL     1      24.850   3.999  50.191  1.00  0.00    -0.237 N 
HETATM    2  N2  UNL     1      25.837   4.996  50.424  1.00  0.00    -0.284 N 
HETATM    3  C6  UNL     1      25.836   6.220  49.683  1.00  0.00     0.246 A 
HETATM    4  N3  UNL     1      24.918   6.413  48.788  1.00  0.00    -0.160 NA
HETATM    5  N4  UNL     1      23.931   5.467  48.525  1.00  0.00    -0.225 N 
HETATM    6  C7  UNL     1      22.862   5.403  47.684  1.00  0.00     0.121 A 
HETATM    7  C8  UNL     1      22.186   4.198  47.854  1.00  0.00     0.032 A 
HETATM    8  C9  UNL     1      22.854   3.481  48.836  1.00  0.00     0.019 A 
HETATM    9  C16 UNL     1      23.887   4.302  49.192  1.00  0.00     0.158 A 
HETATM   10  H6  UNL     1      26.616   4.919  51.131  1.00  0.00     0.188 HD
ENDROOT
BRANCH   8  11
HETATM   11  C10 UNL     1      22.425   2.133  49.259  1.00  0.00     0.315 C 
BRANCH  11  12
HETATM   12  N5  UNL     1      21.084   2.213  49.779  1.00  0.00     0.092 N 
HETATM   13  C11 UNL     1      20.999   2.819  51.066  1.00  0.00     0.275 C 
HETATM   14  C12 UNL     1      19.691   2.751  51.742  1.00  0.00     0.065 C 
HETATM   15  C13 UNL     1      18.916   1.486  51.520  1.00  0.00     0.221 C 
HETATM   16  C14 UNL     1      18.930   1.075  50.070  1.00  0.00     0.065 C 
HETATM   17  C15 UNL     1      20.341   1.004  49.620  1.00  0.00     0.275 C 
BRANCH  15  18
HETATM   18  N6  UNL     1      19.348   0.449  52.415  1.00  0.00     0.083 N 
HETATM   19  H17 UNL     1      19.496   0.809  53.382  1.00  0.00     0.313 HD
HETATM   20  H18 UNL     1      20.271   0.100  52.075  1.00  0.00     0.313 HD
ENDBRANCH  15  18
ENDBRANCH  11  12
ENDBRANCH   8  11
BRANCH   1  21
HETATM   21  C5  UNL     1      25.008   2.872  51.037  1.00  0.00     0.060 A 
HETATM   22  C4  UNL     1      26.340   2.440  50.919  1.00  0.00     0.034 A 
HETATM   23  C3  UNL     1      26.810   1.322  51.621  1.00  0.00     0.041 A 
HETATM   24  C2  UNL     1      25.960   0.608  52.459  1.00  0.00     0.090 A 
HETATM   25  C18 UNL     1      24.660   1.053  52.557  1.00  0.00     0.069 A 
HETATM   26  C17 UNL     1      24.187   2.147  51.874  1.00  0.00     0.058 A 
HETATM   27 CL1  UNL     1      23.452   0.269  53.571  1.00  0.00    -0.081 Cl
BRANCH  24  28
HETATM   28  O1  UNL     1      26.343  -0.508  53.188  1.00  0.00    -0.354 OA
HETATM   29  C1  UNL     1      26.744  -1.709  52.509  1.00  0.00     0.210 C 
ENDBRANCH  24  28
ENDBRANCH   1  21
TORSDOF 5
ENDMDL
