MODEL 1
REMARK VINA RESULT:      -7.0      0.000      0.000
REMARK  8 active torsions:
REMARK  status: ('A' for Active; 'I' for Inactive)
REMARK    1  A    between atoms: C2_2  and  C3_3 
REMARK    2  A    between atoms: C4_4  and  C5_5 
REMARK    3  A    between atoms: C6_6  and  C7_7 
REMARK    4  A    between atoms: C7_7  and  C8_8 
REMARK    5  A    between atoms: C8_8  and  N1_9 
REMARK    6  A    between atoms: N1_9  and  C9_10 
REMARK    7  A    between atoms: C14_16  and  C15_17 
REMARK    8  A    between atoms: C15_17  and  C16_18 
ROOT
HETATM    1  C9  UNL     1      27.339   2.104  53.133  1.00  0.00     0.046 A 
HETATM    2  C10 UNL     1      28.583   2.408  53.607  1.00  0.00     0.049 A 
HETATM    3  C11 UNL     1      29.391   1.784  54.529  1.00  0.00     0.122 A 
HETATM    4  N2  UNL     1      28.764   0.671  55.011  1.00  0.00    -0.236 NA
HETATM    5  C12 UNL     1      27.573   0.280  54.634  1.00  0.00     0.185 A 
HETATM    6  C13 UNL     1      26.780   0.931  53.697  1.00  0.00     0.077 A 
HETATM    7  C14 UNL     1      25.740  -0.053  53.852  1.00  0.00     0.094 A 
HETATM    8  O1  UNL     1      26.533  -0.679  54.770  1.00  0.00    -0.290 OA
ENDROOT
BRANCH   1   9
HETATM    9  N1  UNL     1      26.537   2.747  52.192  1.00  0.00    -0.389 N 
HETATM   10  H12 UNL     1      25.917   3.533  52.511  1.00  0.00     0.159 HD
BRANCH   9  11
HETATM   11  C8  UNL     1      26.291   2.625  50.775  1.00  0.00     0.123 C 
BRANCH  11  12
HETATM   12  C7  UNL     1      24.840   2.924  50.435  1.00  0.00     0.047 C 
BRANCH  12  13
HETATM   13  C6  UNL     1      24.075   3.140  51.661  1.00  0.00    -0.025 C 
HETATM   14  C5  UNL     1      22.927   2.840  52.238  1.00  0.00    -0.004 C 
BRANCH  14  15
HETATM   15  C4  UNL     1      21.761   2.062  51.864  1.00  0.00    -0.004 C 
HETATM   16  C3  UNL     1      21.658   1.132  50.898  1.00  0.00    -0.021 C 
BRANCH  16  17
HETATM   17  C2  UNL     1      20.330   0.612  50.865  1.00  0.00     0.034 C 
HETATM   18  C1  UNL     1      19.289   0.213  51.489  1.00  0.00    -0.008 C 
ENDBRANCH  16  17
ENDBRANCH  14  15
ENDBRANCH  12  13
ENDBRANCH  11  12
ENDBRANCH   9  11
ENDBRANCH   1   9
BRANCH   7  19
HETATM   19  C15 UNL     1      24.559  -0.287  53.361  1.00  0.00     0.038 C 
BRANCH  19  20
HETATM   20  C16 UNL     1      23.255  -0.490  53.966  1.00  0.00    -0.002 C 
HETATM   21  C17 UNL     1      22.276  -1.313  53.496  1.00  0.00    -0.031 C 
HETATM   22  C18 UNL     1      21.182  -1.148  54.468  1.00  0.00     0.036 C 
ENDBRANCH  19  20
ENDBRANCH   7  19
TORSDOF 8
ENDMDL
MODEL 2
REMARK VINA RESULT:      -6.9      1.690      3.850
REMARK  8 active torsions:
REMARK  status: ('A' for Active; 'I' for Inactive)
REMARK    1  A    between atoms: C2_2  and  C3_3 
REMARK    2  A    between atoms: C4_4  and  C5_5 
REMARK    3  A    between atoms: C6_6  and  C7_7 
REMARK    4  A    between atoms: C7_7  and  C8_8 
REMARK    5  A    between atoms: C8_8  and  N1_9 
REMARK    6  A    between atoms: N1_9  and  C9_10 
REMARK    7  A    between atoms: C14_16  and  C15_17 
REMARK    8  A    between atoms: C15_17  and  C16_18 
ROOT
HETATM    1  C9  UNL     1      27.212   2.018  53.104  1.00  0.00     0.046 A 
HETATM    2  C10 UNL     1      28.440   2.398  53.566  1.00  0.00     0.049 A 
HETATM    3  C11 UNL     1      29.288   1.832  54.489  1.00  0.00     0.122 A 
HETATM    4  N2  UNL     1      28.730   0.690  54.987  1.00  0.00    -0.236 NA
HETATM    5  C12 UNL     1      27.561   0.227  54.622  1.00  0.00     0.185 A 
HETATM    6  C13 UNL     1      26.726   0.821  53.684  1.00  0.00     0.077 A 
HETATM    7  C14 UNL     1      25.745  -0.220  53.856  1.00  0.00     0.094 A 
HETATM    8  O1  UNL     1      26.579  -0.789  54.775  1.00  0.00    -0.290 OA
ENDROOT
BRANCH   1   9
HETATM    9  N1  UNL     1      26.368   2.604  52.162  1.00  0.00    -0.389 N 
HETATM   10  H12 UNL     1      26.759   2.849  51.218  1.00  0.00     0.159 HD
BRANCH   9  11
HETATM   11  C8  UNL     1      24.984   3.009  52.113  1.00  0.00     0.123 C 
BRANCH  11  12
HETATM   12  C7  UNL     1      24.263   2.380  50.933  1.00  0.00     0.047 C 
BRANCH  12  13
HETATM   13  C6  UNL     1      23.808   3.420  50.014  1.00  0.00    -0.025 C 
HETATM   14  C5  UNL     1      24.251   4.410  49.261  1.00  0.00    -0.004 C 
BRANCH  14  15
HETATM   15  C4  UNL     1      25.554   4.979  48.973  1.00  0.00    -0.004 C 
HETATM   16  C3  UNL     1      26.754   4.372  49.017  1.00  0.00    -0.021 C 
BRANCH  16  17
HETATM   17  C2  UNL     1      27.778   5.299  48.663  1.00  0.00     0.034 C 
HETATM   18  C1  UNL     1      28.987   5.524  48.316  1.00  0.00    -0.008 C 
ENDBRANCH  16  17
ENDBRANCH  14  15
ENDBRANCH  12  13
ENDBRANCH  11  12
ENDBRANCH   9  11
ENDBRANCH   1   9
BRANCH   7  19
HETATM   19  C15 UNL     1      24.576  -0.527  53.377  1.00  0.00     0.038 C 
BRANCH  19  20
HETATM   20  C16 UNL     1      23.231  -0.448  53.914  1.00  0.00    -0.002 C 
HETATM   21  C17 UNL     1      22.280   0.460  53.557  1.00  0.00    -0.031 C 
HETATM   22  C18 UNL     1      21.120   0.100  54.389  1.00  0.00     0.036 C 
ENDBRANCH  19  20
ENDBRANCH   7  19
TORSDOF 8
ENDMDL
MODEL 3
REMARK VINA RESULT:      -6.3      2.699      5.862
REMARK  8 active torsions:
REMARK  status: ('A' for Active; 'I' for Inactive)
REMARK    1  A    between atoms: C2_2  and  C3_3 
REMARK    2  A    between atoms: C4_4  and  C5_5 
REMARK    3  A    between atoms: C6_6  and  C7_7 
REMARK    4  A    between atoms: C7_7  and  C8_8 
REMARK    5  A    between atoms: C8_8  and  N1_9 
REMARK    6  A    between atoms: N1_9  and  C9_10 
REMARK    7  A    between atoms: C14_16  and  C15_17 
REMARK    8  A    between atoms: C15_17  and  C16_18 
ROOT
HETATM    1  C9  UNL     1      22.711   0.435  53.347  1.00  0.00     0.046 A 
HETATM    2  C10 UNL     1      21.609  -0.161  53.888  1.00  0.00     0.049 A 
HETATM    3  C11 UNL     1      21.473  -1.162  54.822  1.00  0.00     0.122 A 
HETATM    4  N2  UNL     1      22.707  -1.580  55.231  1.00  0.00    -0.236 NA
HETATM    5  C12 UNL     1      23.833  -1.085  54.784  1.00  0.00     0.185 A 
HETATM    6  C13 UNL     1      23.939  -0.072  53.839  1.00  0.00     0.077 A 
HETATM    7  C14 UNL     1      25.377  -0.123  53.904  1.00  0.00     0.094 A 
HETATM    8  O1  UNL     1      25.253  -1.118  54.831  1.00  0.00    -0.290 OA
ENDROOT
BRANCH   1   9
HETATM    9  N1  UNL     1      22.830   1.454  52.403  1.00  0.00    -0.389 N 
HETATM   10  H12 UNL     1      22.374   2.380  52.601  1.00  0.00     0.159 HD
BRANCH   9  11
HETATM   11  C8  UNL     1      23.455   1.611  51.112  1.00  0.00     0.123 C 
BRANCH  11  12
HETATM   12  C7  UNL     1      24.210   2.926  51.016  1.00  0.00     0.047 C 
BRANCH  12  13
HETATM   13  C6  UNL     1      25.579   2.683  50.569  1.00  0.00    -0.025 C 
HETATM   14  C5  UNL     1      26.580   3.252  49.925  1.00  0.00    -0.004 C 
BRANCH  14  15
HETATM   15  C4  UNL     1      26.796   4.539  49.290  1.00  0.00    -0.004 C 
HETATM   16  C3  UNL     1      27.862   4.946  48.577  1.00  0.00    -0.021 C 
BRANCH  16  17
HETATM   17  C2  UNL     1      27.665   6.288  48.136  1.00  0.00     0.034 C 
HETATM   18  C1  UNL     1      27.028   7.392  48.220  1.00  0.00    -0.008 C 
ENDBRANCH  16  17
ENDBRANCH  14  15
ENDBRANCH  12  13
ENDBRANCH  11  12
ENDBRANCH   9  11
ENDBRANCH   1   9
BRANCH   7  19
HETATM   19  C15 UNL     1      26.385   0.484  53.351  1.00  0.00     0.038 C 
BRANCH  19  20
HETATM   20  C16 UNL     1      27.822   0.303  53.440  1.00  0.00    -0.002 C 
HETATM   21  C17 UNL     1      28.488  -0.880  53.320  1.00  0.00    -0.031 C 
HETATM   22  C18 UNL     1      29.902  -0.506  53.487  1.00  0.00     0.036 C 
ENDBRANCH  19  20
ENDBRANCH   7  19
TORSDOF 8
ENDMDL
MODEL 4
REMARK VINA RESULT:      -6.1      1.794      2.469
REMARK  8 active torsions:
REMARK  status: ('A' for Active; 'I' for Inactive)
REMARK    1  A    between atoms: C2_2  and  C3_3 
REMARK    2  A    between atoms: C4_4  and  C5_5 
REMARK    3  A    between atoms: C6_6  and  C7_7 
REMARK    4  A    between atoms: C7_7  and  C8_8 
REMARK    5  A    between atoms: C8_8  and  N1_9 
REMARK    6  A    between atoms: N1_9  and  C9_10 
REMARK    7  A    between atoms: C14_16  and  C15_17 
REMARK    8  A    between atoms: C15_17  and  C16_18 
ROOT
HETATM    1  C9  UNL     1      27.444   2.074  53.102  1.00  0.00     0.046 A 
HETATM    2  C10 UNL     1      28.674   2.343  53.631  1.00  0.00     0.049 A 
HETATM    3  C11 UNL     1      29.407   1.716  54.612  1.00  0.00     0.122 A 
HETATM    4  N2  UNL     1      28.711   0.644  55.092  1.00  0.00    -0.236 NA
HETATM    5  C12 UNL     1      27.526   0.289  54.664  1.00  0.00     0.185 A 
HETATM    6  C13 UNL     1      26.810   0.942  53.669  1.00  0.00     0.077 A 
HETATM    7  C14 UNL     1      25.723   0.005  53.797  1.00  0.00     0.094 A 
HETATM    8  O1  UNL     1      26.442  -0.623  54.773  1.00  0.00    -0.290 OA
ENDROOT
BRANCH   1   9
HETATM    9  N1  UNL     1      26.718   2.719  52.102  1.00  0.00    -0.389 N 
HETATM   10  H12 UNL     1      26.268   3.643  52.321  1.00  0.00     0.159 HD
BRANCH   9  11
HETATM   11  C8  UNL     1      26.374   2.452  50.726  1.00  0.00     0.123 C 
BRANCH  11  12
HETATM   12  C7  UNL     1      24.996   2.991  50.382  1.00  0.00     0.047 C 
BRANCH  12  13
HETATM   13  C6  UNL     1      24.177   3.072  51.590  1.00  0.00    -0.025 C 
HETATM   14  C5  UNL     1      23.228   3.791  52.157  1.00  0.00    -0.004 C 
BRANCH  14  15
HETATM   15  C4  UNL     1      22.476   4.976  51.787  1.00  0.00    -0.004 C 
HETATM   16  C3  UNL     1      21.841   5.229  50.629  1.00  0.00    -0.021 C 
BRANCH  16  17
HETATM   17  C2  UNL     1      21.228   6.515  50.683  1.00  0.00     0.034 C 
HETATM   18  C1  UNL     1      21.290   7.774  50.471  1.00  0.00    -0.008 C 
ENDBRANCH  16  17
ENDBRANCH  14  15
ENDBRANCH  12  13
ENDBRANCH  11  12
ENDBRANCH   9  11
ENDBRANCH   1   9
BRANCH   7  19
HETATM   19  C15 UNL     1      24.560  -0.197  53.253  1.00  0.00     0.038 C 
BRANCH  19  20
HETATM   20  C16 UNL     1      23.206   0.140  53.650  1.00  0.00    -0.002 C 
HETATM   21  C17 UNL     1      22.293  -0.718  54.186  1.00  0.00    -0.031 C 
HETATM   22  C18 UNL     1      21.104   0.123  54.401  1.00  0.00     0.036 C 
ENDBRANCH  19  20
ENDBRANCH   7  19
TORSDOF 8
ENDMDL
MODEL 5
REMARK VINA RESULT:      -5.9      2.654      5.738
REMARK  8 active torsions:
REMARK  status: ('A' for Active; 'I' for Inactive)
REMARK    1  A    between atoms: C2_2  and  C3_3 
REMARK    2  A    between atoms: C4_4  and  C5_5 
REMARK    3  A    between atoms: C6_6  and  C7_7 
REMARK    4  A    between atoms: C7_7  and  C8_8 
REMARK    5  A    between atoms: C8_8  and  N1_9 
REMARK    6  A    between atoms: N1_9  and  C9_10 
REMARK    7  A    between atoms: C14_16  and  C15_17 
REMARK    8  A    between atoms: C15_17  and  C16_18 
ROOT
HETATM    1  C9  UNL     1      22.906  -0.031  53.305  1.00  0.00     0.046 A 
HETATM    2  C10 UNL     1      23.519  -0.668  54.346  1.00  0.00     0.049 A 
HETATM    3  C11 UNL     1      23.034  -1.504  55.324  1.00  0.00     0.122 A 
HETATM    4  N2  UNL     1      21.690  -1.677  55.156  1.00  0.00    -0.236 NA
HETATM    5  C12 UNL     1      20.994  -1.119  54.198  1.00  0.00     0.185 A 
HETATM    6  C13 UNL     1      21.514  -0.279  53.221  1.00  0.00     0.077 A 
HETATM    7  C14 UNL     1      20.213  -0.121  52.625  1.00  0.00     0.094 A 
HETATM    8  O1  UNL     1      19.720  -0.949  53.592  1.00  0.00    -0.290 OA
ENDROOT
BRANCH   1   9
HETATM    9  N1  UNL     1      23.417   0.810  52.319  1.00  0.00    -0.389 N 
HETATM   10  H12 UNL     1      23.997   0.390  51.549  1.00  0.00     0.159 HD
BRANCH   9  11
HETATM   11  C8  UNL     1      23.374   2.223  52.029  1.00  0.00     0.123 C 
BRANCH  11  12
HETATM   12  C7  UNL     1      23.854   2.516  50.617  1.00  0.00     0.047 C 
BRANCH  12  13
HETATM   13  C6  UNL     1      25.245   2.963  50.647  1.00  0.00    -0.025 C 
HETATM   14  C5  UNL     1      26.428   2.651  51.140  1.00  0.00    -0.004 C 
BRANCH  14  15
HETATM   15  C4  UNL     1      26.944   1.587  51.982  1.00  0.00    -0.004 C 
HETATM   16  C3  UNL     1      26.771   0.260  51.842  1.00  0.00    -0.021 C 
BRANCH  16  17
HETATM   17  C2  UNL     1      27.447  -0.429  52.892  1.00  0.00     0.034 C 
HETATM   18  C1  UNL     1      28.486  -1.038  53.318  1.00  0.00    -0.008 C 
ENDBRANCH  16  17
ENDBRANCH  14  15
ENDBRANCH  12  13
ENDBRANCH  11  12
ENDBRANCH   9  11
ENDBRANCH   1   9
BRANCH   7  19
HETATM   19  C15 UNL     1      19.688   0.512  51.617  1.00  0.00     0.038 C 
BRANCH  19  20
HETATM   20  C16 UNL     1      20.194   0.893  50.312  1.00  0.00    -0.002 C 
HETATM   21  C17 UNL     1      20.174   2.148  49.782  1.00  0.00    -0.031 C 
HETATM   22  C18 UNL     1      20.800   1.982  48.460  1.00  0.00     0.036 C 
ENDBRANCH  19  20
ENDBRANCH   7  19
TORSDOF 8
ENDMDL
MODEL 6
REMARK VINA RESULT:      -5.9      2.385      5.203
REMARK  8 active torsions:
REMARK  status: ('A' for Active; 'I' for Inactive)
REMARK    1  A    between atoms: C2_2  and  C3_3 
REMARK    2  A    between atoms: C4_4  and  C5_5 
REMARK    3  A    between atoms: C6_6  and  C7_7 
REMARK    4  A    between atoms: C7_7  and  C8_8 
REMARK    5  A    between atoms: C8_8  and  N1_9 
REMARK    6  A    between atoms: N1_9  and  C9_10 
REMARK    7  A    between atoms: C14_16  and  C15_17 
REMARK    8  A    between atoms: C15_17  and  C16_18 
ROOT
HETATM    1  C9  UNL     1      24.980   2.739  52.880  1.00  0.00     0.046 A 
HETATM    2  C10 UNL     1      25.196   1.648  53.673  1.00  0.00     0.049 A 
HETATM    3  C11 UNL     1      25.991   0.537  53.509  1.00  0.00     0.122 A 
HETATM    4  N2  UNL     1      26.646   0.614  52.314  1.00  0.00    -0.236 NA
HETATM    5  C12 UNL     1      26.519   1.607  51.471  1.00  0.00     0.185 A 
HETATM    6  C13 UNL     1      25.709   2.719  51.666  1.00  0.00     0.077 A 
HETATM    7  C14 UNL     1      26.109   3.268  50.396  1.00  0.00     0.094 A 
HETATM    8  O1  UNL     1      26.899   2.168  50.222  1.00  0.00    -0.290 OA
ENDROOT
BRANCH   1   9
HETATM    9  N1  UNL     1      24.174   3.860  53.067  1.00  0.00    -0.389 N 
HETATM   10  H12 UNL     1      24.331   4.458  53.916  1.00  0.00     0.159 HD
BRANCH   9  11
HETATM   11  C8  UNL     1      23.083   4.488  52.362  1.00  0.00     0.123 C 
BRANCH  11  12
HETATM   12  C7  UNL     1      22.473   3.551  51.333  1.00  0.00     0.047 C 
BRANCH  12  13
HETATM   13  C6  UNL     1      21.234   2.979  51.853  1.00  0.00    -0.025 C 
HETATM   14  C5  UNL     1      20.775   1.983  52.588  1.00  0.00    -0.004 C 
BRANCH  14  15
HETATM   15  C4  UNL     1      21.374   0.869  53.299  1.00  0.00    -0.004 C 
HETATM   16  C3  UNL     1      22.134  -0.123  52.801  1.00  0.00    -0.021 C 
BRANCH  16  17
HETATM   17  C2  UNL     1      22.514  -1.014  53.847  1.00  0.00     0.034 C 
HETATM   18  C1  UNL     1      22.723  -1.228  55.089  1.00  0.00    -0.008 C 
ENDBRANCH  16  17
ENDBRANCH  14  15
ENDBRANCH  12  13
ENDBRANCH  11  12
ENDBRANCH   9  11
ENDBRANCH   1   9
BRANCH   7  19
HETATM   19  C15 UNL     1      25.861   4.330  49.688  1.00  0.00     0.038 C 
BRANCH  19  20
HETATM   20  C16 UNL     1      26.709   5.330  49.067  1.00  0.00    -0.002 C 
HETATM   21  C17 UNL     1      27.936   5.108  48.517  1.00  0.00    -0.031 C 
HETATM   22  C18 UNL     1      28.351   6.436  48.037  1.00  0.00     0.036 C 
ENDBRANCH  19  20
ENDBRANCH   7  19
TORSDOF 8
ENDMDL
MODEL 7
REMARK VINA RESULT:      -5.8      3.170      6.176
REMARK  8 active torsions:
REMARK  status: ('A' for Active; 'I' for Inactive)
REMARK    1  A    between atoms: C2_2  and  C3_3 
REMARK    2  A    between atoms: C4_4  and  C5_5 
REMARK    3  A    between atoms: C6_6  and  C7_7 
REMARK    4  A    between atoms: C7_7  and  C8_8 
REMARK    5  A    between atoms: C8_8  and  N1_9 
REMARK    6  A    between atoms: N1_9  and  C9_10 
REMARK    7  A    between atoms: C14_16  and  C15_17 
REMARK    8  A    between atoms: C15_17  and  C16_18 
ROOT
HETATM    1  C9  UNL     1      22.931   0.248  53.426  1.00  0.00     0.046 A 
HETATM    2  C10 UNL     1      23.440  -0.541  54.417  1.00  0.00     0.049 A 
HETATM    3  C11 UNL     1      22.863  -1.507  55.208  1.00  0.00     0.122 A 
HETATM    4  N2  UNL     1      21.544  -1.639  54.883  1.00  0.00    -0.236 NA
HETATM    5  C12 UNL     1      20.945  -0.939  53.954  1.00  0.00     0.185 A 
HETATM    6  C13 UNL     1      21.555   0.030  53.168  1.00  0.00     0.077 A 
HETATM    7  C14 UNL     1      20.320   0.287  52.475  1.00  0.00     0.094 A 
HETATM    8  O1  UNL     1      19.736  -0.668  53.256  1.00  0.00    -0.290 OA
ENDROOT
BRANCH   1   9
HETATM    9  N1  UNL     1      23.534   1.220  52.629  1.00  0.00    -0.389 N 
HETATM   10  H12 UNL     1      24.136   0.910  51.826  1.00  0.00     0.159 HD
BRANCH   9  11
HETATM   11  C8  UNL     1      23.573   2.662  52.594  1.00  0.00     0.123 C 
BRANCH  11  12
HETATM   12  C7  UNL     1      23.767   3.179  51.179  1.00  0.00     0.047 C 
BRANCH  12  13
HETATM   13  C6  UNL     1      25.057   2.733  50.657  1.00  0.00    -0.025 C 
HETATM   14  C5  UNL     1      26.104   3.152  49.972  1.00  0.00    -0.004 C 
BRANCH  14  15
HETATM   15  C4  UNL     1      26.491   4.405  49.350  1.00  0.00    -0.004 C 
HETATM   16  C3  UNL     1      27.641   4.698  48.718  1.00  0.00    -0.021 C 
BRANCH  16  17
HETATM   17  C2  UNL     1      27.611   6.047  48.258  1.00  0.00     0.034 C 
HETATM   18  C1  UNL     1      28.232   7.125  47.965  1.00  0.00    -0.008 C 
ENDBRANCH  16  17
ENDBRANCH  14  15
ENDBRANCH  12  13
ENDBRANCH  11  12
ENDBRANCH   9  11
ENDBRANCH   1   9
BRANCH   7  19
HETATM   19  C15 UNL     1      19.896   1.067  51.524  1.00  0.00     0.038 C 
BRANCH  19  20
HETATM   20  C16 UNL     1      20.426   1.423  50.221  1.00  0.00    -0.002 C 
HETATM   21  C17 UNL     1      21.478   0.823  49.596  1.00  0.00    -0.031 C 
HETATM   22  C18 UNL     1      21.594   1.557  48.324  1.00  0.00     0.036 C 
ENDBRANCH  19  20
ENDBRANCH   7  19
TORSDOF 8
ENDMDL
MODEL 8
REMARK VINA RESULT:      -5.8      2.507      5.147
REMARK  8 active torsions:
REMARK  status: ('A' for Active; 'I' for Inactive)
REMARK    1  A    between atoms: C2_2  and  C3_3 
REMARK    2  A    between atoms: C4_4  and  C5_5 
REMARK    3  A    between atoms: C6_6  and  C7_7 
REMARK    4  A    between atoms: C7_7  and  C8_8 
REMARK    5  A    between atoms: C8_8  and  N1_9 
REMARK    6  A    between atoms: N1_9  and  C9_10 
REMARK    7  A    between atoms: C14_16  and  C15_17 
REMARK    8  A    between atoms: C15_17  and  C16_18 
ROOT
HETATM    1  C9  UNL     1      26.002   3.719  49.941  1.00  0.00     0.046 A 
HETATM    2  C10 UNL     1      26.434   4.863  49.333  1.00  0.00     0.049 A 
HETATM    3  C11 UNL     1      25.755   5.879  48.703  1.00  0.00     0.122 A 
HETATM    4  N2  UNL     1      24.414   5.624  48.732  1.00  0.00    -0.236 NA
HETATM    5  C12 UNL     1      23.883   4.563  49.284  1.00  0.00     0.185 A 
HETATM    6  C13 UNL     1      24.595   3.552  49.916  1.00  0.00     0.077 A 
HETATM    7  C14 UNL     1      23.379   2.839  50.210  1.00  0.00     0.094 A 
HETATM    8  O1  UNL     1      22.695   3.842  49.585  1.00  0.00    -0.290 OA
ENDROOT
BRANCH   1   9
HETATM    9  N1  UNL     1      26.706   2.701  50.581  1.00  0.00    -0.389 N 
HETATM   10  H12 UNL     1      27.434   2.172  50.038  1.00  0.00     0.159 HD
BRANCH   9  11
HETATM   11  C8  UNL     1      26.718   2.109  51.898  1.00  0.00     0.123 C 
BRANCH  11  12
HETATM   12  C7  UNL     1      26.792   0.594  51.826  1.00  0.00     0.047 C 
BRANCH  12  13
HETATM   13  C6  UNL     1      27.004   0.041  53.162  1.00  0.00    -0.025 C 
HETATM   14  C5  UNL     1      26.359  -0.487  54.185  1.00  0.00    -0.004 C 
BRANCH  14  15
HETATM   15  C4  UNL     1      24.971  -0.794  54.477  1.00  0.00    -0.004 C 
HETATM   16  C3  UNL     1      23.872  -0.366  53.831  1.00  0.00    -0.021 C 
BRANCH  16  17
HETATM   17  C2  UNL     1      22.706  -0.906  54.449  1.00  0.00     0.034 C 
HETATM   18  C1  UNL     1      21.435  -0.918  54.582  1.00  0.00    -0.008 C 
ENDBRANCH  16  17
ENDBRANCH  14  15
ENDBRANCH  12  13
ENDBRANCH  11  12
ENDBRANCH   9  11
ENDBRANCH   1   9
BRANCH   7  19
HETATM   19  C15 UNL     1      23.031   1.735  50.803  1.00  0.00     0.038 C 
BRANCH  19  20
HETATM   20  C16 UNL     1      21.769   1.241  51.321  1.00  0.00    -0.002 C 
HETATM   21  C17 UNL     1      20.887   0.446  50.653  1.00  0.00    -0.031 C 
HETATM   22  C18 UNL     1      19.795   0.243  51.619  1.00  0.00     0.036 C 
ENDBRANCH  19  20
ENDBRANCH   7  19
TORSDOF 8
ENDMDL
MODEL 9
REMARK VINA RESULT:      -5.7      2.238      4.583
REMARK  8 active torsions:
REMARK  status: ('A' for Active; 'I' for Inactive)
REMARK    1  A    between atoms: C2_2  and  C3_3 
REMARK    2  A    between atoms: C4_4  and  C5_5 
REMARK    3  A    between atoms: C6_6  and  C7_7 
REMARK    4  A    between atoms: C7_7  and  C8_8 
REMARK    5  A    between atoms: C8_8  and  N1_9 
REMARK    6  A    between atoms: N1_9  and  C9_10 
REMARK    7  A    between atoms: C14_16  and  C15_17 
REMARK    8  A    between atoms: C15_17  and  C16_18 
ROOT
HETATM    1  C9  UNL     1      24.564   0.125  53.163  1.00  0.00     0.046 A 
HETATM    2  C10 UNL     1      25.584  -0.763  52.980  1.00  0.00     0.049 A 
HETATM    3  C11 UNL     1      26.772  -0.667  52.292  1.00  0.00     0.122 A 
HETATM    4  N2  UNL     1      26.872   0.568  51.719  1.00  0.00    -0.236 NA
HETATM    5  C12 UNL     1      25.960   1.501  51.824  1.00  0.00     0.185 A 
HETATM    6  C13 UNL     1      24.769   1.374  52.527  1.00  0.00     0.077 A 
HETATM    7  C14 UNL     1      24.383   2.716  52.171  1.00  0.00     0.094 A 
HETATM    8  O1  UNL     1      25.559   2.821  51.485  1.00  0.00    -0.290 OA
ENDROOT
BRANCH   1   9
HETATM    9  N1  UNL     1      23.367   0.011  53.869  1.00  0.00    -0.389 N 
HETATM   10  H12 UNL     1      22.975   0.866  54.338  1.00  0.00     0.159 HD
BRANCH   9  11
HETATM   11  C8  UNL     1      22.430  -1.045  54.168  1.00  0.00     0.123 C 
BRANCH  11  12
HETATM   12  C7  UNL     1      21.123  -0.491  54.710  1.00  0.00     0.047 C 
BRANCH  12  13
HETATM   13  C6  UNL     1      20.142  -0.386  53.631  1.00  0.00    -0.025 C 
HETATM   14  C5  UNL     1      20.025  -0.057  52.359  1.00  0.00    -0.004 C 
BRANCH  14  15
HETATM   15  C4  UNL     1      20.936   0.406  51.329  1.00  0.00    -0.004 C 
HETATM   16  C3  UNL     1      20.639   1.045  50.183  1.00  0.00    -0.021 C 
BRANCH  16  17
HETATM   17  C2  UNL     1      21.835   1.316  49.456  1.00  0.00     0.034 C 
HETATM   18  C1  UNL     1      22.462   2.015  48.588  1.00  0.00    -0.008 C 
ENDBRANCH  16  17
ENDBRANCH  14  15
ENDBRANCH  12  13
ENDBRANCH  11  12
ENDBRANCH   9  11
ENDBRANCH   1   9
BRANCH   7  19
HETATM   19  C15 UNL     1      23.379   3.515  52.382  1.00  0.00     0.038 C 
BRANCH  19  20
HETATM   20  C16 UNL     1      22.487   4.242  51.500  1.00  0.00    -0.002 C 
HETATM   21  C17 UNL     1      21.146   4.406  51.677  1.00  0.00    -0.031 C 
HETATM   22  C18 UNL     1      20.733   5.210  50.515  1.00  0.00     0.036 C 
ENDBRANCH  19  20
ENDBRANCH   7  19
TORSDOF 8
ENDMDL
