MODEL 1
REMARK VINA RESULT:      -8.7      0.000      0.000
REMARK  0 active torsions:
REMARK  status: ('A' for Active; 'I' for Inactive)
ROOT
HETATM    1  F1  UNL     1      29.571  -1.020  53.427  1.00  0.00    -0.206 F 
HETATM    2  C1  UNL     1      28.545  -0.144  53.451  1.00  0.00     0.117 A 
HETATM    3  C2  UNL     1      28.810   1.209  53.506  1.00  0.00     0.045 A 
HETATM    4  C3  UNL     1      27.759   2.098  53.531  1.00  0.00     0.041 A 
HETATM    5  C4  UNL     1      26.425   1.723  53.503  1.00  0.00     0.086 A 
HETATM    6  C5  UNL     1      26.172   0.371  53.448  1.00  0.00    -0.003 A 
HETATM    7  C6  UNL     1      27.225  -0.544  53.422  1.00  0.00     0.054 A 
HETATM    8  C7  UNL     1      24.947  -0.391  53.408  1.00  0.00     0.170 C 
HETATM    9  N1  UNL     1      23.703   0.301  53.372  1.00  0.00    -0.346 N 
HETATM   10  C8  UNL     1      23.007  -0.862  53.904  1.00  0.00     0.088 C 
HETATM   11  C9  UNL     1      21.700  -1.166  54.031  1.00  0.00    -0.008 C 
HETATM   12  C10 UNL     1      20.403  -0.495  53.705  1.00  0.00     0.048 C 
HETATM   13  C11 UNL     1      20.307   0.043  52.343  1.00  0.00     0.125 C 
HETATM   14  N2  UNL     1      20.772   1.375  52.125  1.00  0.00    -0.372 N 
HETATM   15  C12 UNL     1      22.029   2.009  52.450  1.00  0.00     0.156 A 
HETATM   16  N3  UNL     1      21.749   3.278  52.108  1.00  0.00    -0.222 NA
HETATM   17  C13 UNL     1      22.646   4.246  52.240  1.00  0.00     0.238 A 
HETATM   18  N4  UNL     1      23.873   3.998  52.723  1.00  0.00    -0.215 NA
HETATM   19  C14 UNL     1      24.190   2.715  53.080  1.00  0.00     0.202 A 
HETATM   20  C15 UNL     1      23.289   1.636  52.968  1.00  0.00     0.134 A 
HETATM   21  O1  UNL     1      25.523   2.801  53.536  1.00  0.00    -0.289 OA
HETATM   22  H12 UNL     1      20.091   2.008  51.650  1.00  0.00     0.161 HD
ENDROOT
TORSDOF 0
ENDMDL
MODEL 2
REMARK VINA RESULT:      -8.5      3.278      4.872
REMARK  0 active torsions:
REMARK  status: ('A' for Active; 'I' for Inactive)
ROOT
HETATM    1  F1  UNL     1      24.467   6.197  48.875  1.00  0.00    -0.206 F 
HETATM    2  C1  UNL     1      24.961   5.066  49.423  1.00  0.00     0.117 A 
HETATM    3  C2  UNL     1      26.297   4.763  49.265  1.00  0.00     0.045 A 
HETATM    4  C3  UNL     1      26.794   3.608  49.826  1.00  0.00     0.041 A 
HETATM    5  C4  UNL     1      26.031   2.710  50.556  1.00  0.00     0.086 A 
HETATM    6  C5  UNL     1      24.699   3.022  50.708  1.00  0.00    -0.003 A 
HETATM    7  C6  UNL     1      24.179   4.188  50.145  1.00  0.00     0.054 A 
HETATM    8  C7  UNL     1      23.611   2.354  51.380  1.00  0.00     0.170 C 
HETATM    9  N1  UNL     1      23.874   1.148  52.092  1.00  0.00    -0.346 N 
HETATM   10  C8  UNL     1      22.478   0.748  51.990  1.00  0.00     0.088 C 
HETATM   11  C9  UNL     1      21.763  -0.233  52.575  1.00  0.00    -0.008 C 
HETATM   12  C10 UNL     1      22.041  -1.325  53.560  1.00  0.00     0.048 C 
HETATM   13  C11 UNL     1      22.750  -0.902  54.773  1.00  0.00     0.125 C 
HETATM   14  N2  UNL     1      24.177  -0.903  54.737  1.00  0.00    -0.372 N 
HETATM   15  C12 UNL     1      25.106  -0.308  53.804  1.00  0.00     0.156 A 
HETATM   16  N3  UNL     1      26.262  -0.807  54.271  1.00  0.00    -0.222 NA
HETATM   17  C13 UNL     1      27.424  -0.517  53.700  1.00  0.00     0.238 A 
HETATM   18  N4  UNL     1      27.492   0.290  52.630  1.00  0.00    -0.215 NA
HETATM   19  C14 UNL     1      26.331   0.816  52.131  1.00  0.00     0.202 A 
HETATM   20  C15 UNL     1      25.062   0.552  52.685  1.00  0.00     0.134 A 
HETATM   21  O1  UNL     1      26.749   1.600  51.034  1.00  0.00    -0.289 OA
HETATM   22  H12 UNL     1      24.638  -1.423  55.517  1.00  0.00     0.161 HD
ENDROOT
TORSDOF 0
ENDMDL
MODEL 3
REMARK VINA RESULT:      -8.4      2.722      4.851
REMARK  0 active torsions:
REMARK  status: ('A' for Active; 'I' for Inactive)
ROOT
HETATM    1  F1  UNL     1      28.008  -1.486  53.382  1.00  0.00    -0.206 F 
HETATM    2  C1  UNL     1      26.986  -0.670  53.047  1.00  0.00     0.117 A 
HETATM    3  C2  UNL     1      25.702  -1.001  53.427  1.00  0.00     0.045 A 
HETATM    4  C3  UNL     1      24.664  -0.166  53.082  1.00  0.00     0.041 A 
HETATM    5  C4  UNL     1      24.820   1.010  52.366  1.00  0.00     0.086 A 
HETATM    6  C5  UNL     1      26.105   1.331  51.991  1.00  0.00    -0.003 A 
HETATM    7  C6  UNL     1      27.169   0.495  52.332  1.00  0.00     0.054 A 
HETATM    8  C7  UNL     1      26.658   2.441  51.254  1.00  0.00     0.170 C 
HETATM    9  N1  UNL     1      25.790   3.485  50.821  1.00  0.00    -0.346 N 
HETATM   10  C8  UNL     1      26.726   3.871  49.776  1.00  0.00     0.088 C 
HETATM   11  C9  UNL     1      26.793   4.940  48.957  1.00  0.00    -0.008 C 
HETATM   12  C10 UNL     1      25.983   6.179  48.739  1.00  0.00     0.048 C 
HETATM   13  C11 UNL     1      25.661   6.933  49.955  1.00  0.00     0.125 C 
HETATM   14  N2  UNL     1      24.472   6.573  50.659  1.00  0.00    -0.372 N 
HETATM   15  C12 UNL     1      24.004   5.295  51.145  1.00  0.00     0.156 A 
HETATM   16  N3  UNL     1      22.778   5.639  51.573  1.00  0.00    -0.222 NA
HETATM   17  C13 UNL     1      21.958   4.750  52.116  1.00  0.00     0.238 A 
HETATM   18  N4  UNL     1      22.319   3.466  52.261  1.00  0.00    -0.215 NA
HETATM   19  C14 UNL     1      23.563   3.083  51.835  1.00  0.00     0.202 A 
HETATM   20  C15 UNL     1      24.487   3.972  51.250  1.00  0.00     0.134 A 
HETATM   21  O1  UNL     1      23.620   1.704  52.128  1.00  0.00    -0.289 OA
HETATM   22  H12 UNL     1      23.822   7.365  50.862  1.00  0.00     0.161 HD
ENDROOT
TORSDOF 0
ENDMDL
MODEL 4
REMARK VINA RESULT:      -8.3      3.483      6.770
REMARK  0 active torsions:
REMARK  status: ('A' for Active; 'I' for Inactive)
ROOT
HETATM    1  F1  UNL     1      17.664   0.195  49.878  1.00  0.00    -0.206 F 
HETATM    2  C1  UNL     1      18.538   0.087  50.901  1.00  0.00     0.117 A 
HETATM    3  C2  UNL     1      18.100  -0.388  52.120  1.00  0.00     0.045 A 
HETATM    4  C3  UNL     1      18.996  -0.495  53.159  1.00  0.00     0.041 A 
HETATM    5  C4  UNL     1      20.336  -0.154  53.067  1.00  0.00     0.086 A 
HETATM    6  C5  UNL     1      20.763   0.319  51.846  1.00  0.00    -0.003 A 
HETATM    7  C6  UNL     1      19.868   0.434  50.782  1.00  0.00     0.054 A 
HETATM    8  C7  UNL     1      22.049   0.767  51.369  1.00  0.00     0.170 C 
HETATM    9  N1  UNL     1      23.170   0.708  52.245  1.00  0.00    -0.346 N 
HETATM   10  C8  UNL     1      23.864   1.730  51.475  1.00  0.00     0.088 C 
HETATM   11  C9  UNL     1      25.133   2.184  51.493  1.00  0.00    -0.008 C 
HETATM   12  C10 UNL     1      26.375   1.875  52.267  1.00  0.00     0.048 C 
HETATM   13  C11 UNL     1      26.717   0.450  52.349  1.00  0.00     0.125 C 
HETATM   14  N2  UNL     1      26.152  -0.303  53.422  1.00  0.00    -0.372 N 
HETATM   15  C12 UNL     1      24.785  -0.450  53.865  1.00  0.00     0.156 A 
HETATM   16  N3  UNL     1      24.975  -1.164  54.987  1.00  0.00    -0.222 NA
HETATM   17  C13 UNL     1      23.957  -1.543  55.749  1.00  0.00     0.238 A 
HETATM   18  N4  UNL     1      22.693  -1.227  55.430  1.00  0.00    -0.215 NA
HETATM   19  C14 UNL     1      22.465  -0.500  54.293  1.00  0.00     0.202 A 
HETATM   20  C15 UNL     1      23.496  -0.064  53.436  1.00  0.00     0.134 A 
HETATM   21  O1  UNL     1      21.063  -0.346  54.255  1.00  0.00    -0.289 OA
HETATM   22  H12 UNL     1      26.840  -0.844  53.992  1.00  0.00     0.161 HD
ENDROOT
TORSDOF 0
ENDMDL
MODEL 5
REMARK VINA RESULT:      -8.2      3.149      6.134
REMARK  0 active torsions:
REMARK  status: ('A' for Active; 'I' for Inactive)
ROOT
HETATM    1  F1  UNL     1      23.382   4.177  47.898  1.00  0.00    -0.206 F 
HETATM    2  C1  UNL     1      23.416   3.521  49.077  1.00  0.00     0.117 A 
HETATM    3  C2  UNL     1      22.236   3.098  49.653  1.00  0.00     0.045 A 
HETATM    4  C3  UNL     1      22.278   2.430  50.856  1.00  0.00     0.041 A 
HETATM    5  C4  UNL     1      23.446   2.144  51.544  1.00  0.00     0.086 A 
HETATM    6  C5  UNL     1      24.618   2.571  50.962  1.00  0.00    -0.003 A 
HETATM    7  C6  UNL     1      24.594   3.250  49.743  1.00  0.00     0.054 A 
HETATM    8  C7  UNL     1      26.001   2.467  51.362  1.00  0.00     0.170 C 
HETATM    9  N1  UNL     1      26.324   1.768  52.560  1.00  0.00    -0.346 N 
HETATM   10  C8  UNL     1      27.586   2.482  52.673  1.00  0.00     0.088 C 
HETATM   11  C9  UNL     1      28.667   2.309  53.459  1.00  0.00    -0.008 C 
HETATM   12  C10 UNL     1      29.072   1.352  54.536  1.00  0.00     0.048 C 
HETATM   13  C11 UNL     1      28.889  -0.066  54.207  1.00  0.00     0.125 C 
HETATM   14  N2  UNL     1      27.621  -0.652  54.499  1.00  0.00    -0.372 N 
HETATM   15  C12 UNL     1      26.280  -0.242  54.151  1.00  0.00     0.156 A 
HETATM   16  N3  UNL     1      25.568  -1.140  54.851  1.00  0.00    -0.222 NA
HETATM   17  C13 UNL     1      24.242  -1.143  54.830  1.00  0.00     0.238 A 
HETATM   18  N4  UNL     1      23.554  -0.247  54.107  1.00  0.00    -0.215 NA
HETATM   19  C14 UNL     1      24.250   0.683  53.381  1.00  0.00     0.202 A 
HETATM   20  C15 UNL     1      25.659   0.746  53.356  1.00  0.00     0.134 A 
HETATM   21  O1  UNL     1      23.249   1.453  52.752  1.00  0.00    -0.289 OA
HETATM   22  H12 UNL     1      27.660  -1.530  55.063  1.00  0.00     0.161 HD
ENDROOT
TORSDOF 0
ENDMDL
MODEL 6
REMARK VINA RESULT:      -8.1      3.220      5.999
REMARK  0 active torsions:
REMARK  status: ('A' for Active; 'I' for Inactive)
ROOT
HETATM    1  F1  UNL     1      17.896  -1.215  53.791  1.00  0.00    -0.206 F 
HETATM    2  C1  UNL     1      18.870  -0.670  53.032  1.00  0.00     0.117 A 
HETATM    3  C2  UNL     1      18.557  -0.164  51.787  1.00  0.00     0.045 A 
HETATM    4  C3  UNL     1      19.555   0.390  51.018  1.00  0.00     0.041 A 
HETATM    5  C4  UNL     1      20.881   0.478  51.413  1.00  0.00     0.086 A 
HETATM    6  C5  UNL     1      21.183  -0.031  52.656  1.00  0.00    -0.003 A 
HETATM    7  C6  UNL     1      20.183  -0.595  53.449  1.00  0.00     0.054 A 
HETATM    8  C7  UNL     1      22.416  -0.123  53.399  1.00  0.00     0.170 C 
HETATM    9  N1  UNL     1      23.604   0.429  52.840  1.00  0.00    -0.346 N 
HETATM   10  C8  UNL     1      24.432  -0.435  53.668  1.00  0.00     0.088 C 
HETATM   11  C9  UNL     1      25.754  -0.456  53.930  1.00  0.00    -0.008 C 
HETATM   12  C10 UNL     1      26.945   0.352  53.520  1.00  0.00     0.048 C 
HETATM   13  C11 UNL     1      26.784   1.804  53.648  1.00  0.00     0.125 C 
HETATM   14  N2  UNL     1      26.229   2.507  52.536  1.00  0.00    -0.372 N 
HETATM   15  C12 UNL     1      25.017   2.287  51.780  1.00  0.00     0.156 A 
HETATM   16  N3  UNL     1      25.177   3.198  50.807  1.00  0.00    -0.222 NA
HETATM   17  C13 UNL     1      24.273   3.357  49.850  1.00  0.00     0.238 A 
HETATM   18  N4  UNL     1      23.158   2.612  49.814  1.00  0.00    -0.215 NA
HETATM   19  C14 UNL     1      22.965   1.673  50.792  1.00  0.00     0.202 A 
HETATM   20  C15 UNL     1      23.882   1.449  51.839  1.00  0.00     0.134 A 
HETATM   21  O1  UNL     1      21.726   1.082  50.465  1.00  0.00    -0.289 OA
HETATM   22  H12 UNL     1      26.790   3.323  52.205  1.00  0.00     0.161 HD
ENDROOT
TORSDOF 0
ENDMDL
MODEL 7
REMARK VINA RESULT:      -7.7      1.722      3.416
REMARK  0 active torsions:
REMARK  status: ('A' for Active; 'I' for Inactive)
ROOT
HETATM    1  F1  UNL     1      29.480   0.915  53.094  1.00  0.00    -0.206 F 
HETATM    2  C1  UNL     1      28.190   0.519  53.067  1.00  0.00     0.117 A 
HETATM    3  C2  UNL     1      27.860  -0.749  53.496  1.00  0.00     0.045 A 
HETATM    4  C3  UNL     1      26.543  -1.147  53.465  1.00  0.00     0.041 A 
HETATM    5  C4  UNL     1      25.501  -0.346  53.025  1.00  0.00     0.086 A 
HETATM    6  C5  UNL     1      25.840   0.918  52.598  1.00  0.00    -0.003 A 
HETATM    7  C6  UNL     1      27.171   1.337  52.623  1.00  0.00     0.054 A 
HETATM    8  C7  UNL     1      25.060   2.016  52.081  1.00  0.00     0.170 C 
HETATM    9  N1  UNL     1      23.645   1.878  51.994  1.00  0.00    -0.346 N 
HETATM   10  C8  UNL     1      23.576   2.911  50.971  1.00  0.00     0.088 C 
HETATM   11  C9  UNL     1      22.547   3.582  50.418  1.00  0.00    -0.008 C 
HETATM   12  C10 UNL     1      21.059   3.592  50.577  1.00  0.00     0.048 C 
HETATM   13  C11 UNL     1      20.583   3.690  51.961  1.00  0.00     0.125 C 
HETATM   14  N2  UNL     1      20.410   2.473  52.687  1.00  0.00    -0.372 N 
HETATM   15  C12 UNL     1      21.307   1.364  52.914  1.00  0.00     0.156 A 
HETATM   16  N3  UNL     1      20.478   0.512  53.538  1.00  0.00    -0.222 NA
HETATM   17  C13 UNL     1      20.888  -0.682  53.947  1.00  0.00     0.238 A 
HETATM   18  N4  UNL     1      22.152  -1.088  53.754  1.00  0.00    -0.215 NA
HETATM   19  C14 UNL     1      23.023  -0.242  53.122  1.00  0.00     0.202 A 
HETATM   20  C15 UNL     1      22.658   1.039  52.660  1.00  0.00     0.134 A 
HETATM   21  O1  UNL     1      24.237  -0.961  53.083  1.00  0.00    -0.289 OA
HETATM   22  H12 UNL     1      19.473   2.355  53.134  1.00  0.00     0.161 HD
ENDROOT
TORSDOF 0
ENDMDL
MODEL 8
REMARK VINA RESULT:      -7.6      4.231      5.550
REMARK  0 active torsions:
REMARK  status: ('A' for Active; 'I' for Inactive)
ROOT
HETATM    1  F1  UNL     1      25.976   7.823  47.462  1.00  0.00    -0.206 F 
HETATM    2  C1  UNL     1      26.187   6.658  48.111  1.00  0.00     0.117 A 
HETATM    3  C2  UNL     1      27.478   6.212  48.303  1.00  0.00     0.045 A 
HETATM    4  C3  UNL     1      27.685   5.023  48.966  1.00  0.00     0.041 A 
HETATM    5  C4  UNL     1      26.668   4.226  49.466  1.00  0.00     0.086 A 
HETATM    6  C5  UNL     1      25.383   4.680  49.269  1.00  0.00    -0.003 A 
HETATM    7  C6  UNL     1      25.155   5.883  48.599  1.00  0.00     0.054 A 
HETATM    8  C7  UNL     1      24.093   4.145  49.631  1.00  0.00     0.170 C 
HETATM    9  N1  UNL     1      24.032   2.933  50.377  1.00  0.00    -0.346 N 
HETATM   10  C8  UNL     1      22.676   2.681  49.913  1.00  0.00     0.088 C 
HETATM   11  C9  UNL     1      21.733   1.793  50.286  1.00  0.00    -0.008 C 
HETATM   12  C10 UNL     1      21.627   0.698  51.301  1.00  0.00     0.048 C 
HETATM   13  C11 UNL     1      22.038   1.069  52.660  1.00  0.00     0.125 C 
HETATM   14  N2  UNL     1      23.417   0.917  52.996  1.00  0.00    -0.372 N 
HETATM   15  C12 UNL     1      24.615   1.391  52.341  1.00  0.00     0.156 A 
HETATM   16  N3  UNL     1      25.550   0.782  53.088  1.00  0.00    -0.222 NA
HETATM   17  C13 UNL     1      26.844   0.937  52.840  1.00  0.00     0.238 A 
HETATM   18  N4  UNL     1      27.273   1.709  51.831  1.00  0.00    -0.215 NA
HETATM   19  C14 UNL     1      26.345   2.344  51.051  1.00  0.00     0.202 A 
HETATM   20  C15 UNL     1      24.955   2.227  51.254  1.00  0.00     0.134 A 
HETATM   21  O1  UNL     1      27.115   3.057  50.106  1.00  0.00    -0.289 OA
HETATM   22  H12 UNL     1      23.602   0.368  53.865  1.00  0.00     0.161 HD
ENDROOT
TORSDOF 0
ENDMDL
MODEL 9
REMARK VINA RESULT:      -7.3      9.282     12.109
REMARK  0 active torsions:
REMARK  status: ('A' for Active; 'I' for Inactive)
ROOT
HETATM    1  F1  UNL     1      25.276   7.541  47.872  1.00  0.00    -0.206 F 
HETATM    2  C1  UNL     1      26.510   7.013  48.015  1.00  0.00     0.117 A 
HETATM    3  C2  UNL     1      26.646   5.734  48.515  1.00  0.00     0.045 A 
HETATM    4  C3  UNL     1      27.907   5.201  48.659  1.00  0.00     0.041 A 
HETATM    5  C4  UNL     1      29.075   5.871  48.331  1.00  0.00     0.086 A 
HETATM    6  C5  UNL     1      28.928   7.147  47.833  1.00  0.00    -0.003 A 
HETATM    7  C6  UNL     1      27.657   7.702  47.680  1.00  0.00     0.054 A 
HETATM    8  C7  UNL     1      29.880   8.137  47.391  1.00  0.00     0.170 C 
HETATM    9  N1  UNL     1      31.267   7.812  47.392  1.00  0.00    -0.346 N 
HETATM   10  C8  UNL     1      31.628   9.221  47.442  1.00  0.00     0.088 C 
HETATM   11  C9  UNL     1      32.798   9.871  47.284  1.00  0.00    -0.008 C 
HETATM   12  C10 UNL     1      34.214   9.483  46.997  1.00  0.00     0.048 C 
HETATM   13  C11 UNL     1      34.389   8.568  45.864  1.00  0.00     0.125 C 
HETATM   14  N2  UNL     1      34.314   7.167  46.128  1.00  0.00    -0.372 N 
HETATM   15  C12 UNL     1      33.309   6.379  46.804  1.00  0.00     0.156 A 
HETATM   16  N3  UNL     1      33.922   5.184  46.827  1.00  0.00    -0.222 NA
HETATM   17  C13 UNL     1      33.347   4.120  47.372  1.00  0.00     0.238 A 
HETATM   18  N4  UNL     1      32.127   4.194  47.925  1.00  0.00    -0.215 NA
HETATM   19  C14 UNL     1      31.476   5.398  47.917  1.00  0.00     0.202 A 
HETATM   20  C15 UNL     1      32.024   6.569  47.357  1.00  0.00     0.134 A 
HETATM   21  O1  UNL     1      30.248   5.131  48.561  1.00  0.00    -0.289 OA
HETATM   22  H12 UNL     1      35.122   6.607  45.776  1.00  0.00     0.161 HD
ENDROOT
TORSDOF 0
ENDMDL
