MODEL 1
REMARK VINA RESULT:      -8.6      0.000      0.000
REMARK  10 active torsions:
REMARK  status: ('A' for Active; 'I' for Inactive)
REMARK    1  A    between atoms: N1_3  and  C3_4 
REMARK    2  A    between atoms: C8_11  and  O1_12 
REMARK    3  A    between atoms: O1_12  and  C9_13 
REMARK    4  A    between atoms: C9_13  and  O2_14 
REMARK    5  A    between atoms: N4_17  and  C12_18 
REMARK    6  A    between atoms: C12_18  and  N5_19 
REMARK    7  A    between atoms: C12_18  and  C13_20 
REMARK    8  A    between atoms: C16_23  and  O3_24 
REMARK    9  A    between atoms: O3_24  and  C17_25 
REMARK   10  A    between atoms: C17_25  and  C19_27 
ROOT
HETATM    1  C1  UNL     1      23.182   2.835  49.052  1.00  0.00     0.064 C 
HETATM    2  C2  UNL     1      23.228   3.431  50.226  1.00  0.00     0.099 C 
HETATM    3  N1  UNL     1      23.799   4.704  50.456  1.00  0.00    -0.316 N 
HETATM    4  C10 UNL     1      23.325   5.160  51.746  1.00  0.00     0.152 C 
HETATM    5  C11 UNL     1      22.443   4.065  52.286  1.00  0.00     0.147 C 
HETATM    6  N4  UNL     1      22.716   2.897  51.440  1.00  0.00    -0.333 N 
ENDROOT
BRANCH   6   7
HETATM    7  C12 UNL     1      22.494   1.525  51.806  1.00  0.00     0.354 C 
BRANCH   7   8
HETATM    8  N5  UNL     1      21.436   1.423  52.787  1.00  0.00     0.106 N 
HETATM    9  H13 UNL     1      21.197   0.422  53.023  1.00  0.00     0.316 HD
HETATM   10  H14 UNL     1      20.526   1.831  52.430  1.00  0.00     0.316 HD
ENDBRANCH   7   8
BRANCH   7  11
HETATM   11  C13 UNL     1      23.749   0.896  52.348  1.00  0.00    -0.006 A 
HETATM   12  C14 UNL     1      23.601   0.073  53.443  1.00  0.00     0.014 A 
HETATM   13  C15 UNL     1      24.682  -0.556  54.022  1.00  0.00     0.037 A 
HETATM   14  C16 UNL     1      25.957  -0.386  53.527  1.00  0.00     0.069 A 
HETATM   15  C21 UNL     1      26.107   0.452  52.413  1.00  0.00     0.037 A 
HETATM   16  C22 UNL     1      25.009   1.091  51.824  1.00  0.00     0.014 A 
BRANCH  14  17
HETATM   17  O3  UNL     1      27.178  -0.875  53.895  1.00  0.00    -0.346 OA
BRANCH  17  18
HETATM   18  C17 UNL     1      28.361  -0.247  53.536  1.00  0.00     0.124 C 
HETATM   19  C18 UNL     1      29.425  -1.333  53.386  1.00  0.00     0.040 C 
BRANCH  18  20
HETATM   20  C19 UNL     1      28.823   0.756  54.601  1.00  0.00     0.027 C 
HETATM   21  C20 UNL     1      28.918   2.115  53.950  1.00  0.00     0.007 C 
ENDBRANCH  18  20
ENDBRANCH  17  18
ENDBRANCH  14  17
ENDBRANCH   7  11
ENDBRANCH   6   7
BRANCH   3  22
HETATM   22  C3  UNL     1      24.679   5.478  49.649  1.00  0.00     0.145 A 
HETATM   23  N2  UNL     1      24.187   6.667  49.200  1.00  0.00    -0.223 NA
HETATM   24  C4  UNL     1      24.945   7.487  48.419  1.00  0.00     0.236 A 
HETATM   25  N3  UNL     1      26.214   7.130  48.071  1.00  0.00    -0.238 NA
HETATM   26  C5  UNL     1      26.742   5.955  48.496  1.00  0.00     0.105 A 
HETATM   27  C6  UNL     1      25.964   5.131  49.287  1.00  0.00     0.044 A 
HETATM   28  C8  UNL     1      27.757   4.912  48.638  1.00  0.00     0.102 A 
HETATM   29  C7  UNL     1      27.013   4.124  49.396  1.00  0.00     0.057 A 
BRANCH  28  30
HETATM   30  O1  UNL     1      29.024   4.951  48.070  1.00  0.00    -0.324 OA
BRANCH  30  31
HETATM   31  C9  UNL     1      29.936   5.979  48.468  1.00  0.00     0.341 C 
BRANCH  31  32
HETATM   32  O2  UNL     1      30.603   5.627  49.657  1.00  0.00    -0.377 OA
HETATM   33  H7  UNL     1      31.116   6.386  50.036  1.00  0.00     0.212 HD
ENDBRANCH  31  32
ENDBRANCH  30  31
ENDBRANCH  28  30
ENDBRANCH   3  22
TORSDOF 10
ENDMDL
MODEL 2
REMARK VINA RESULT:      -8.0      1.389      6.869
REMARK  10 active torsions:
REMARK  status: ('A' for Active; 'I' for Inactive)
REMARK    1  A    between atoms: N1_3  and  C3_4 
REMARK    2  A    between atoms: C8_11  and  O1_12 
REMARK    3  A    between atoms: O1_12  and  C9_13 
REMARK    4  A    between atoms: C9_13  and  O2_14 
REMARK    5  A    between atoms: N4_17  and  C12_18 
REMARK    6  A    between atoms: C12_18  and  N5_19 
REMARK    7  A    between atoms: C12_18  and  C13_20 
REMARK    8  A    between atoms: C16_23  and  O3_24 
REMARK    9  A    between atoms: O3_24  and  C17_25 
REMARK   10  A    between atoms: C17_25  and  C19_27 
ROOT
HETATM    1  C1  UNL     1      23.621   4.095  52.690  1.00  0.00     0.064 C 
HETATM    2  C2  UNL     1      23.387   3.407  51.592  1.00  0.00     0.099 C 
HETATM    3  N1  UNL     1      23.293   1.996  51.535  1.00  0.00    -0.316 N 
HETATM    4  C10 UNL     1      22.665   1.659  50.274  1.00  0.00     0.152 C 
HETATM    5  C11 UNL     1      22.404   2.963  49.567  1.00  0.00     0.147 C 
HETATM    6  N4  UNL     1      23.191   3.963  50.298  1.00  0.00    -0.333 N 
ENDROOT
BRANCH   6   7
HETATM    7  C12 UNL     1      23.642   5.223  49.775  1.00  0.00     0.354 C 
BRANCH   7   8
HETATM    8  N5  UNL     1      22.841   5.620  48.637  1.00  0.00     0.106 N 
HETATM    9  H13 UNL     1      23.217   6.482  48.158  1.00  0.00     0.316 HD
HETATM   10  H14 UNL     1      21.857   5.889  48.923  1.00  0.00     0.316 HD
ENDBRANCH   7   8
BRANCH   7  11
HETATM   11  C13 UNL     1      25.092   5.159  49.375  1.00  0.00    -0.006 A 
HETATM   12  C14 UNL     1      25.652   6.326  48.903  1.00  0.00     0.014 A 
HETATM   13  C15 UNL     1      26.970   6.385  48.508  1.00  0.00     0.037 A 
HETATM   14  C16 UNL     1      27.784   5.274  48.570  1.00  0.00     0.069 A 
HETATM   15  C21 UNL     1      27.214   4.086  49.050  1.00  0.00     0.037 A 
HETATM   16  C22 UNL     1      25.874   4.027  49.451  1.00  0.00     0.014 A 
BRANCH  14  17
HETATM   17  O3  UNL     1      29.094   5.052  48.253  1.00  0.00    -0.346 OA
BRANCH  17  18
HETATM   18  C17 UNL     1      30.055   6.047  48.356  1.00  0.00     0.124 C 
HETATM   19  C18 UNL     1      30.013   6.855  47.060  1.00  0.00     0.040 C 
BRANCH  18  20
HETATM   20  C19 UNL     1      31.463   5.466  48.535  1.00  0.00     0.027 C 
HETATM   21  C20 UNL     1      31.702   4.475  47.421  1.00  0.00     0.007 C 
ENDBRANCH  18  20
ENDBRANCH  17  18
ENDBRANCH  14  17
ENDBRANCH   7  11
ENDBRANCH   6   7
BRANCH   3  22
HETATM   22  C3  UNL     1      23.702   1.008  52.473  1.00  0.00     0.145 A 
HETATM   23  N2  UNL     1      22.712   0.460  53.232  1.00  0.00    -0.223 NA
HETATM   24  C4  UNL     1      22.992  -0.496  54.162  1.00  0.00     0.236 A 
HETATM   25  N3  UNL     1      24.274  -0.921  54.351  1.00  0.00    -0.238 NA
HETATM   26  C5  UNL     1      25.288  -0.402  53.616  1.00  0.00     0.105 A 
HETATM   27  C6  UNL     1      24.993   0.567  52.676  1.00  0.00     0.044 A 
HETATM   28  C8  UNL     1      26.670  -0.228  53.167  1.00  0.00     0.102 A 
HETATM   29  C7  UNL     1      26.387   0.699  52.267  1.00  0.00     0.057 A 
BRANCH  28  30
HETATM   30  O1  UNL     1      27.764  -0.921  53.669  1.00  0.00    -0.324 OA
BRANCH  30  31
HETATM   31  C9  UNL     1      28.898  -0.187  54.139  1.00  0.00     0.341 C 
BRANCH  31  32
HETATM   32  O2  UNL     1      28.517   0.760  55.108  1.00  0.00    -0.377 OA
HETATM   33  H7  UNL     1      28.815   0.504  56.018  1.00  0.00     0.212 HD
ENDBRANCH  31  32
ENDBRANCH  30  31
ENDBRANCH  28  30
ENDBRANCH   3  22
TORSDOF 10
ENDMDL
MODEL 3
REMARK VINA RESULT:      -7.2      3.685      7.418
REMARK  10 active torsions:
REMARK  status: ('A' for Active; 'I' for Inactive)
REMARK    1  A    between atoms: N1_3  and  C3_4 
REMARK    2  A    between atoms: C8_11  and  O1_12 
REMARK    3  A    between atoms: O1_12  and  C9_13 
REMARK    4  A    between atoms: C9_13  and  O2_14 
REMARK    5  A    between atoms: N4_17  and  C12_18 
REMARK    6  A    between atoms: C12_18  and  N5_19 
REMARK    7  A    between atoms: C12_18  and  C13_20 
REMARK    8  A    between atoms: C16_23  and  O3_24 
REMARK    9  A    between atoms: O3_24  and  C17_25 
REMARK   10  A    between atoms: C17_25  and  C19_27 
ROOT
HETATM    1  C1  UNL     1      29.760   8.483  45.920  1.00  0.00     0.064 C 
HETATM    2  C2  UNL     1      29.645   8.587  47.228  1.00  0.00     0.099 C 
HETATM    3  N1  UNL     1      30.736   8.693  48.122  1.00  0.00    -0.316 N 
HETATM    4  C10 UNL     1      30.210   9.162  49.387  1.00  0.00     0.152 C 
HETATM    5  C11 UNL     1      28.723   9.312  49.200  1.00  0.00     0.147 C 
HETATM    6  N4  UNL     1      28.419   8.609  47.948  1.00  0.00    -0.333 N 
ENDROOT
BRANCH   6   7
HETATM    7  C12 UNL     1      27.138   8.077  47.574  1.00  0.00     0.354 C 
BRANCH   7   8
HETATM    8  N5  UNL     1      26.076   8.981  47.961  1.00  0.00     0.106 N 
HETATM    9  H13 UNL     1      25.176   8.795  47.442  1.00  0.00     0.316 HD
HETATM   10  H14 UNL     1      26.309   9.987  47.725  1.00  0.00     0.316 HD
ENDBRANCH   7   8
BRANCH   7  11
HETATM   11  C13 UNL     1      26.905   6.727  48.197  1.00  0.00    -0.006 A 
HETATM   12  C14 UNL     1      25.646   6.493  48.707  1.00  0.00     0.014 A 
HETATM   13  C15 UNL     1      25.321   5.293  49.300  1.00  0.00     0.037 A 
HETATM   14  C16 UNL     1      26.245   4.276  49.408  1.00  0.00     0.069 A 
HETATM   15  C21 UNL     1      27.526   4.515  48.890  1.00  0.00     0.037 A 
HETATM   16  C22 UNL     1      27.857   5.734  48.287  1.00  0.00     0.014 A 
BRANCH  14  17
HETATM   17  O3  UNL     1      26.196   3.017  49.934  1.00  0.00    -0.346 OA
BRANCH  17  18
HETATM   18  C17 UNL     1      25.972   2.791  51.284  1.00  0.00     0.124 C 
HETATM   19  C18 UNL     1      26.738   1.524  51.666  1.00  0.00     0.040 C 
BRANCH  18  20
HETATM   20  C19 UNL     1      24.484   2.584  51.592  1.00  0.00     0.027 C 
HETATM   21  C20 UNL     1      24.111   3.509  52.726  1.00  0.00     0.007 C 
ENDBRANCH  18  20
ENDBRANCH  17  18
ENDBRANCH  14  17
ENDBRANCH   7  11
ENDBRANCH   6   7
BRANCH   3  22
HETATM   22  C3  UNL     1      32.118   8.421  47.924  1.00  0.00     0.145 A 
HETATM   23  N2  UNL     1      32.863   9.446  47.421  1.00  0.00    -0.223 NA
HETATM   24  C4  UNL     1      34.197   9.294  47.192  1.00  0.00     0.236 A 
HETATM   25  N3  UNL     1      34.814   8.108  47.462  1.00  0.00    -0.238 NA
HETATM   26  C5  UNL     1      34.110   7.063  47.963  1.00  0.00     0.105 A 
HETATM   27  C6  UNL     1      32.757   7.228  48.191  1.00  0.00     0.044 A 
HETATM   28  C8  UNL     1      33.894   5.706  48.466  1.00  0.00     0.102 A 
HETATM   29  C7  UNL     1      32.600   5.865  48.685  1.00  0.00     0.057 A 
BRANCH  28  30
HETATM   30  O1  UNL     1      34.879   4.734  48.586  1.00  0.00    -0.324 OA
BRANCH  30  31
HETATM   31  C9  UNL     1      34.804   3.561  47.771  1.00  0.00     0.341 C 
BRANCH  31  32
HETATM   32  O2  UNL     1      34.036   2.562  48.399  1.00  0.00    -0.377 OA
HETATM   33  H7  UNL     1      34.501   2.170  49.182  1.00  0.00     0.212 HD
ENDBRANCH  31  32
ENDBRANCH  30  31
ENDBRANCH  28  30
ENDBRANCH   3  22
TORSDOF 10
ENDMDL
MODEL 4
REMARK VINA RESULT:      -7.2      1.979      7.018
REMARK  10 active torsions:
REMARK  status: ('A' for Active; 'I' for Inactive)
REMARK    1  A    between atoms: N1_3  and  C3_4 
REMARK    2  A    between atoms: C8_11  and  O1_12 
REMARK    3  A    between atoms: O1_12  and  C9_13 
REMARK    4  A    between atoms: C9_13  and  O2_14 
REMARK    5  A    between atoms: N4_17  and  C12_18 
REMARK    6  A    between atoms: C12_18  and  N5_19 
REMARK    7  A    between atoms: C12_18  and  C13_20 
REMARK    8  A    between atoms: C16_23  and  O3_24 
REMARK    9  A    between atoms: O3_24  and  C17_25 
REMARK   10  A    between atoms: C17_25  and  C19_27 
ROOT
HETATM    1  C1  UNL     1      23.488   4.417  52.796  1.00  0.00     0.064 C 
HETATM    2  C2  UNL     1      23.294   3.845  51.626  1.00  0.00     0.099 C 
HETATM    3  N1  UNL     1      23.488   2.468  51.365  1.00  0.00    -0.316 N 
HETATM    4  C10 UNL     1      22.823   2.170  50.114  1.00  0.00     0.152 C 
HETATM    5  C11 UNL     1      22.231   3.467  49.628  1.00  0.00     0.147 C 
HETATM    6  N4  UNL     1      22.862   4.510  50.445  1.00  0.00    -0.333 N 
ENDROOT
BRANCH   6   7
HETATM    7  C12 UNL     1      22.991   5.896  50.087  1.00  0.00     0.354 C 
BRANCH   7   8
HETATM    8  N5  UNL     1      22.099   6.226  48.996  1.00  0.00     0.106 N 
HETATM    9  H13 UNL     1      22.469   7.009  48.392  1.00  0.00     0.316 HD
HETATM   10  H14 UNL     1      21.166   6.586  49.345  1.00  0.00     0.316 HD
ENDBRANCH   7   8
BRANCH   7  11
HETATM   11  C13 UNL     1      24.406   6.230  49.701  1.00  0.00    -0.006 A 
HETATM   12  C14 UNL     1      24.863   7.480  50.059  1.00  0.00     0.014 A 
HETATM   13  C15 UNL     1      26.142   7.893  49.757  1.00  0.00     0.037 A 
HETATM   14  C16 UNL     1      27.018   7.070  49.083  1.00  0.00     0.069 A 
HETATM   15  C21 UNL     1      26.553   5.798  48.719  1.00  0.00     0.037 A 
HETATM   16  C22 UNL     1      25.253   5.378  49.025  1.00  0.00     0.014 A 
BRANCH  14  17
HETATM   17  O3  UNL     1      28.310   7.218  48.665  1.00  0.00    -0.346 OA
BRANCH  17  18
HETATM   18  C17 UNL     1      28.676   7.068  47.336  1.00  0.00     0.124 C 
HETATM   19  C18 UNL     1      30.202   7.003  47.289  1.00  0.00     0.040 C 
BRANCH  18  20
HETATM   20  C19 UNL     1      28.202   8.246  46.475  1.00  0.00     0.027 C 
HETATM   21  C20 UNL     1      28.879   9.495  46.984  1.00  0.00     0.007 C 
ENDBRANCH  18  20
ENDBRANCH  17  18
ENDBRANCH  14  17
ENDBRANCH   7  11
ENDBRANCH   6   7
BRANCH   3  22
HETATM   22  C3  UNL     1      24.182   1.478  52.115  1.00  0.00     0.145 A 
HETATM   23  N2  UNL     1      23.409   0.513  52.688  1.00  0.00    -0.223 NA
HETATM   24  C4  UNL     1      23.970  -0.484  53.429  1.00  0.00     0.236 A 
HETATM   25  N3  UNL     1      25.320  -0.532  53.611  1.00  0.00    -0.238 NA
HETATM   26  C5  UNL     1      26.125   0.409  53.059  1.00  0.00     0.105 A 
HETATM   27  C6  UNL     1      25.546   1.415  52.310  1.00  0.00     0.044 A 
HETATM   28  C8  UNL     1      27.386   1.080  52.741  1.00  0.00     0.102 A 
HETATM   29  C7  UNL     1      26.831   2.042  52.024  1.00  0.00     0.057 A 
BRANCH  28  30
HETATM   30  O1  UNL     1      28.640   0.662  53.166  1.00  0.00    -0.324 OA
BRANCH  30  31
HETATM   31  C9  UNL     1      29.119   1.081  54.447  1.00  0.00     0.341 C 
BRANCH  31  32
HETATM   32  O2  UNL     1      29.425   2.455  54.444  1.00  0.00    -0.377 OA
HETATM   33  H7  UNL     1      30.350   2.632  54.752  1.00  0.00     0.212 HD
ENDBRANCH  31  32
ENDBRANCH  30  31
ENDBRANCH  28  30
ENDBRANCH   3  22
TORSDOF 10
ENDMDL
MODEL 5
REMARK VINA RESULT:      -7.1      2.146      7.816
REMARK  10 active torsions:
REMARK  status: ('A' for Active; 'I' for Inactive)
REMARK    1  A    between atoms: N1_3  and  C3_4 
REMARK    2  A    between atoms: C8_11  and  O1_12 
REMARK    3  A    between atoms: O1_12  and  C9_13 
REMARK    4  A    between atoms: C9_13  and  O2_14 
REMARK    5  A    between atoms: N4_17  and  C12_18 
REMARK    6  A    between atoms: C12_18  and  N5_19 
REMARK    7  A    between atoms: C12_18  and  C13_20 
REMARK    8  A    between atoms: C16_23  and  O3_24 
REMARK    9  A    between atoms: O3_24  and  C17_25 
REMARK   10  A    between atoms: C17_25  and  C19_27 
ROOT
HETATM    1  C1  UNL     1      23.375   5.037  51.825  1.00  0.00     0.064 C 
HETATM    2  C2  UNL     1      23.474   4.386  50.684  1.00  0.00     0.099 C 
HETATM    3  N1  UNL     1      23.577   2.980  50.570  1.00  0.00    -0.316 N 
HETATM    4  C10 UNL     1      23.286   2.639  49.193  1.00  0.00     0.152 C 
HETATM    5  C11 UNL     1      23.020   3.939  48.480  1.00  0.00     0.147 C 
HETATM    6  N4  UNL     1      23.494   4.984  49.394  1.00  0.00    -0.333 N 
ENDROOT
BRANCH   6   7
HETATM    7  C12 UNL     1      23.883   6.315  49.018  1.00  0.00     0.354 C 
BRANCH   7   8
HETATM    8  N5  UNL     1      23.065   6.798  47.925  1.00  0.00     0.106 N 
HETATM    9  H13 UNL     1      23.210   6.248  47.037  1.00  0.00     0.316 HD
HETATM   10  H14 UNL     1      23.310   7.793  47.659  1.00  0.00     0.316 HD
ENDBRANCH   7   8
BRANCH   7  11
HETATM   11  C13 UNL     1      25.334   6.369  48.623  1.00  0.00    -0.006 A 
HETATM   12  C14 UNL     1      25.730   7.457  47.877  1.00  0.00     0.014 A 
HETATM   13  C15 UNL     1      27.034   7.610  47.460  1.00  0.00     0.037 A 
HETATM   14  C16 UNL     1      27.998   6.676  47.775  1.00  0.00     0.069 A 
HETATM   15  C21 UNL     1      27.595   5.568  48.535  1.00  0.00     0.037 A 
HETATM   16  C22 UNL     1      26.270   5.413  48.958  1.00  0.00     0.014 A 
BRANCH  14  17
HETATM   17  O3  UNL     1      29.332   6.577  47.501  1.00  0.00    -0.346 OA
BRANCH  17  18
HETATM   18  C17 UNL     1      30.238   6.074  48.423  1.00  0.00     0.124 C 
HETATM   19  C18 UNL     1      31.032   7.258  48.973  1.00  0.00     0.040 C 
BRANCH  18  20
HETATM   20  C19 UNL     1      31.212   5.076  47.783  1.00  0.00     0.027 C 
HETATM   21  C20 UNL     1      32.033   5.822  46.758  1.00  0.00     0.007 C 
ENDBRANCH  18  20
ENDBRANCH  17  18
ENDBRANCH  14  17
ENDBRANCH   7  11
ENDBRANCH   6   7
BRANCH   3  22
HETATM   22  C3  UNL     1      23.896   1.998  51.549  1.00  0.00     0.145 A 
HETATM   23  N2  UNL     1      25.210   1.644  51.633  1.00  0.00    -0.223 NA
HETATM   24  C4  UNL     1      25.626   0.712  52.536  1.00  0.00     0.236 A 
HETATM   25  N3  UNL     1      24.731   0.114  53.374  1.00  0.00    -0.238 NA
HETATM   26  C5  UNL     1      23.415   0.439  53.323  1.00  0.00     0.105 A 
HETATM   27  C6  UNL     1      23.004   1.384  52.403  1.00  0.00     0.044 A 
HETATM   28  C8  UNL     1      22.002   0.383  53.698  1.00  0.00     0.102 A 
HETATM   29  C7  UNL     1      21.610   1.288  52.819  1.00  0.00     0.057 A 
BRANCH  28  30
HETATM   30  O1  UNL     1      21.473  -0.434  54.689  1.00  0.00    -0.324 OA
BRANCH  30  31
HETATM   31  C9  UNL     1      21.886  -1.802  54.759  1.00  0.00     0.341 C 
BRANCH  31  32
HETATM   32  O2  UNL     1      22.815  -1.993  55.800  1.00  0.00    -0.377 OA
HETATM   33  H7  UNL     1      23.528  -1.305  55.795  1.00  0.00     0.212 HD
ENDBRANCH  31  32
ENDBRANCH  30  31
ENDBRANCH  28  30
ENDBRANCH   3  22
TORSDOF 10
ENDMDL
MODEL 6
REMARK VINA RESULT:      -7.1      2.592      7.970
REMARK  10 active torsions:
REMARK  status: ('A' for Active; 'I' for Inactive)
REMARK    1  A    between atoms: N1_3  and  C3_4 
REMARK    2  A    between atoms: C8_11  and  O1_12 
REMARK    3  A    between atoms: O1_12  and  C9_13 
REMARK    4  A    between atoms: C9_13  and  O2_14 
REMARK    5  A    between atoms: N4_17  and  C12_18 
REMARK    6  A    between atoms: C12_18  and  N5_19 
REMARK    7  A    between atoms: C12_18  and  C13_20 
REMARK    8  A    between atoms: C16_23  and  O3_24 
REMARK    9  A    between atoms: O3_24  and  C17_25 
REMARK   10  A    between atoms: C17_25  and  C19_27 
ROOT
HETATM    1  C1  UNL     1      26.142   3.095  50.569  1.00  0.00     0.064 C 
HETATM    2  C2  UNL     1      25.125   3.521  51.288  1.00  0.00     0.099 C 
HETATM    3  N1  UNL     1      24.604   2.847  52.417  1.00  0.00    -0.316 N 
HETATM    4  C10 UNL     1      23.774   3.792  53.136  1.00  0.00     0.152 C 
HETATM    5  C11 UNL     1      23.816   5.077  52.351  1.00  0.00     0.147 C 
HETATM    6  N4  UNL     1      24.392   4.716  51.050  1.00  0.00    -0.333 N 
ENDROOT
BRANCH   6   7
HETATM    7  C12 UNL     1      24.224   5.448  49.825  1.00  0.00     0.354 C 
BRANCH   7   8
HETATM    8  N5  UNL     1      24.078   4.543  48.705  1.00  0.00     0.106 N 
HETATM    9  H13 UNL     1      24.220   5.022  47.776  1.00  0.00     0.316 HD
HETATM   10  H14 UNL     1      23.098   4.145  48.645  1.00  0.00     0.316 HD
ENDBRANCH   7   8
BRANCH   7  11
HETATM   11  C13 UNL     1      25.385   6.373  49.579  1.00  0.00    -0.006 A 
HETATM   12  C14 UNL     1      26.269   6.001  48.590  1.00  0.00     0.014 A 
HETATM   13  C15 UNL     1      27.368   6.772  48.279  1.00  0.00     0.037 A 
HETATM   14  C16 UNL     1      27.627   7.950  48.948  1.00  0.00     0.069 A 
HETATM   15  C21 UNL     1      26.727   8.328  49.955  1.00  0.00     0.037 A 
HETATM   16  C22 UNL     1      25.610   7.545  50.270  1.00  0.00     0.014 A 
BRANCH  14  17
HETATM   17  O3  UNL     1      28.616   8.886  48.849  1.00  0.00    -0.346 OA
BRANCH  17  18
HETATM   18  C17 UNL     1      28.352  10.202  48.500  1.00  0.00     0.124 C 
HETATM   19  C18 UNL     1      28.083  10.228  46.996  1.00  0.00     0.040 C 
BRANCH  18  20
HETATM   20  C19 UNL     1      29.537  11.126  48.809  1.00  0.00     0.027 C 
HETATM   21  C20 UNL     1      28.998  12.523  49.005  1.00  0.00     0.007 C 
ENDBRANCH  18  20
ENDBRANCH  17  18
ENDBRANCH  14  17
ENDBRANCH   7  11
ENDBRANCH   6   7
BRANCH   3  22
HETATM   22  C3  UNL     1      24.792   1.508  52.857  1.00  0.00     0.145 A 
HETATM   23  N2  UNL     1      23.667   0.742  52.936  1.00  0.00    -0.223 NA
HETATM   24  C4  UNL     1      23.732  -0.556  53.347  1.00  0.00     0.236 A 
HETATM   25  N3  UNL     1      24.929  -1.113  53.688  1.00  0.00    -0.238 NA
HETATM   26  C5  UNL     1      26.072  -0.386  53.623  1.00  0.00     0.105 A 
HETATM   27  C6  UNL     1      25.994   0.929  53.206  1.00  0.00     0.044 A 
HETATM   28  C8  UNL     1      27.506  -0.124  53.744  1.00  0.00     0.102 A 
HETATM   29  C7  UNL     1      27.431   1.134  53.345  1.00  0.00     0.057 A 
BRANCH  28  30
HETATM   30  O1  UNL     1      28.453  -1.049  54.165  1.00  0.00    -0.324 OA
BRANCH  30  31
HETATM   31  C9  UNL     1      29.065  -1.908  53.199  1.00  0.00     0.341 C 
BRANCH  31  32
HETATM   32  O2  UNL     1      28.753  -3.257  53.456  1.00  0.00    -0.377 OA
HETATM   33  H7  UNL     1      28.733  -3.800  52.627  1.00  0.00     0.212 HD
ENDBRANCH  31  32
ENDBRANCH  30  31
ENDBRANCH  28  30
ENDBRANCH   3  22
TORSDOF 10
ENDMDL
MODEL 7
REMARK VINA RESULT:      -6.9      5.789      9.755
REMARK  10 active torsions:
REMARK  status: ('A' for Active; 'I' for Inactive)
REMARK    1  A    between atoms: N1_3  and  C3_4 
REMARK    2  A    between atoms: C8_11  and  O1_12 
REMARK    3  A    between atoms: O1_12  and  C9_13 
REMARK    4  A    between atoms: C9_13  and  O2_14 
REMARK    5  A    between atoms: N4_17  and  C12_18 
REMARK    6  A    between atoms: C12_18  and  N5_19 
REMARK    7  A    between atoms: C12_18  and  C13_20 
REMARK    8  A    between atoms: C16_23  and  O3_24 
REMARK    9  A    between atoms: O3_24  and  C17_25 
REMARK   10  A    between atoms: C17_25  and  C19_27 
ROOT
HETATM    1  C1  UNL     1      20.369   0.683  50.368  1.00  0.00     0.064 C 
HETATM    2  C2  UNL     1      20.413   1.770  51.111  1.00  0.00     0.099 C 
HETATM    3  N1  UNL     1      21.174   1.900  52.296  1.00  0.00    -0.316 N 
HETATM    4  C10 UNL     1      21.260   3.314  52.598  1.00  0.00     0.152 C 
HETATM    5  C11 UNL     1      20.482   4.026  51.522  1.00  0.00     0.147 C 
HETATM    6  N4  UNL     1      19.709   2.977  50.846  1.00  0.00    -0.333 N 
ENDROOT
BRANCH   6   7
HETATM    7  C12 UNL     1      18.506   3.177  50.088  1.00  0.00     0.354 C 
BRANCH   7   8
HETATM    8  N5  UNL     1      18.503   4.485  49.469  1.00  0.00     0.106 N 
HETATM    9  H13 UNL     1      19.471   4.898  49.388  1.00  0.00     0.316 HD
HETATM   10  H14 UNL     1      17.966   5.193  50.046  1.00  0.00     0.316 HD
ENDBRANCH   7   8
BRANCH   7  11
HETATM   11  C13 UNL     1      17.284   3.026  50.954  1.00  0.00    -0.006 A 
HETATM   12  C14 UNL     1      16.820   4.168  51.570  1.00  0.00     0.014 A 
HETATM   13  C15 UNL     1      15.710   4.146  52.385  1.00  0.00     0.037 A 
HETATM   14  C16 UNL     1      15.017   2.977  52.617  1.00  0.00     0.069 A 
HETATM   15  C21 UNL     1      15.490   1.815  51.991  1.00  0.00     0.037 A 
HETATM   16  C22 UNL     1      16.618   1.837  51.162  1.00  0.00     0.014 A 
BRANCH  14  17
HETATM   17  O3  UNL     1      13.912   2.675  53.361  1.00  0.00    -0.346 OA
BRANCH  17  18
HETATM   18  C17 UNL     1      12.663   3.204  53.073  1.00  0.00     0.124 C 
HETATM   19  C18 UNL     1      12.439   4.382  54.020  1.00  0.00     0.040 C 
BRANCH  18  20
HETATM   20  C19 UNL     1      11.543   2.177  53.283  1.00  0.00     0.027 C 
HETATM   21  C20 UNL     1      11.134   2.226  54.736  1.00  0.00     0.007 C 
ENDBRANCH  18  20
ENDBRANCH  17  18
ENDBRANCH  14  17
ENDBRANCH   7  11
ENDBRANCH   6   7
BRANCH   3  22
HETATM   22  C3  UNL     1      21.783   0.907  53.113  1.00  0.00     0.145 A 
HETATM   23  N2  UNL     1      20.960   0.272  53.995  1.00  0.00    -0.223 NA
HETATM   24  C4  UNL     1      21.439  -0.696  54.826  1.00  0.00     0.236 A 
HETATM   25  N3  UNL     1      22.756  -1.047  54.789  1.00  0.00    -0.238 NA
HETATM   26  C5  UNL     1      23.609  -0.441  53.927  1.00  0.00     0.105 A 
HETATM   27  C6  UNL     1      23.112   0.540  53.089  1.00  0.00     0.044 A 
HETATM   28  C8  UNL     1      24.888  -0.166  53.272  1.00  0.00     0.102 A 
HETATM   29  C7  UNL     1      24.412   0.772  52.470  1.00  0.00     0.057 A 
BRANCH  28  30
HETATM   30  O1  UNL     1      26.085  -0.807  53.563  1.00  0.00    -0.324 OA
BRANCH  30  31
HETATM   31  C9  UNL     1      26.777  -1.499  52.520  1.00  0.00     0.341 C 
BRANCH  31  32
HETATM   32  O2  UNL     1      27.323  -2.707  52.994  1.00  0.00    -0.377 OA
HETATM   33  H7  UNL     1      27.301  -3.422  52.308  1.00  0.00     0.212 HD
ENDBRANCH  31  32
ENDBRANCH  30  31
ENDBRANCH  28  30
ENDBRANCH   3  22
TORSDOF 10
ENDMDL
MODEL 8
REMARK VINA RESULT:      -6.8      4.558      8.035
REMARK  10 active torsions:
REMARK  status: ('A' for Active; 'I' for Inactive)
REMARK    1  A    between atoms: N1_3  and  C3_4 
REMARK    2  A    between atoms: C8_11  and  O1_12 
REMARK    3  A    between atoms: O1_12  and  C9_13 
REMARK    4  A    between atoms: C9_13  and  O2_14 
REMARK    5  A    between atoms: N4_17  and  C12_18 
REMARK    6  A    between atoms: C12_18  and  N5_19 
REMARK    7  A    between atoms: C12_18  and  C13_20 
REMARK    8  A    between atoms: C16_23  and  O3_24 
REMARK    9  A    between atoms: O3_24  and  C17_25 
REMARK   10  A    between atoms: C17_25  and  C19_27 
ROOT
HETATM    1  C1  UNL     1      29.924   8.205  46.030  1.00  0.00     0.064 C 
HETATM    2  C2  UNL     1      30.458   7.895  47.193  1.00  0.00     0.099 C 
HETATM    3  N1  UNL     1      31.570   7.037  47.361  1.00  0.00    -0.316 N 
HETATM    4  C10 UNL     1      32.077   7.248  48.701  1.00  0.00     0.152 C 
HETATM    5  C11 UNL     1      31.181   8.278  49.337  1.00  0.00     0.147 C 
HETATM    6  N4  UNL     1      30.009   8.366  48.458  1.00  0.00    -0.333 N 
ENDROOT
BRANCH   6   7
HETATM    7  C12 UNL     1      28.706   8.837  48.839  1.00  0.00     0.354 C 
BRANCH   7   8
HETATM    8  N5  UNL     1      28.778   9.600  50.066  1.00  0.00     0.106 N 
HETATM    9  H13 UNL     1      28.075  10.387  50.096  1.00  0.00     0.316 HD
HETATM   10  H14 UNL     1      29.714  10.083  50.176  1.00  0.00     0.316 HD
ENDBRANCH   7   8
BRANCH   7  11
HETATM   11  C13 UNL     1      27.742   7.694  49.010  1.00  0.00    -0.006 A 
HETATM   12  C14 UNL     1      26.612   7.948  49.757  1.00  0.00     0.014 A 
HETATM   13  C15 UNL     1      25.662   6.976  49.979  1.00  0.00     0.037 A 
HETATM   14  C16 UNL     1      25.804   5.706  49.461  1.00  0.00     0.069 A 
HETATM   15  C21 UNL     1      26.954   5.448  48.702  1.00  0.00     0.037 A 
HETATM   16  C22 UNL     1      27.920   6.436  48.476  1.00  0.00     0.014 A 
BRANCH  14  17
HETATM   17  O3  UNL     1      25.037   4.578  49.522  1.00  0.00    -0.346 OA
BRANCH  17  18
HETATM   18  C17 UNL     1      24.673   3.999  50.729  1.00  0.00     0.124 C 
HETATM   19  C18 UNL     1      25.519   2.739  50.902  1.00  0.00     0.040 C 
BRANCH  18  20
HETATM   20  C19 UNL     1      23.190   3.609  50.753  1.00  0.00     0.027 C 
HETATM   21  C20 UNL     1      23.023   2.363  49.918  1.00  0.00     0.007 C 
ENDBRANCH  18  20
ENDBRANCH  17  18
ENDBRANCH  14  17
ENDBRANCH   7  11
ENDBRANCH   6   7
BRANCH   3  22
HETATM   22  C3  UNL     1      32.162   6.110  46.458  1.00  0.00     0.145 A 
HETATM   23  N2  UNL     1      32.651   6.634  45.299  1.00  0.00    -0.223 NA
HETATM   24  C4  UNL     1      33.238   5.836  44.364  1.00  0.00     0.236 A 
HETATM   25  N3  UNL     1      33.346   4.492  44.572  1.00  0.00    -0.238 NA
HETATM   26  C5  UNL     1      32.872   3.931  45.712  1.00  0.00     0.105 A 
HETATM   27  C6  UNL     1      32.278   4.749  46.653  1.00  0.00     0.044 A 
HETATM   28  C8  UNL     1      32.575   2.853  46.655  1.00  0.00     0.102 A 
HETATM   29  C7  UNL     1      32.007   3.637  47.556  1.00  0.00     0.057 A 
BRANCH  28  30
HETATM   30  O1  UNL     1      32.882   1.513  46.457  1.00  0.00    -0.324 OA
BRANCH  30  31
HETATM   31  C9  UNL     1      31.863   0.528  46.652  1.00  0.00     0.341 C 
BRANCH  31  32
HETATM   32  O2  UNL     1      30.773   0.754  45.790  1.00  0.00    -0.377 OA
HETATM   33  H7  UNL     1      30.808   1.653  45.372  1.00  0.00     0.212 HD
ENDBRANCH  31  32
ENDBRANCH  30  31
ENDBRANCH  28  30
ENDBRANCH   3  22
TORSDOF 10
ENDMDL
MODEL 9
REMARK VINA RESULT:      -6.7      1.810      6.996
REMARK  10 active torsions:
REMARK  status: ('A' for Active; 'I' for Inactive)
REMARK    1  A    between atoms: N1_3  and  C3_4 
REMARK    2  A    between atoms: C8_11  and  O1_12 
REMARK    3  A    between atoms: O1_12  and  C9_13 
REMARK    4  A    between atoms: C9_13  and  O2_14 
REMARK    5  A    between atoms: N4_17  and  C12_18 
REMARK    6  A    between atoms: C12_18  and  N5_19 
REMARK    7  A    between atoms: C12_18  and  C13_20 
REMARK    8  A    between atoms: C16_23  and  O3_24 
REMARK    9  A    between atoms: O3_24  and  C17_25 
REMARK   10  A    between atoms: C17_25  and  C19_27 
ROOT
HETATM    1  C1  UNL     1      23.532   6.093  51.160  1.00  0.00     0.064 C 
HETATM    2  C2  UNL     1      23.489   5.369  50.061  1.00  0.00     0.099 C 
HETATM    3  N1  UNL     1      23.458   3.955  50.035  1.00  0.00    -0.316 N 
HETATM    4  C10 UNL     1      23.037   3.559  48.707  1.00  0.00     0.152 C 
HETATM    5  C11 UNL     1      22.836   4.833  47.928  1.00  0.00     0.147 C 
HETATM    6  N4  UNL     1      23.468   5.883  48.735  1.00  0.00    -0.333 N 
ENDROOT
BRANCH   6   7
HETATM    7  C12 UNL     1      23.945   7.146  48.245  1.00  0.00     0.354 C 
BRANCH   7   8
HETATM    8  N5  UNL     1      23.530   7.352  46.874  1.00  0.00     0.106 N 
HETATM    9  H13 UNL     1      24.171   6.880  46.181  1.00  0.00     0.316 HD
HETATM   10  H14 UNL     1      23.562   8.376  46.602  1.00  0.00     0.316 HD
ENDBRANCH   7   8
BRANCH   7  11
HETATM   11  C13 UNL     1      25.444   7.237  48.339  1.00  0.00    -0.006 A 
HETATM   12  C14 UNL     1      25.985   8.504  48.352  1.00  0.00     0.014 A 
HETATM   13  C15 UNL     1      27.345   8.706  48.434  1.00  0.00     0.037 A 
HETATM   14  C16 UNL     1      28.222   7.644  48.508  1.00  0.00     0.069 A 
HETATM   15  C21 UNL     1      27.671   6.354  48.495  1.00  0.00     0.037 A 
HETATM   16  C22 UNL     1      26.289   6.149  48.411  1.00  0.00     0.014 A 
BRANCH  14  17
HETATM   17  O3  UNL     1      29.582   7.556  48.596  1.00  0.00    -0.346 OA
BRANCH  17  18
HETATM   18  C17 UNL     1      30.293   6.526  47.999  1.00  0.00     0.124 C 
HETATM   19  C18 UNL     1      31.326   6.039  49.015  1.00  0.00     0.040 C 
BRANCH  18  20
HETATM   20  C19 UNL     1      31.024   6.993  46.733  1.00  0.00     0.027 C 
HETATM   21  C20 UNL     1      32.434   7.366  47.122  1.00  0.00     0.007 C 
ENDBRANCH  18  20
ENDBRANCH  17  18
ENDBRANCH  14  17
ENDBRANCH   7  11
ENDBRANCH   6   7
BRANCH   3  22
HETATM   22  C3  UNL     1      23.759   3.008  51.054  1.00  0.00     0.145 A 
HETATM   23  N2  UNL     1      22.694   2.527  51.755  1.00  0.00    -0.223 NA
HETATM   24  C4  UNL     1      22.868   1.616  52.753  1.00  0.00     0.236 A 
HETATM   25  N3  UNL     1      24.117   1.169  53.071  1.00  0.00    -0.238 NA
HETATM   26  C5  UNL     1      25.203   1.623  52.398  1.00  0.00     0.105 A 
HETATM   27  C6  UNL     1      25.015   2.547  51.388  1.00  0.00     0.044 A 
HETATM   28  C8  UNL     1      26.622   1.739  52.058  1.00  0.00     0.102 A 
HETATM   29  C7  UNL     1      26.441   2.622  51.091  1.00  0.00     0.057 A 
BRANCH  28  30
HETATM   30  O1  UNL     1      27.650   1.047  52.685  1.00  0.00    -0.324 OA
BRANCH  30  31
HETATM   31  C9  UNL     1      28.610   1.773  53.458  1.00  0.00     0.341 C 
BRANCH  31  32
HETATM   32  O2  UNL     1      27.989   2.803  54.189  1.00  0.00    -0.377 OA
HETATM   33  H7  UNL     1      27.407   2.451  54.910  1.00  0.00     0.212 HD
ENDBRANCH  31  32
ENDBRANCH  30  31
ENDBRANCH  28  30
ENDBRANCH   3  22
TORSDOF 10
ENDMDL
