MODEL 1
REMARK VINA RESULT:      -7.6      0.000      0.000
REMARK  4 active torsions:
REMARK  status: ('A' for Active; 'I' for Inactive)
REMARK    1  A    between atoms: C6_6  and  S1_7 
REMARK    2  A    between atoms: S1_7  and  N1_10 
REMARK       I    between atoms: N1_10  and  C7_11 
REMARK    3  A    between atoms: C7_11  and  C8_13 
REMARK    4  A    between atoms: C8_13  and  C9_14 
ROOT
HETATM    1  N1  UNL     1      24.987   1.652  51.772  1.00  0.00    -0.250 N 
HETATM    2  C7  UNL     1      24.314   0.823  52.709  1.00  0.00     0.235 C 
HETATM    3  O3  UNL     1      23.242   1.384  53.122  1.00  0.00    -0.272 OA
HETATM    4  H8  UNL     1      25.889   1.336  51.334  1.00  0.00     0.181 HD
ENDROOT
BRANCH   1   5
HETATM    5  S1  UNL     1      24.227   3.168  51.423  1.00  0.00     0.261 S 
HETATM    6  O1  UNL     1      23.964   3.867  52.727  1.00  0.00    -0.200 OA
HETATM    7  O2  UNL     1      22.924   2.954  50.752  1.00  0.00    -0.200 OA
BRANCH   5   8
HETATM    8  C6  UNL     1      25.228   4.159  50.386  1.00  0.00     0.058 A 
HETATM    9  C5  UNL     1      26.295   3.551  49.891  1.00  0.00     0.020 A 
HETATM   10  C4  UNL     1      27.201   4.285  49.011  1.00  0.00    -0.002 A 
HETATM   11  C3  UNL     1      26.884   5.545  48.759  1.00  0.00    -0.022 A 
HETATM   12  C2  UNL     1      25.704   6.335  49.262  1.00  0.00     0.009 A 
HETATM   13  C1  UNL     1      26.159   7.601  49.945  1.00  0.00     0.014 C 
HETATM   14  C14 UNL     1      24.810   5.544  50.156  1.00  0.00     0.060 A 
ENDBRANCH   5   8
ENDBRANCH   1   5
BRANCH   2  15
HETATM   15  C8  UNL     1      24.879  -0.489  53.073  1.00  0.00     0.143 C 
BRANCH  15  16
HETATM   16  C9  UNL     1      26.284  -0.281  53.513  1.00  0.00    -0.036 C 
HETATM   17  C10 UNL     1      27.428  -0.619  52.943  1.00  0.00     0.005 C 
HETATM   18  C11 UNL     1      28.467  -0.501  53.752  1.00  0.00     0.045 C 
HETATM   19 CL1  UNL     1      30.076  -1.115  53.483  1.00  0.00    -0.083 Cl
HETATM   20  C12 UNL     1      27.950   0.252  54.896  1.00  0.00     0.025 C 
HETATM   21  C13 UNL     1      26.622   0.396  54.768  1.00  0.00     0.010 C 
ENDBRANCH  15  16
ENDBRANCH   2  15
TORSDOF 4
ENDMDL
MODEL 2
REMARK VINA RESULT:      -7.5      2.642      5.347
REMARK  4 active torsions:
REMARK  status: ('A' for Active; 'I' for Inactive)
REMARK    1  A    between atoms: C6_6  and  S1_7 
REMARK    2  A    between atoms: S1_7  and  N1_10 
REMARK       I    between atoms: N1_10  and  C7_11 
REMARK    3  A    between atoms: C7_11  and  C8_13 
REMARK    4  A    between atoms: C8_13  and  C9_14 
ROOT
HETATM    1  N1  UNL     1      24.228   2.068  51.139  1.00  0.00    -0.250 N 
HETATM    2  C7  UNL     1      25.229   2.450  52.072  1.00  0.00     0.235 C 
HETATM    3  O3  UNL     1      24.701   2.888  53.150  1.00  0.00    -0.272 OA
HETATM    4  H8  UNL     1      24.496   1.686  50.198  1.00  0.00     0.181 HD
ENDROOT
BRANCH   1   5
HETATM    5  S1  UNL     1      22.591   2.279  51.662  1.00  0.00     0.261 S 
HETATM    6  O1  UNL     1      21.705   2.232  50.449  1.00  0.00    -0.200 OA
HETATM    7  O2  UNL     1      22.416   3.604  52.301  1.00  0.00    -0.200 OA
BRANCH   5   8
HETATM    8  C6  UNL     1      22.125   1.044  52.811  1.00  0.00     0.058 A 
HETATM    9  C5  UNL     1      20.930   1.210  53.357  1.00  0.00     0.020 A 
HETATM   10  C4  UNL     1      20.440   0.238  54.330  1.00  0.00    -0.002 A 
HETATM   11  C3  UNL     1      21.246  -0.775  54.608  1.00  0.00    -0.022 A 
HETATM   12  C2  UNL     1      22.615  -1.064  54.051  1.00  0.00     0.009 A 
HETATM   13  C1  UNL     1      23.623  -1.220  55.163  1.00  0.00     0.014 C 
HETATM   14  C14 UNL     1      23.072  -0.044  53.064  1.00  0.00     0.060 A 
ENDBRANCH   5   8
ENDBRANCH   1   5
BRANCH   2  15
HETATM   15  C8  UNL     1      26.655   2.309  51.722  1.00  0.00     0.143 C 
BRANCH  15  16
HETATM   16  C9  UNL     1      27.167   1.067  52.359  1.00  0.00    -0.036 C 
HETATM   17  C10 UNL     1      28.239   0.856  53.103  1.00  0.00     0.005 C 
HETATM   18  C11 UNL     1      28.509  -0.427  53.275  1.00  0.00     0.045 C 
HETATM   19 CL1  UNL     1      29.972  -1.108  53.930  1.00  0.00    -0.083 Cl
HETATM   20  C12 UNL     1      27.309  -1.115  52.794  1.00  0.00     0.025 C 
HETATM   21  C13 UNL     1      26.481  -0.221  52.233  1.00  0.00     0.010 C 
ENDBRANCH  15  16
ENDBRANCH   2  15
TORSDOF 4
ENDMDL
MODEL 3
REMARK VINA RESULT:      -7.2      2.826      3.874
REMARK  4 active torsions:
REMARK  status: ('A' for Active; 'I' for Inactive)
REMARK    1  A    between atoms: C6_6  and  S1_7 
REMARK    2  A    between atoms: S1_7  and  N1_10 
REMARK       I    between atoms: N1_10  and  C7_11 
REMARK    3  A    between atoms: C7_11  and  C8_13 
REMARK    4  A    between atoms: C8_13  and  C9_14 
ROOT
HETATM    1  N1  UNL     1      24.626   3.213  52.807  1.00  0.00    -0.250 N 
HETATM    2  C7  UNL     1      25.603   2.182  52.759  1.00  0.00     0.235 C 
HETATM    3  O3  UNL     1      25.939   1.933  51.551  1.00  0.00    -0.272 OA
HETATM    4  H8  UNL     1      24.242   3.538  53.730  1.00  0.00     0.181 HD
ENDROOT
BRANCH   1   5
HETATM    5  S1  UNL     1      24.138   3.862  51.278  1.00  0.00     0.261 S 
HETATM    6  O1  UNL     1      25.377   4.188  50.494  1.00  0.00    -0.200 OA
HETATM    7  O2  UNL     1      23.377   5.119  51.467  1.00  0.00    -0.200 OA
BRANCH   5   8
HETATM    8  C6  UNL     1      23.133   2.733  50.398  1.00  0.00     0.058 A 
HETATM    9  C5  UNL     1      23.155   2.873  49.082  1.00  0.00     0.020 A 
HETATM   10  C4  UNL     1      22.352   1.982  48.248  1.00  0.00    -0.002 A 
HETATM   11  C3  UNL     1      21.637   1.067  48.883  1.00  0.00    -0.022 A 
HETATM   12  C2  UNL     1      21.536   0.817  50.364  1.00  0.00     0.009 A 
HETATM   13  C1  UNL     1      20.097   0.857  50.817  1.00  0.00     0.014 C 
HETATM   14  C14 UNL     1      22.371   1.750  51.173  1.00  0.00     0.060 A 
ENDBRANCH   5   8
ENDBRANCH   1   5
BRANCH   2  15
HETATM   15  C8  UNL     1      26.085   1.565  54.008  1.00  0.00     0.143 C 
BRANCH  15  16
HETATM   16  C9  UNL     1      27.305   0.776  53.693  1.00  0.00    -0.036 C 
HETATM   17  C10 UNL     1      27.448  -0.484  53.319  1.00  0.00     0.005 C 
HETATM   18  C11 UNL     1      28.699  -0.907  53.382  1.00  0.00     0.045 C 
HETATM   19 CL1  UNL     1      29.253  -2.554  53.260  1.00  0.00    -0.083 Cl
HETATM   20  C12 UNL     1      29.484   0.314  53.573  1.00  0.00     0.025 C 
HETATM   21  C13 UNL     1      28.652   1.350  53.763  1.00  0.00     0.010 C 
ENDBRANCH  15  16
ENDBRANCH   2  15
TORSDOF 4
ENDMDL
MODEL 4
REMARK VINA RESULT:      -7.1      3.497      6.888
REMARK  4 active torsions:
REMARK  status: ('A' for Active; 'I' for Inactive)
REMARK    1  A    between atoms: C6_6  and  S1_7 
REMARK    2  A    between atoms: S1_7  and  N1_10 
REMARK       I    between atoms: N1_10  and  C7_11 
REMARK    3  A    between atoms: C7_11  and  C8_13 
REMARK    4  A    between atoms: C8_13  and  C9_14 
ROOT
HETATM    1  N1  UNL     1      25.285   2.002  51.284  1.00  0.00    -0.250 N 
HETATM    2  C7  UNL     1      26.458   2.671  50.841  1.00  0.00     0.235 C 
HETATM    3  O3  UNL     1      27.390   2.573  51.710  1.00  0.00    -0.272 OA
HETATM    4  H8  UNL     1      24.422   1.987  50.684  1.00  0.00     0.181 HD
ENDROOT
BRANCH   1   5
HETATM    5  S1  UNL     1      25.390   1.242  52.837  1.00  0.00     0.261 S 
HETATM    6  O1  UNL     1      25.851   2.272  53.828  1.00  0.00    -0.200 OA
HETATM    7  O2  UNL     1      26.393   0.153  52.814  1.00  0.00    -0.200 OA
BRANCH   5   8
HETATM    8  C6  UNL     1      23.851   0.568  53.322  1.00  0.00     0.058 A 
HETATM    9  C5  UNL     1      23.928  -0.505  54.093  1.00  0.00     0.020 A 
HETATM   10  C4  UNL     1      22.703  -1.150  54.557  1.00  0.00    -0.002 A 
HETATM   11  C3  UNL     1      21.564  -0.601  54.166  1.00  0.00    -0.022 A 
HETATM   12  C2  UNL     1      21.357   0.611  53.296  1.00  0.00     0.009 A 
HETATM   13  C1  UNL     1      20.479   0.278  52.115  1.00  0.00     0.014 C 
HETATM   14  C14 UNL     1      22.635   1.233  52.847  1.00  0.00     0.060 A 
ENDBRANCH   5   8
ENDBRANCH   1   5
BRANCH   2  15
HETATM   15  C8  UNL     1      26.469   3.348  49.532  1.00  0.00     0.143 C 
BRANCH  15  16
HETATM   16  C9  UNL     1      25.443   4.423  49.558  1.00  0.00    -0.036 C 
HETATM   17  C10 UNL     1      25.490   5.652  50.045  1.00  0.00     0.005 C 
HETATM   18  C11 UNL     1      24.302   6.228  50.118  1.00  0.00     0.045 C 
HETATM   19 CL1  UNL     1      23.905   7.701  50.959  1.00  0.00    -0.083 Cl
HETATM   20  C12 UNL     1      23.427   5.350  49.339  1.00  0.00     0.025 C 
HETATM   21  C13 UNL     1      24.105   4.246  48.989  1.00  0.00     0.010 C 
ENDBRANCH  15  16
ENDBRANCH   2  15
TORSDOF 4
ENDMDL
MODEL 5
REMARK VINA RESULT:      -7.1      3.544      6.816
REMARK  4 active torsions:
REMARK  status: ('A' for Active; 'I' for Inactive)
REMARK    1  A    between atoms: C6_6  and  S1_7 
REMARK    2  A    between atoms: S1_7  and  N1_10 
REMARK       I    between atoms: N1_10  and  C7_11 
REMARK    3  A    between atoms: C7_11  and  C8_13 
REMARK    4  A    between atoms: C8_13  and  C9_14 
ROOT
HETATM    1  N1  UNL     1      26.349   2.942  52.137  1.00  0.00    -0.250 N 
HETATM    2  C7  UNL     1      26.543   2.637  50.763  1.00  0.00     0.235 C 
HETATM    3  O3  UNL     1      26.530   1.373  50.573  1.00  0.00    -0.272 OA
HETATM    4  H8  UNL     1      26.333   3.941  52.463  1.00  0.00     0.181 HD
ENDROOT
BRANCH   1   5
HETATM    5  S1  UNL     1      26.149   1.582  53.191  1.00  0.00     0.261 S 
HETATM    6  O1  UNL     1      26.518   2.014  54.582  1.00  0.00    -0.200 OA
HETATM    7  O2  UNL     1      27.063   0.484  52.800  1.00  0.00    -0.200 OA
BRANCH   5   8
HETATM    8  C6  UNL     1      24.508   0.978  53.149  1.00  0.00     0.058 A 
HETATM    9  C5  UNL     1      23.615   1.820  52.653  1.00  0.00     0.020 A 
HETATM   10  C4  UNL     1      22.213   1.419  52.571  1.00  0.00    -0.002 A 
HETATM   11  C3  UNL     1      21.922   0.204  53.008  1.00  0.00    -0.022 A 
HETATM   12  C2  UNL     1      22.849  -0.832  53.587  1.00  0.00     0.009 A 
HETATM   13  C1  UNL     1      22.369  -1.281  54.945  1.00  0.00     0.014 C 
HETATM   14  C14 UNL     1      24.267  -0.376  53.651  1.00  0.00     0.060 A 
ENDBRANCH   5   8
ENDBRANCH   1   5
BRANCH   2  15
HETATM   15  C8  UNL     1      26.722   3.725  49.785  1.00  0.00     0.143 C 
BRANCH  15  16
HETATM   16  C9  UNL     1      25.474   4.533  49.758  1.00  0.00    -0.036 C 
HETATM   17  C10 UNL     1      25.261   5.805  50.050  1.00  0.00     0.005 C 
HETATM   18  C11 UNL     1      23.978   6.106  50.161  1.00  0.00     0.045 C 
HETATM   19 CL1  UNL     1      23.302   7.574  50.811  1.00  0.00    -0.083 Cl
HETATM   20  C12 UNL     1      23.286   4.937  49.617  1.00  0.00     0.025 C 
HETATM   21  C13 UNL     1      24.181   3.969  49.365  1.00  0.00     0.010 C 
ENDBRANCH  15  16
ENDBRANCH   2  15
TORSDOF 4
ENDMDL
MODEL 6
REMARK VINA RESULT:      -7.1      3.395      6.678
REMARK  4 active torsions:
REMARK  status: ('A' for Active; 'I' for Inactive)
REMARK    1  A    between atoms: C6_6  and  S1_7 
REMARK    2  A    between atoms: S1_7  and  N1_10 
REMARK       I    between atoms: N1_10  and  C7_11 
REMARK    3  A    between atoms: C7_11  and  C8_13 
REMARK    4  A    between atoms: C8_13  and  C9_14 
ROOT
HETATM    1  N1  UNL     1      26.342   0.626  52.034  1.00  0.00    -0.250 N 
HETATM    2  C7  UNL     1      26.376   2.045  52.092  1.00  0.00     0.235 C 
HETATM    3  O3  UNL     1      26.047   2.458  53.256  1.00  0.00    -0.272 OA
HETATM    4  H8  UNL     1      26.587   0.124  51.143  1.00  0.00     0.181 HD
ENDROOT
BRANCH   1   5
HETATM    5  S1  UNL     1      25.879  -0.179  53.496  1.00  0.00     0.261 S 
HETATM    6  O1  UNL     1      26.520   0.543  54.647  1.00  0.00    -0.200 OA
HETATM    7  O2  UNL     1      26.378  -1.573  53.501  1.00  0.00    -0.200 OA
BRANCH   5   8
HETATM    8  C6  UNL     1      24.140  -0.212  53.682  1.00  0.00     0.058 A 
HETATM    9  C5  UNL     1      23.699  -0.962  54.680  1.00  0.00     0.020 A 
HETATM   10  C4  UNL     1      22.263  -1.063  54.926  1.00  0.00    -0.002 A 
HETATM   11  C3  UNL     1      21.476  -0.375  54.114  1.00  0.00    -0.022 A 
HETATM   12  C2  UNL     1      21.865   0.506  52.956  1.00  0.00     0.009 A 
HETATM   13  C1  UNL     1      21.162   0.071  51.694  1.00  0.00     0.014 C 
HETATM   14  C14 UNL     1      23.339   0.576  52.743  1.00  0.00     0.060 A 
ENDBRANCH   5   8
ENDBRANCH   1   5
BRANCH   2  15
HETATM   15  C8  UNL     1      26.759   2.823  50.900  1.00  0.00     0.143 C 
BRANCH  15  16
HETATM   16  C9  UNL     1      25.519   3.362  50.282  1.00  0.00    -0.036 C 
HETATM   17  C10 UNL     1      24.295   2.866  50.224  1.00  0.00     0.005 C 
HETATM   18  C11 UNL     1      23.514   3.505  49.368  1.00  0.00     0.045 C 
HETATM   19 CL1  UNL     1      21.953   2.989  48.793  1.00  0.00    -0.083 Cl
HETATM   20  C12 UNL     1      24.263   4.718  49.034  1.00  0.00     0.025 C 
HETATM   21  C13 UNL     1      25.485   4.649  49.582  1.00  0.00     0.010 C 
ENDBRANCH  15  16
ENDBRANCH   2  15
TORSDOF 4
ENDMDL
MODEL 7
REMARK VINA RESULT:      -7.1      2.471      4.954
REMARK  4 active torsions:
REMARK  status: ('A' for Active; 'I' for Inactive)
REMARK    1  A    between atoms: C6_6  and  S1_7 
REMARK    2  A    between atoms: S1_7  and  N1_10 
REMARK       I    between atoms: N1_10  and  C7_11 
REMARK    3  A    between atoms: C7_11  and  C8_13 
REMARK    4  A    between atoms: C8_13  and  C9_14 
ROOT
HETATM    1  N1  UNL     1      24.521   3.783  51.915  1.00  0.00    -0.250 N 
HETATM    2  C7  UNL     1      25.186   3.107  50.857  1.00  0.00     0.235 C 
HETATM    3  O3  UNL     1      24.353   2.746  49.957  1.00  0.00    -0.272 OA
HETATM    4  H8  UNL     1      25.064   4.147  52.738  1.00  0.00     0.181 HD
ENDROOT
BRANCH   1   5
HETATM    5  S1  UNL     1      22.806   3.951  51.743  1.00  0.00     0.261 S 
HETATM    6  O1  UNL     1      22.528   4.522  50.382  1.00  0.00    -0.200 OA
HETATM    7  O2  UNL     1      22.274   4.899  52.750  1.00  0.00    -0.200 OA
BRANCH   5   8
HETATM    8  C6  UNL     1      21.992   2.415  51.944  1.00  0.00     0.058 A 
HETATM    9  C5  UNL     1      20.906   2.257  51.204  1.00  0.00     0.020 A 
HETATM   10  C4  UNL     1      20.148   1.012  51.292  1.00  0.00    -0.002 A 
HETATM   11  C3  UNL     1      20.613   0.098  52.129  1.00  0.00    -0.022 A 
HETATM   12  C2  UNL     1      21.830   0.168  53.014  1.00  0.00     0.009 A 
HETATM   13  C1  UNL     1      21.462  -0.102  54.452  1.00  0.00     0.014 C 
HETATM   14  C14 UNL     1      22.569   1.457  52.890  1.00  0.00     0.060 A 
ENDBRANCH   5   8
ENDBRANCH   1   5
BRANCH   2  15
HETATM   15  C8  UNL     1      26.646   2.914  50.908  1.00  0.00     0.143 C 
BRANCH  15  16
HETATM   16  C9  UNL     1      26.935   1.820  51.872  1.00  0.00    -0.036 C 
HETATM   17  C10 UNL     1      27.774   1.764  52.892  1.00  0.00     0.005 C 
HETATM   18  C11 UNL     1      27.945   0.539  53.359  1.00  0.00     0.045 C 
HETATM   19 CL1  UNL     1      29.168   0.010  54.481  1.00  0.00    -0.083 Cl
HETATM   20  C12 UNL     1      26.883  -0.241  52.722  1.00  0.00     0.025 C 
HETATM   21  C13 UNL     1      26.257   0.522  51.813  1.00  0.00     0.010 C 
ENDBRANCH  15  16
ENDBRANCH   2  15
TORSDOF 4
ENDMDL
MODEL 8
REMARK VINA RESULT:      -7.1      3.583      6.719
REMARK  4 active torsions:
REMARK  status: ('A' for Active; 'I' for Inactive)
REMARK    1  A    between atoms: C6_6  and  S1_7 
REMARK    2  A    between atoms: S1_7  and  N1_10 
REMARK       I    between atoms: N1_10  and  C7_11 
REMARK    3  A    between atoms: C7_11  and  C8_13 
REMARK    4  A    between atoms: C8_13  and  C9_14 
ROOT
HETATM    1  N1  UNL     1      25.276   3.939  51.383  1.00  0.00    -0.250 N 
HETATM    2  C7  UNL     1      25.362   3.524  50.026  1.00  0.00     0.235 C 
HETATM    3  O3  UNL     1      24.202   3.264  49.558  1.00  0.00    -0.272 OA
HETATM    4  H8  UNL     1      26.145   4.192  51.918  1.00  0.00     0.181 HD
ENDROOT
BRANCH   1   5
HETATM    5  S1  UNL     1      23.681   3.992  52.056  1.00  0.00     0.261 S 
HETATM    6  O1  UNL     1      22.781   4.674  51.065  1.00  0.00    -0.200 OA
HETATM    7  O2  UNL     1      23.671   4.790  53.303  1.00  0.00    -0.200 OA
BRANCH   5   8
HETATM    8  C6  UNL     1      23.090   2.386  52.420  1.00  0.00     0.058 A 
HETATM    9  C5  UNL     1      24.024   1.506  52.745  1.00  0.00     0.020 A 
HETATM   10  C4  UNL     1      23.642   0.135  53.069  1.00  0.00    -0.002 A 
HETATM   11  C3  UNL     1      22.349  -0.144  53.017  1.00  0.00    -0.022 A 
HETATM   12  C2  UNL     1      21.206   0.770  52.664  1.00  0.00     0.009 A 
HETATM   13  C1  UNL     1      20.386   0.192  51.537  1.00  0.00     0.014 C 
HETATM   14  C14 UNL     1      21.645   2.158  52.340  1.00  0.00     0.060 A 
ENDBRANCH   5   8
ENDBRANCH   1   5
BRANCH   2  15
HETATM   15  C8  UNL     1      26.676   3.447  49.361  1.00  0.00     0.143 C 
BRANCH  15  16
HETATM   16  C9  UNL     1      27.042   4.812  48.901  1.00  0.00    -0.036 C 
HETATM   17  C10 UNL     1      26.312   5.907  48.775  1.00  0.00     0.005 C 
HETATM   18  C11 UNL     1      26.919   6.862  48.090  1.00  0.00     0.045 C 
HETATM   19 CL1  UNL     1      26.198   8.318  47.462  1.00  0.00    -0.083 Cl
HETATM   20  C12 UNL     1      28.307   6.408  47.993  1.00  0.00     0.025 C 
HETATM   21  C13 UNL     1      28.402   5.162  48.482  1.00  0.00     0.010 C 
ENDBRANCH  15  16
ENDBRANCH   2  15
TORSDOF 4
ENDMDL
MODEL 9
REMARK VINA RESULT:      -7.0      3.088      4.255
REMARK  4 active torsions:
REMARK  status: ('A' for Active; 'I' for Inactive)
REMARK    1  A    between atoms: C6_6  and  S1_7 
REMARK    2  A    between atoms: S1_7  and  N1_10 
REMARK       I    between atoms: N1_10  and  C7_11 
REMARK    3  A    between atoms: C7_11  and  C8_13 
REMARK    4  A    between atoms: C8_13  and  C9_14 
ROOT
HETATM    1  N1  UNL     1      25.345   3.283  52.023  1.00  0.00    -0.250 N 
HETATM    2  C7  UNL     1      26.390   2.445  51.548  1.00  0.00     0.235 C 
HETATM    3  O3  UNL     1      26.459   2.487  50.273  1.00  0.00    -0.272 OA
HETATM    4  H8  UNL     1      25.153   3.362  53.054  1.00  0.00     0.181 HD
ENDROOT
BRANCH   1   5
HETATM    5  S1  UNL     1      24.446   4.129  50.809  1.00  0.00     0.261 S 
HETATM    6  O1  UNL     1      25.426   4.776  49.871  1.00  0.00    -0.200 OA
HETATM    7  O2  UNL     1      23.629   5.202  51.422  1.00  0.00    -0.200 OA
BRANCH   5   8
HETATM    8  C6  UNL     1      23.380   3.051  49.937  1.00  0.00     0.058 A 
HETATM    9  C5  UNL     1      23.241   3.322  48.649  1.00  0.00     0.020 A 
HETATM   10  C4  UNL     1      22.374   2.485  47.825  1.00  0.00    -0.002 A 
HETATM   11  C3  UNL     1      21.768   1.481  48.439  1.00  0.00    -0.022 A 
HETATM   12  C2  UNL     1      21.851   1.080  49.888  1.00  0.00     0.009 A 
HETATM   13  C1  UNL     1      20.476   1.013  50.505  1.00  0.00     0.014 C 
HETATM   14  C14 UNL     1      22.747   1.964  50.689  1.00  0.00     0.060 A 
ENDBRANCH   5   8
ENDBRANCH   1   5
BRANCH   2  15
HETATM   15  C8  UNL     1      27.214   1.682  52.503  1.00  0.00     0.143 C 
BRANCH  15  16
HETATM   16  C9  UNL     1      26.331   0.718  53.210  1.00  0.00    -0.036 C 
HETATM   17  C10 UNL     1      25.196   0.152  52.837  1.00  0.00     0.005 C 
HETATM   18  C11 UNL     1      24.563  -0.449  53.831  1.00  0.00     0.045 C 
HETATM   19 CL1  UNL     1      22.926  -1.046  53.818  1.00  0.00    -0.083 Cl
HETATM   20  C12 UNL     1      25.548  -0.490  54.913  1.00  0.00     0.025 C 
HETATM   21  C13 UNL     1      26.631   0.215  54.553  1.00  0.00     0.010 C 
ENDBRANCH  15  16
ENDBRANCH   2  15
TORSDOF 4
ENDMDL
