MODEL 1
REMARK VINA RESULT:      -7.8      0.000      0.000
REMARK  3 active torsions:
REMARK  status: ('A' for Active; 'I' for Inactive)
REMARK    1  A    between atoms: O1_2  and  C2_3 
REMARK    2  A    between atoms: C6_9  and  S1_10 
REMARK    3  A    between atoms: S1_10  and  C7_11 
ROOT
HETATM    1  C2  UNL     1      19.576  -0.150  52.303  1.00  0.00     0.108 A 
HETATM    2  C3  UNL     1      19.990  -0.777  53.466  1.00  0.00     0.072 A 
HETATM    3  C4  UNL     1      21.323  -0.764  53.828  1.00  0.00     0.074 A 
HETATM    4  N1  UNL     1      21.651  -1.403  54.986  1.00  0.00    -0.241 NA
HETATM    5  C5  UNL     1      22.956  -1.382  55.327  1.00  0.00     0.234 A 
HETATM    6  N2  UNL     1      23.906  -0.763  54.568  1.00  0.00    -0.234 NA
HETATM    7  C6  UNL     1      23.575  -0.133  53.422  1.00  0.00     0.112 A 
HETATM    8  C13 UNL     1      22.256  -0.117  53.017  1.00  0.00     0.032 A 
HETATM    9  C14 UNL     1      21.872   0.507  51.868  1.00  0.00     0.062 A 
HETATM   10  C15 UNL     1      20.521   0.487  51.512  1.00  0.00     0.150 A 
HETATM   11  F1  UNL     1      20.264   1.147  50.340  1.00  0.00    -0.203 F 
ENDROOT
BRANCH   7  12
HETATM   12  S1  UNL     1      24.775   0.697  52.383  1.00  0.00    -0.070 SA
BRANCH  12  13
HETATM   13  C7  UNL     1      26.453   0.265  52.867  1.00  0.00     0.008 A 
HETATM   14  C8  UNL     1      26.875  -1.035  52.682  1.00  0.00     0.019 A 
HETATM   15  C9  UNL     1      28.174  -1.318  53.070  1.00  0.00     0.003 A 
HETATM   16  C10 UNL     1      28.970  -0.327  53.608  1.00  0.00     0.024 A 
HETATM   17  C11 UNL     1      28.498   0.959  53.773  1.00  0.00     0.035 A 
HETATM   18 CL1  UNL     1      29.543   2.187  54.460  1.00  0.00    -0.084 Cl
HETATM   19  C12 UNL     1      27.205   1.292  53.399  1.00  0.00     0.042 A 
ENDBRANCH  12  13
ENDBRANCH   7  12
BRANCH   1  20
HETATM   20  O1  UNL     1      18.319  -0.044  51.766  1.00  0.00    -0.353 OA
HETATM   21  C1  UNL     1      17.124  -0.474  52.377  1.00  0.00     0.210 C 
ENDBRANCH   1  20
TORSDOF 3
ENDMDL
MODEL 2
REMARK VINA RESULT:      -7.5      2.334      2.952
REMARK  3 active torsions:
REMARK  status: ('A' for Active; 'I' for Inactive)
REMARK    1  A    between atoms: O1_2  and  C2_3 
REMARK    2  A    between atoms: C6_9  and  S1_10 
REMARK    3  A    between atoms: S1_10  and  C7_11 
ROOT
HETATM    1  C2  UNL     1      20.335  -0.130  52.768  1.00  0.00     0.108 A 
HETATM    2  C3  UNL     1      20.578   0.459  51.538  1.00  0.00     0.072 A 
HETATM    3  C4  UNL     1      21.785   1.082  51.292  1.00  0.00     0.074 A 
HETATM    4  N1  UNL     1      21.949   1.637  50.057  1.00  0.00    -0.241 NA
HETATM    5  C5  UNL     1      23.131   2.243  49.830  1.00  0.00     0.234 A 
HETATM    6  N2  UNL     1      24.119   2.308  50.770  1.00  0.00    -0.234 NA
HETATM    7  C6  UNL     1      23.951   1.758  51.990  1.00  0.00     0.112 A 
HETATM    8  C13 UNL     1      22.763   1.121  52.286  1.00  0.00     0.032 A 
HETATM    9  C14 UNL     1      22.546   0.550  53.504  1.00  0.00     0.062 A 
HETATM   10  C15 UNL     1      21.321  -0.079  53.742  1.00  0.00     0.150 A 
HETATM   11  F1  UNL     1      21.227  -0.612  55.000  1.00  0.00    -0.203 F 
ENDROOT
BRANCH   7  12
HETATM   12  S1  UNL     1      25.208   1.809  53.265  1.00  0.00    -0.070 SA
BRANCH  12  13
HETATM   13  C7  UNL     1      26.336   0.416  53.113  1.00  0.00     0.008 A 
HETATM   14  C8  UNL     1      25.819  -0.810  52.752  1.00  0.00     0.019 A 
HETATM   15  C9  UNL     1      26.727  -1.851  52.648  1.00  0.00     0.003 A 
HETATM   16  C10 UNL     1      28.066  -1.632  52.901  1.00  0.00     0.024 A 
HETATM   17  C11 UNL     1      28.532  -0.384  53.260  1.00  0.00     0.035 A 
HETATM   18 CL1  UNL     1      30.241  -0.151  53.571  1.00  0.00    -0.084 Cl
HETATM   19  C12 UNL     1      27.663   0.690  53.377  1.00  0.00     0.042 A 
ENDBRANCH  12  13
ENDBRANCH   7  12
BRANCH   1  20
HETATM   20  O1  UNL     1      19.221  -0.793  53.216  1.00  0.00    -0.353 OA
HETATM   21  C1  UNL     1      17.965  -0.814  52.579  1.00  0.00     0.210 C 
ENDBRANCH   1  20
TORSDOF 3
ENDMDL
MODEL 3
REMARK VINA RESULT:      -7.5      4.019      5.990
REMARK  3 active torsions:
REMARK  status: ('A' for Active; 'I' for Inactive)
REMARK    1  A    between atoms: O1_2  and  C2_3 
REMARK    2  A    between atoms: C6_9  and  S1_10 
REMARK    3  A    between atoms: S1_10  and  C7_11 
ROOT
HETATM    1  C2  UNL     1      26.248  -0.500  53.900  1.00  0.00     0.108 A 
HETATM    2  C3  UNL     1      25.124  -0.859  54.627  1.00  0.00     0.072 A 
HETATM    3  C4  UNL     1      23.864  -0.542  54.162  1.00  0.00     0.074 A 
HETATM    4  N1  UNL     1      22.809  -0.930  54.934  1.00  0.00    -0.241 NA
HETATM    5  C5  UNL     1      21.584  -0.614  54.469  1.00  0.00     0.234 A 
HETATM    6  N2  UNL     1      21.391   0.056  53.296  1.00  0.00    -0.234 NA
HETATM    7  C6  UNL     1      22.439   0.439  52.536  1.00  0.00     0.112 A 
HETATM    8  C13 UNL     1      23.720   0.144  52.956  1.00  0.00     0.032 A 
HETATM    9  C14 UNL     1      24.810   0.510  52.224  1.00  0.00     0.062 A 
HETATM   10  C15 UNL     1      26.081   0.183  52.704  1.00  0.00     0.150 A 
HETATM   11  F1  UNL     1      27.091   0.603  51.879  1.00  0.00    -0.203 F 
ENDROOT
BRANCH   7  12
HETATM   12  S1  UNL     1      22.252   1.320  50.988  1.00  0.00    -0.070 SA
BRANCH  12  13
HETATM   13  C7  UNL     1      22.898   2.994  51.119  1.00  0.00     0.008 A 
HETATM   14  C8  UNL     1      22.540   3.752  52.215  1.00  0.00     0.019 A 
HETATM   15  C9  UNL     1      23.062   5.033  52.269  1.00  0.00     0.003 A 
HETATM   16  C10 UNL     1      23.891   5.489  51.264  1.00  0.00     0.024 A 
HETATM   17  C11 UNL     1      24.217   4.690  50.188  1.00  0.00     0.035 A 
HETATM   18 CL1  UNL     1      25.273   5.310  48.934  1.00  0.00    -0.084 Cl
HETATM   19  C12 UNL     1      23.720   3.400  50.087  1.00  0.00     0.042 A 
ENDBRANCH  12  13
ENDBRANCH   7  12
BRANCH   1  20
HETATM   20  O1  UNL     1      27.574  -0.713  54.175  1.00  0.00    -0.353 OA
HETATM   21  C1  UNL     1      28.428   0.181  54.850  1.00  0.00     0.210 C 
ENDBRANCH   1  20
TORSDOF 3
ENDMDL
MODEL 4
REMARK VINA RESULT:      -7.3      4.751      7.140
REMARK  3 active torsions:
REMARK  status: ('A' for Active; 'I' for Inactive)
REMARK    1  A    between atoms: O1_2  and  C2_3 
REMARK    2  A    between atoms: C6_9  and  S1_10 
REMARK    3  A    between atoms: S1_10  and  C7_11 
ROOT
HETATM    1  C2  UNL     1      28.044   0.542  53.673  1.00  0.00     0.108 A 
HETATM    2  C3  UNL     1      26.980  -0.346  53.695  1.00  0.00     0.072 A 
HETATM    3  C4  UNL     1      25.691   0.107  53.497  1.00  0.00     0.074 A 
HETATM    4  N1  UNL     1      24.699  -0.827  53.534  1.00  0.00    -0.241 NA
HETATM    5  C5  UNL     1      23.445  -0.371  53.339  1.00  0.00     0.234 A 
HETATM    6  N2  UNL     1      23.166   0.947  53.119  1.00  0.00    -0.234 NA
HETATM    7  C6  UNL     1      24.152   1.867  53.085  1.00  0.00     0.112 A 
HETATM    8  C13 UNL     1      25.458   1.465  53.276  1.00  0.00     0.032 A 
HETATM    9  C14 UNL     1      26.488   2.357  53.250  1.00  0.00     0.062 A 
HETATM   10  C15 UNL     1      27.789   1.887  53.451  1.00  0.00     0.150 A 
HETATM   11  F1  UNL     1      28.732   2.879  53.402  1.00  0.00    -0.203 F 
ENDROOT
BRANCH   7  12
HETATM   12  S1  UNL     1      23.851   3.610  52.800  1.00  0.00    -0.070 SA
BRANCH  12  13
HETATM   13  C7  UNL     1      23.713   3.960  51.041  1.00  0.00     0.008 A 
HETATM   14  C8  UNL     1      24.128   5.193  50.583  1.00  0.00     0.019 A 
HETATM   15  C9  UNL     1      24.001   5.414  49.222  1.00  0.00     0.003 A 
HETATM   16  C10 UNL     1      23.485   4.430  48.403  1.00  0.00     0.024 A 
HETATM   17  C11 UNL     1      23.085   3.213  48.913  1.00  0.00     0.035 A 
HETATM   18 CL1  UNL     1      22.435   1.991  47.837  1.00  0.00    -0.084 Cl
HETATM   19  C12 UNL     1      23.191   2.943  50.269  1.00  0.00     0.042 A 
ENDBRANCH  12  13
ENDBRANCH   7  12
BRANCH   1  20
HETATM   20  O1  UNL     1      29.383   0.306  53.843  1.00  0.00    -0.353 OA
HETATM   21  C1  UNL     1      30.028  -0.935  53.674  1.00  0.00     0.210 C 
ENDBRANCH   1  20
TORSDOF 3
ENDMDL
MODEL 5
REMARK VINA RESULT:      -7.2      4.512      5.513
REMARK  3 active torsions:
REMARK  status: ('A' for Active; 'I' for Inactive)
REMARK    1  A    between atoms: O1_2  and  C2_3 
REMARK    2  A    between atoms: C6_9  and  S1_10 
REMARK    3  A    between atoms: S1_10  and  C7_11 
ROOT
HETATM    1  C2  UNL     1      22.988  -0.324  52.992  1.00  0.00     0.108 A 
HETATM    2  C3  UNL     1      24.322  -0.207  53.348  1.00  0.00     0.072 A 
HETATM    3  C4  UNL     1      25.123   0.742  52.744  1.00  0.00     0.074 A 
HETATM    4  N1  UNL     1      26.424   0.795  53.149  1.00  0.00    -0.241 NA
HETATM    5  C5  UNL     1      27.195   1.725  52.551  1.00  0.00     0.234 A 
HETATM    6  N2  UNL     1      26.718   2.573  51.594  1.00  0.00    -0.234 NA
HETATM    7  C6  UNL     1      25.430   2.516  51.197  1.00  0.00     0.112 A 
HETATM    8  C13 UNL     1      24.587   1.585  51.771  1.00  0.00     0.032 A 
HETATM    9  C14 UNL     1      23.279   1.489  51.403  1.00  0.00     0.062 A 
HETATM   10  C15 UNL     1      22.477   0.525  52.021  1.00  0.00     0.150 A 
HETATM   11  F1  UNL     1      21.185   0.529  51.566  1.00  0.00    -0.203 F 
ENDROOT
BRANCH   7  12
HETATM   12  S1  UNL     1      24.744   3.601  49.947  1.00  0.00    -0.070 SA
BRANCH  12  13
HETATM   13  C7  UNL     1      25.982   4.764  49.356  1.00  0.00     0.008 A 
HETATM   14  C8  UNL     1      27.193   4.269  48.917  1.00  0.00     0.019 A 
HETATM   15  C9  UNL     1      28.112   5.204  48.474  1.00  0.00     0.003 A 
HETATM   16  C10 UNL     1      27.797   6.549  48.486  1.00  0.00     0.024 A 
HETATM   17  C11 UNL     1      26.571   6.992  48.936  1.00  0.00     0.035 A 
HETATM   18 CL1  UNL     1      26.213   8.708  48.934  1.00  0.00    -0.084 Cl
HETATM   19  C12 UNL     1      25.616   6.095  49.390  1.00  0.00     0.042 A 
ENDBRANCH  12  13
ENDBRANCH   7  12
BRANCH   1  20
HETATM   20  O1  UNL     1      22.030  -1.185  53.460  1.00  0.00    -0.353 OA
HETATM   21  C1  UNL     1      21.416  -1.123  54.727  1.00  0.00     0.210 C 
ENDBRANCH   1  20
TORSDOF 3
ENDMDL
MODEL 6
REMARK VINA RESULT:      -7.2      4.381      6.737
REMARK  3 active torsions:
REMARK  status: ('A' for Active; 'I' for Inactive)
REMARK    1  A    between atoms: O1_2  and  C2_3 
REMARK    2  A    between atoms: C6_9  and  S1_10 
REMARK    3  A    between atoms: S1_10  and  C7_11 
ROOT
HETATM    1  C2  UNL     1      26.843   0.165  53.067  1.00  0.00     0.108 A 
HETATM    2  C3  UNL     1      25.779  -0.576  53.554  1.00  0.00     0.072 A 
HETATM    3  C4  UNL     1      24.489  -0.097  53.444  1.00  0.00     0.074 A 
HETATM    4  N1  UNL     1      23.496  -0.884  53.947  1.00  0.00    -0.241 NA
HETATM    5  C5  UNL     1      22.242  -0.405  53.833  1.00  0.00     0.234 A 
HETATM    6  N2  UNL     1      21.962   0.798  53.251  1.00  0.00    -0.234 NA
HETATM    7  C6  UNL     1      22.949   1.573  52.756  1.00  0.00     0.112 A 
HETATM    8  C13 UNL     1      24.256   1.139  52.840  1.00  0.00     0.032 A 
HETATM    9  C14 UNL     1      25.287   1.887  52.354  1.00  0.00     0.062 A 
HETATM   10  C15 UNL     1      26.588   1.392  52.472  1.00  0.00     0.150 A 
HETATM   11  F1  UNL     1      27.532   2.234  51.946  1.00  0.00    -0.203 F 
ENDROOT
BRANCH   7  12
HETATM   12  S1  UNL     1      22.647   3.160  51.981  1.00  0.00    -0.070 SA
BRANCH  12  13
HETATM   13  C7  UNL     1      22.462   2.982  50.201  1.00  0.00     0.008 A 
HETATM   14  C8  UNL     1      22.212   1.726  49.690  1.00  0.00     0.019 A 
HETATM   15  C9  UNL     1      22.078   1.640  48.314  1.00  0.00     0.003 A 
HETATM   16  C10 UNL     1      22.194   2.773  47.533  1.00  0.00     0.024 A 
HETATM   17  C11 UNL     1      22.445   4.007  48.095  1.00  0.00     0.035 A 
HETATM   18 CL1  UNL     1      22.585   5.419  47.066  1.00  0.00    -0.084 Cl
HETATM   19  C12 UNL     1      22.587   4.145  49.468  1.00  0.00     0.042 A 
ENDBRANCH  12  13
ENDBRANCH   7  12
BRANCH   1  20
HETATM   20  O1  UNL     1      28.184  -0.120  53.073  1.00  0.00    -0.353 OA
HETATM   21  C1  UNL     1      29.005  -0.192  54.217  1.00  0.00     0.210 C 
ENDBRANCH   1  20
TORSDOF 3
ENDMDL
MODEL 7
REMARK VINA RESULT:      -7.1      3.221      4.133
REMARK  3 active torsions:
REMARK  status: ('A' for Active; 'I' for Inactive)
REMARK    1  A    between atoms: O1_2  and  C2_3 
REMARK    2  A    between atoms: C6_9  and  S1_10 
REMARK    3  A    between atoms: S1_10  and  C7_11 
ROOT
HETATM    1  C2  UNL     1      21.727   1.399  50.163  1.00  0.00     0.108 A 
HETATM    2  C3  UNL     1      22.624   2.188  49.461  1.00  0.00     0.072 A 
HETATM    3  C4  UNL     1      23.828   2.548  50.031  1.00  0.00     0.074 A 
HETATM    4  N1  UNL     1      24.657   3.325  49.277  1.00  0.00    -0.241 NA
HETATM    5  C5  UNL     1      25.829   3.670  49.845  1.00  0.00     0.234 A 
HETATM    6  N2  UNL     1      26.183   3.275  51.103  1.00  0.00    -0.234 NA
HETATM    7  C6  UNL     1      25.359   2.507  51.845  1.00  0.00     0.112 A 
HETATM    8  C13 UNL     1      24.143   2.118  51.320  1.00  0.00     0.032 A 
HETATM    9  C14 UNL     1      23.277   1.343  52.031  1.00  0.00     0.062 A 
HETATM   10  C15 UNL     1      22.061   0.984  51.444  1.00  0.00     0.150 A 
HETATM   11  F1  UNL     1      21.281   0.205  52.257  1.00  0.00    -0.203 F 
ENDROOT
BRANCH   7  12
HETATM   12  S1  UNL     1      25.765   1.956  53.501  1.00  0.00    -0.070 SA
BRANCH  12  13
HETATM   13  C7  UNL     1      27.265   0.963  53.498  1.00  0.00     0.008 A 
HETATM   14  C8  UNL     1      28.464   1.583  53.781  1.00  0.00     0.019 A 
HETATM   15  C9  UNL     1      29.589   0.776  53.766  1.00  0.00     0.003 A 
HETATM   16  C10 UNL     1      29.475  -0.570  53.478  1.00  0.00     0.024 A 
HETATM   17  C11 UNL     1      28.251  -1.141  53.201  1.00  0.00     0.035 A 
HETATM   18 CL1  UNL     1      28.152  -2.854  52.841  1.00  0.00    -0.084 Cl
HETATM   19  C12 UNL     1      27.095  -0.375  53.204  1.00  0.00     0.042 A 
ENDBRANCH  12  13
ENDBRANCH   7  12
BRANCH   1  20
HETATM   20  O1  UNL     1      20.493   0.932  49.790  1.00  0.00    -0.353 OA
HETATM   21  C1  UNL     1      19.324   1.708  49.663  1.00  0.00     0.210 C 
ENDBRANCH   1  20
TORSDOF 3
ENDMDL
MODEL 8
REMARK VINA RESULT:      -7.0      4.404      7.242
REMARK  3 active torsions:
REMARK  status: ('A' for Active; 'I' for Inactive)
REMARK    1  A    between atoms: O1_2  and  C2_3 
REMARK    2  A    between atoms: C6_9  and  S1_10 
REMARK    3  A    between atoms: S1_10  and  C7_11 
ROOT
HETATM    1  C2  UNL     1      26.185  -0.405  52.862  1.00  0.00     0.108 A 
HETATM    2  C3  UNL     1      26.806   0.500  52.016  1.00  0.00     0.072 A 
HETATM    3  C4  UNL     1      26.142   1.639  51.608  1.00  0.00     0.074 A 
HETATM    4  N1  UNL     1      26.821   2.480  50.776  1.00  0.00    -0.241 NA
HETATM    5  C5  UNL     1      26.161   3.589  50.384  1.00  0.00     0.234 A 
HETATM    6  N2  UNL     1      24.887   3.869  50.786  1.00  0.00    -0.234 NA
HETATM    7  C6  UNL     1      24.220   3.032  51.608  1.00  0.00     0.112 A 
HETATM    8  C13 UNL     1      24.840   1.880  52.047  1.00  0.00     0.032 A 
HETATM    9  C14 UNL     1      24.208   1.004  52.878  1.00  0.00     0.062 A 
HETATM   10  C15 UNL     1      24.890  -0.145  53.285  1.00  0.00     0.150 A 
HETATM   11  F1  UNL     1      24.149  -0.943  54.118  1.00  0.00    -0.203 F 
ENDROOT
BRANCH   7  12
HETATM   12  S1  UNL     1      22.548   3.344  52.171  1.00  0.00    -0.070 SA
BRANCH  12  13
HETATM   13  C7  UNL     1      21.368   2.321  51.278  1.00  0.00     0.008 A 
HETATM   14  C8  UNL     1      21.354   2.386  49.900  1.00  0.00     0.019 A 
HETATM   15  C9  UNL     1      20.428   1.581  49.259  1.00  0.00     0.003 A 
HETATM   16  C10 UNL     1      19.584   0.772  49.993  1.00  0.00     0.024 A 
HETATM   17  C11 UNL     1      19.638   0.745  51.371  1.00  0.00     0.035 A 
HETATM   18 CL1  UNL     1      18.547  -0.296  52.264  1.00  0.00    -0.084 Cl
HETATM   19  C12 UNL     1      20.548   1.533  52.060  1.00  0.00     0.042 A 
ENDBRANCH  12  13
ENDBRANCH   7  12
BRANCH   1  20
HETATM   20  O1  UNL     1      26.657  -1.583  53.382  1.00  0.00    -0.353 OA
HETATM   21  C1  UNL     1      27.536  -2.473  52.736  1.00  0.00     0.210 C 
ENDBRANCH   1  20
TORSDOF 3
ENDMDL
MODEL 9
REMARK VINA RESULT:      -7.0      9.091     11.921
REMARK  3 active torsions:
REMARK  status: ('A' for Active; 'I' for Inactive)
REMARK    1  A    between atoms: O1_2  and  C2_3 
REMARK    2  A    between atoms: C6_9  and  S1_10 
REMARK    3  A    between atoms: S1_10  and  C7_11 
ROOT
HETATM    1  C2  UNL     1      32.906   4.557  47.995  1.00  0.00     0.108 A 
HETATM    2  C3  UNL     1      33.102   5.731  48.704  1.00  0.00     0.072 A 
HETATM    3  C4  UNL     1      32.089   6.663  48.802  1.00  0.00     0.074 A 
HETATM    4  N1  UNL     1      32.359   7.793  49.516  1.00  0.00    -0.241 NA
HETATM    5  C5  UNL     1      31.361   8.695  49.603  1.00  0.00     0.234 A 
HETATM    6  N2  UNL     1      30.144   8.506  49.016  1.00  0.00    -0.234 NA
HETATM    7  C6  UNL     1      29.882   7.387  48.309  1.00  0.00     0.112 A 
HETATM    8  C13 UNL     1      30.862   6.423  48.183  1.00  0.00     0.032 A 
HETATM    9  C14 UNL     1      30.645   5.276  47.479  1.00  0.00     0.062 A 
HETATM   10  C15 UNL     1      31.678   4.340  47.387  1.00  0.00     0.150 A 
HETATM   11  F1  UNL     1      31.336   3.233  46.656  1.00  0.00    -0.203 F 
ENDROOT
BRANCH   7  12
HETATM   12  S1  UNL     1      28.305   7.081  47.515  1.00  0.00    -0.070 SA
BRANCH  12  13
HETATM   13  C7  UNL     1      27.230   6.104  48.577  1.00  0.00     0.008 A 
HETATM   14  C8  UNL     1      27.461   4.748  48.676  1.00  0.00     0.019 A 
HETATM   15  C9  UNL     1      26.607   4.041  49.505  1.00  0.00     0.003 A 
HETATM   16  C10 UNL     1      25.592   4.693  50.176  1.00  0.00     0.024 A 
HETATM   17  C11 UNL     1      25.403   6.053  50.041  1.00  0.00     0.035 A 
HETATM   18 CL1  UNL     1      24.102   6.841  50.913  1.00  0.00    -0.084 Cl
HETATM   19  C12 UNL     1      26.233   6.805  49.224  1.00  0.00     0.042 A 
ENDBRANCH  12  13
ENDBRANCH   7  12
BRANCH   1  20
HETATM   20  O1  UNL     1      33.766   3.512  47.776  1.00  0.00    -0.353 OA
HETATM   21  C1  UNL     1      34.965   3.575  47.038  1.00  0.00     0.210 C 
ENDBRANCH   1  20
TORSDOF 3
ENDMDL
