MODEL 1
REMARK VINA RESULT:      -7.4      0.000      0.000
REMARK  5 active torsions:
REMARK  status: ('A' for Active; 'I' for Inactive)
REMARK    1  A    between atoms: C3_3  and  N1_4 
REMARK    2  A    between atoms: N1_4  and  C4_5 
REMARK    3  A    between atoms: C11_15  and  C12_16 
REMARK    4  A    between atoms: C12_16  and  C13_17 
REMARK    5  A    between atoms: C13_17  and  C14_18 
ROOT
HETATM    1  C1  UNL     1      23.836   2.814  50.342  1.00  0.00     0.030 C 
HETATM    2  C2  UNL     1      24.858   2.626  51.104  1.00  0.00     0.029 A 
HETATM    3  C3  UNL     1      26.171   2.864  50.686  1.00  0.00     0.141 A 
HETATM    4  N2  UNL     1      27.189   2.654  51.510  1.00  0.00    -0.224 NA
HETATM    5  C10 UNL     1      26.998   2.209  52.764  1.00  0.00     0.236 A 
HETATM    6  N3  UNL     1      25.731   1.972  53.189  1.00  0.00    -0.241 NA
HETATM    7  C11 UNL     1      24.672   2.172  52.387  1.00  0.00     0.071 A 
ENDROOT
BRANCH   3   8
HETATM    8  N1  UNL     1      26.225   3.316  49.328  1.00  0.00    -0.340 N 
HETATM    9  H3  UNL     1      25.951   2.845  48.460  1.00  0.00     0.167 HD
BRANCH   8  10
HETATM   10  C4  UNL     1      26.734   4.621  49.099  1.00  0.00     0.035 A 
HETATM   11  C5  UNL     1      27.927   4.962  48.503  1.00  0.00     0.029 A 
HETATM   12  C6  UNL     1      28.345   6.248  48.298  1.00  0.00     0.004 A 
HETATM   13  C7  UNL     1      27.550   7.310  48.699  1.00  0.00     0.019 A 
HETATM   14  C8  UNL     1      26.323   7.071  49.310  1.00  0.00     0.013 A 
HETATM   15 BR1  UNL     1      25.103   8.404  49.916  1.00  0.00    -0.051 Br
HETATM   16  C9  UNL     1      25.986   5.747  49.476  1.00  0.00     0.048 A 
ENDBRANCH   8  10
ENDBRANCH   3   8
BRANCH   7  17
HETATM   17  C12 UNL     1      23.462   1.960  52.847  1.00  0.00     0.035 C 
BRANCH  17  18
HETATM   18  C13 UNL     1      22.919   0.601  52.873  1.00  0.00     0.038 C 
BRANCH  18  19
HETATM   19  C14 UNL     1      22.140   0.098  53.850  1.00  0.00     0.103 A 
HETATM   20  N4  UNL     1      21.038  -0.097  54.795  1.00  0.00    -0.317 N 
HETATM   21  C15 UNL     1      22.154  -1.027  54.798  1.00  0.00     0.273 A 
HETATM   22  H11 UNL     1      20.196   0.530  54.858  1.00  0.00     0.169 HD
HETATM   23  O1  UNL     1      22.365  -2.036  55.509  1.00  0.00    -0.266 OA
ENDBRANCH  18  19
ENDBRANCH  17  18
ENDBRANCH   7  17
TORSDOF 5
ENDMDL
MODEL 2
REMARK VINA RESULT:      -7.3      3.394      4.885
REMARK  5 active torsions:
REMARK  status: ('A' for Active; 'I' for Inactive)
REMARK    1  A    between atoms: C3_3  and  N1_4 
REMARK    2  A    between atoms: N1_4  and  C4_5 
REMARK    3  A    between atoms: C11_15  and  C12_16 
REMARK    4  A    between atoms: C12_16  and  C13_17 
REMARK    5  A    between atoms: C13_17  and  C14_18 
ROOT
HETATM    1  C1  UNL     1      26.794   2.101  51.461  1.00  0.00     0.030 C 
HETATM    2  C2  UNL     1      25.739   1.651  52.048  1.00  0.00     0.029 A 
HETATM    3  C3  UNL     1      24.611   2.440  52.291  1.00  0.00     0.141 A 
HETATM    4  N2  UNL     1      23.549   1.927  52.901  1.00  0.00    -0.224 NA
HETATM    5  C10 UNL     1      23.521   0.645  53.303  1.00  0.00     0.236 A 
HETATM    6  N3  UNL     1      24.607  -0.137  53.077  1.00  0.00    -0.241 NA
HETATM    7  C11 UNL     1      25.702   0.341  52.463  1.00  0.00     0.071 A 
ENDROOT
BRANCH   3   8
HETATM    8  N1  UNL     1      24.788   3.783  51.826  1.00  0.00    -0.340 N 
HETATM    9  H3  UNL     1      25.426   4.518  52.148  1.00  0.00     0.167 HD
BRANCH   8  10
HETATM   10  C4  UNL     1      23.969   4.208  50.748  1.00  0.00     0.035 A 
HETATM   11  C5  UNL     1      23.805   3.593  49.528  1.00  0.00     0.029 A 
HETATM   12  C6  UNL     1      22.979   4.053  48.539  1.00  0.00     0.004 A 
HETATM   13  C7  UNL     1      22.239   5.209  48.733  1.00  0.00     0.019 A 
HETATM   14  C8  UNL     1      22.333   5.904  49.934  1.00  0.00     0.013 A 
HETATM   15 BR1  UNL     1      21.387   7.499  50.375  1.00  0.00    -0.051 Br
HETATM   16  C9  UNL     1      23.189   5.369  50.870  1.00  0.00     0.048 A 
ENDBRANCH   8  10
ENDBRANCH   3   8
BRANCH   7  17
HETATM   17  C12 UNL     1      26.718  -0.456  52.236  1.00  0.00     0.035 C 
BRANCH  17  18
HETATM   18  C13 UNL     1      27.677  -0.737  53.305  1.00  0.00     0.038 C 
BRANCH  18  19
HETATM   19  C14 UNL     1      28.805  -0.037  53.536  1.00  0.00     0.103 A 
HETATM   20  N4  UNL     1      30.207   0.384  53.552  1.00  0.00    -0.317 N 
HETATM   21  C15 UNL     1      29.210   1.198  54.223  1.00  0.00     0.273 A 
HETATM   22  H11 UNL     1      30.989  -0.149  53.091  1.00  0.00     0.169 HD
HETATM   23  O1  UNL     1      29.335   2.270  54.860  1.00  0.00    -0.266 OA
ENDBRANCH  18  19
ENDBRANCH  17  18
ENDBRANCH   7  17
TORSDOF 5
ENDMDL
MODEL 3
REMARK VINA RESULT:      -7.1      4.216      6.752
REMARK  5 active torsions:
REMARK  status: ('A' for Active; 'I' for Inactive)
REMARK    1  A    between atoms: C3_3  and  N1_4 
REMARK    2  A    between atoms: N1_4  and  C4_5 
REMARK    3  A    between atoms: C11_15  and  C12_16 
REMARK    4  A    between atoms: C12_16  and  C13_17 
REMARK    5  A    between atoms: C13_17  and  C14_18 
ROOT
HETATM    1  C1  UNL     1      24.260  -0.307  53.269  1.00  0.00     0.030 C 
HETATM    2  C2  UNL     1      24.839   0.623  52.591  1.00  0.00     0.029 A 
HETATM    3  C3  UNL     1      24.225   1.843  52.297  1.00  0.00     0.141 A 
HETATM    4  N2  UNL     1      24.865   2.769  51.594  1.00  0.00    -0.224 NA
HETATM    5  C10 UNL     1      26.115   2.567  51.142  1.00  0.00     0.236 A 
HETATM    6  N3  UNL     1      26.729   1.388  51.416  1.00  0.00    -0.241 NA
HETATM    7  C11 UNL     1      26.117   0.425  52.125  1.00  0.00     0.071 A 
ENDROOT
BRANCH   3   8
HETATM    8  N1  UNL     1      22.895   1.912  52.824  1.00  0.00    -0.340 N 
HETATM    9  H3  UNL     1      22.560   2.205  53.747  1.00  0.00     0.167 HD
BRANCH   8  10
HETATM   10  C4  UNL     1      21.837   1.517  51.965  1.00  0.00     0.035 A 
HETATM   11  C5  UNL     1      21.717   1.763  50.616  1.00  0.00     0.029 A 
HETATM   12  C6  UNL     1      20.673   1.333  49.844  1.00  0.00     0.004 A 
HETATM   13  C7  UNL     1      19.646   0.597  50.413  1.00  0.00     0.019 A 
HETATM   14  C8  UNL     1      19.674   0.293  51.770  1.00  0.00     0.013 A 
HETATM   15 BR1  UNL     1      18.356  -0.711  52.713  1.00  0.00    -0.051 Br
HETATM   16  C9  UNL     1      20.761   0.768  52.467  1.00  0.00     0.048 A 
ENDBRANCH   8  10
ENDBRANCH   3   8
BRANCH   7  17
HETATM   17  C12 UNL     1      26.757  -0.688  52.395  1.00  0.00     0.035 C 
BRANCH  17  18
HETATM   18  C13 UNL     1      27.703  -0.733  53.511  1.00  0.00     0.038 C 
BRANCH  18  19
HETATM   19  C14 UNL     1      28.804   0.035  53.623  1.00  0.00     0.103 A 
HETATM   20  N4  UNL     1      30.160   0.563  53.457  1.00  0.00    -0.317 N 
HETATM   21  C15 UNL     1      29.231   1.246  54.340  1.00  0.00     0.273 A 
HETATM   22  H11 UNL     1      30.892   0.127  52.839  1.00  0.00     0.169 HD
HETATM   23  O1  UNL     1      29.385   2.276  55.036  1.00  0.00    -0.266 OA
ENDBRANCH  18  19
ENDBRANCH  17  18
ENDBRANCH   7  17
TORSDOF 5
ENDMDL
MODEL 4
REMARK VINA RESULT:      -7.1      4.513      5.519
REMARK  5 active torsions:
REMARK  status: ('A' for Active; 'I' for Inactive)
REMARK    1  A    between atoms: C3_3  and  N1_4 
REMARK    2  A    between atoms: N1_4  and  C4_5 
REMARK    3  A    between atoms: C11_15  and  C12_16 
REMARK    4  A    between atoms: C12_16  and  C13_17 
REMARK    5  A    between atoms: C13_17  and  C14_18 
ROOT
HETATM    1  C1  UNL     1      22.991   1.780  51.524  1.00  0.00     0.030 C 
HETATM    2  C2  UNL     1      23.070   0.933  52.492  1.00  0.00     0.029 A 
HETATM    3  C3  UNL     1      24.257   0.276  52.830  1.00  0.00     0.141 A 
HETATM    4  N2  UNL     1      24.286  -0.589  53.837  1.00  0.00    -0.224 NA
HETATM    5  C10 UNL     1      23.185  -0.863  54.558  1.00  0.00     0.236 A 
HETATM    6  N3  UNL     1      22.023  -0.236  54.245  1.00  0.00    -0.241 NA
HETATM    7  C11 UNL     1      21.950   0.646  53.235  1.00  0.00     0.071 A 
ENDROOT
BRANCH   3   8
HETATM    8  N1  UNL     1      25.339   0.651  51.969  1.00  0.00    -0.340 N 
HETATM    9  H3  UNL     1      25.368   0.766  50.952  1.00  0.00     0.167 HD
BRANCH   8  10
HETATM   10  C4  UNL     1      26.592   0.913  52.581  1.00  0.00     0.035 A 
HETATM   11  C5  UNL     1      27.058   2.119  53.053  1.00  0.00     0.029 A 
HETATM   12  C6  UNL     1      28.276   2.293  53.651  1.00  0.00     0.004 A 
HETATM   13  C7  UNL     1      29.130   1.214  53.816  1.00  0.00     0.019 A 
HETATM   14  C8  UNL     1      28.751  -0.050  53.374  1.00  0.00     0.013 A 
HETATM   15 BR1  UNL     1      29.791  -1.640  53.525  1.00  0.00    -0.051 Br
HETATM   16  C9  UNL     1      27.510  -0.129  52.783  1.00  0.00     0.048 A 
ENDBRANCH   8  10
ENDBRANCH   3   8
BRANCH   7  17
HETATM   17  C12 UNL     1      20.815   1.253  52.984  1.00  0.00     0.035 C 
BRANCH  17  18
HETATM   18  C13 UNL     1      19.666   0.483  52.506  1.00  0.00     0.038 C 
BRANCH  18  19
HETATM   19  C14 UNL     1      19.154  -0.603  53.117  1.00  0.00     0.103 A 
HETATM   20  N4  UNL     1      18.999  -1.773  53.985  1.00  0.00    -0.317 N 
HETATM   21  C15 UNL     1      17.914  -1.393  53.097  1.00  0.00     0.273 A 
HETATM   22  H11 UNL     1      19.736  -2.114  54.654  1.00  0.00     0.169 HD
HETATM   23  O1  UNL     1      16.790  -1.918  52.922  1.00  0.00    -0.266 OA
ENDBRANCH  18  19
ENDBRANCH  17  18
ENDBRANCH   7  17
TORSDOF 5
ENDMDL
MODEL 5
REMARK VINA RESULT:      -7.1      5.345      7.605
REMARK  5 active torsions:
REMARK  status: ('A' for Active; 'I' for Inactive)
REMARK    1  A    between atoms: C3_3  and  N1_4 
REMARK    2  A    between atoms: N1_4  and  C4_5 
REMARK    3  A    between atoms: C11_15  and  C12_16 
REMARK    4  A    between atoms: C12_16  and  C13_17 
REMARK    5  A    between atoms: C13_17  and  C14_18 
ROOT
HETATM    1  C1  UNL     1      24.049   1.491  52.119  1.00  0.00     0.030 C 
HETATM    2  C2  UNL     1      23.699   0.645  53.026  1.00  0.00     0.029 A 
HETATM    3  C3  UNL     1      22.395   0.559  53.521  1.00  0.00     0.141 A 
HETATM    4  N2  UNL     1      22.086  -0.331  54.456  1.00  0.00    -0.224 NA
HETATM    5  C10 UNL     1      23.006  -1.172  54.956  1.00  0.00     0.236 A 
HETATM    6  N3  UNL     1      24.279  -1.105  54.489  1.00  0.00    -0.241 NA
HETATM    7  C11 UNL     1      24.634  -0.220  53.543  1.00  0.00     0.071 A 
ENDROOT
BRANCH   3   8
HETATM    8  N1  UNL     1      21.529   1.524  52.912  1.00  0.00    -0.340 N 
HETATM    9  H3  UNL     1      21.576   2.547  52.905  1.00  0.00     0.167 HD
BRANCH   8  10
HETATM   10  C4  UNL     1      20.410   1.028  52.194  1.00  0.00     0.035 A 
HETATM   11  C5  UNL     1      20.024   1.355  50.913  1.00  0.00     0.029 A 
HETATM   12  C6  UNL     1      18.940   0.819  50.275  1.00  0.00     0.004 A 
HETATM   13  C7  UNL     1      18.148  -0.119  50.918  1.00  0.00     0.019 A 
HETATM   14  C8  UNL     1      18.455  -0.519  52.215  1.00  0.00     0.013 A 
HETATM   15 BR1  UNL     1      17.486  -1.798  53.244  1.00  0.00    -0.051 Br
HETATM   16  C9  UNL     1      19.562   0.074  52.778  1.00  0.00     0.048 A 
ENDBRANCH   8  10
ENDBRANCH   3   8
BRANCH   7  17
HETATM   17  C12 UNL     1      25.867  -0.208  53.096  1.00  0.00     0.035 C 
BRANCH  17  18
HETATM   18  C13 UNL     1      26.414  -1.392  52.433  1.00  0.00     0.038 C 
BRANCH  18  19
HETATM   19  C14 UNL     1      27.522  -2.053  52.819  1.00  0.00     0.103 A 
HETATM   20  N4  UNL     1      28.458  -3.124  53.169  1.00  0.00    -0.317 N 
HETATM   21  C15 UNL     1      28.893  -1.741  53.252  1.00  0.00     0.273 A 
HETATM   22  H11 UNL     1      28.222  -4.149  53.136  1.00  0.00     0.169 HD
HETATM   23  O1  UNL     1      29.998  -1.259  53.592  1.00  0.00    -0.266 OA
ENDBRANCH  18  19
ENDBRANCH  17  18
ENDBRANCH   7  17
TORSDOF 5
ENDMDL
MODEL 6
REMARK VINA RESULT:      -7.0      4.493      7.781
REMARK  5 active torsions:
REMARK  status: ('A' for Active; 'I' for Inactive)
REMARK    1  A    between atoms: C3_3  and  N1_4 
REMARK    2  A    between atoms: N1_4  and  C4_5 
REMARK    3  A    between atoms: C11_15  and  C12_16 
REMARK    4  A    between atoms: C12_16  and  C13_17 
REMARK    5  A    between atoms: C13_17  and  C14_18 
ROOT
HETATM    1  C1  UNL     1      26.442   3.456  49.464  1.00  0.00     0.030 C 
HETATM    2  C2  UNL     1      25.541   4.015  50.197  1.00  0.00     0.029 A 
HETATM    3  C3  UNL     1      24.708   3.295  51.057  1.00  0.00     0.141 A 
HETATM    4  N2  UNL     1      23.794   3.919  51.790  1.00  0.00    -0.224 NA
HETATM    5  C10 UNL     1      23.638   5.253  51.732  1.00  0.00     0.236 A 
HETATM    6  N3  UNL     1      24.438   5.970  50.903  1.00  0.00    -0.241 NA
HETATM    7  C11 UNL     1      25.375   5.378  50.144  1.00  0.00     0.071 A 
ENDROOT
BRANCH   3   8
HETATM    8  N1  UNL     1      24.972   1.888  51.003  1.00  0.00    -0.340 N 
HETATM    9  H3  UNL     1      24.927   1.234  50.216  1.00  0.00     0.167 HD
BRANCH   8  10
HETATM   10  C4  UNL     1      25.362   1.256  52.212  1.00  0.00     0.035 A 
HETATM   11  C5  UNL     1      24.582   0.485  53.044  1.00  0.00     0.029 A 
HETATM   12  C6  UNL     1      25.034  -0.111  54.189  1.00  0.00     0.004 A 
HETATM   13  C7  UNL     1      26.355   0.041  54.578  1.00  0.00     0.019 A 
HETATM   14  C8  UNL     1      27.227   0.800  53.803  1.00  0.00     0.013 A 
HETATM   15 BR1  UNL     1      29.070   1.108  54.180  1.00  0.00    -0.051 Br
HETATM   16  C9  UNL     1      26.685   1.363  52.670  1.00  0.00     0.048 A 
ENDBRANCH   8  10
ENDBRANCH   3   8
BRANCH   7  17
HETATM   17  C12 UNL     1      26.148   6.111  49.378  1.00  0.00     0.035 C 
BRANCH  17  18
HETATM   18  C13 UNL     1      26.008   7.568  49.383  1.00  0.00     0.038 C 
BRANCH  18  19
HETATM   19  C14 UNL     1      26.870   8.426  49.963  1.00  0.00     0.103 A 
HETATM   20  N4  UNL     1      27.538   9.282  50.945  1.00  0.00    -0.317 N 
HETATM   21  C15 UNL     1      28.062   9.203  49.594  1.00  0.00     0.273 A 
HETATM   22  H11 UNL     1      27.221   9.395  51.943  1.00  0.00     0.169 HD
HETATM   23  O1  UNL     1      29.050   9.772  49.075  1.00  0.00    -0.266 OA
ENDBRANCH  18  19
ENDBRANCH  17  18
ENDBRANCH   7  17
TORSDOF 5
ENDMDL
MODEL 7
REMARK VINA RESULT:      -6.8      4.718      6.031
REMARK  5 active torsions:
REMARK  status: ('A' for Active; 'I' for Inactive)
REMARK    1  A    between atoms: C3_3  and  N1_4 
REMARK    2  A    between atoms: N1_4  and  C4_5 
REMARK    3  A    between atoms: C11_15  and  C12_16 
REMARK    4  A    between atoms: C12_16  and  C13_17 
REMARK    5  A    between atoms: C13_17  and  C14_18 
ROOT
HETATM    1  C1  UNL     1      22.061   1.702  51.803  1.00  0.00     0.030 C 
HETATM    2  C2  UNL     1      22.077   0.753  52.674  1.00  0.00     0.029 A 
HETATM    3  C3  UNL     1      23.256   0.270  53.249  1.00  0.00     0.141 A 
HETATM    4  N2  UNL     1      23.218  -0.711  54.142  1.00  0.00    -0.224 NA
HETATM    5  C10 UNL     1      22.057  -1.272  54.521  1.00  0.00     0.236 A 
HETATM    6  N3  UNL     1      20.901  -0.818  53.973  1.00  0.00    -0.241 NA
HETATM    7  C11 UNL     1      20.894   0.173  53.067  1.00  0.00     0.071 A 
ENDROOT
BRANCH   3   8
HETATM    8  N1  UNL     1      24.413   0.945  52.741  1.00  0.00    -0.340 N 
HETATM    9  H3  UNL     1      24.498   1.846  52.261  1.00  0.00     0.167 HD
BRANCH   8  10
HETATM   10  C4  UNL     1      25.665   0.298  52.907  1.00  0.00     0.035 A 
HETATM   11  C5  UNL     1      25.979  -1.007  52.605  1.00  0.00     0.029 A 
HETATM   12  C6  UNL     1      27.219  -1.559  52.774  1.00  0.00     0.004 A 
HETATM   13  C7  UNL     1      28.258  -0.793  53.278  1.00  0.00     0.019 A 
HETATM   14  C8  UNL     1      28.043   0.540  53.613  1.00  0.00     0.013 A 
HETATM   15 BR1  UNL     1      29.353   1.738  54.309  1.00  0.00    -0.051 Br
HETATM   16  C9  UNL     1      26.765   1.009  53.411  1.00  0.00     0.048 A 
ENDBRANCH   8  10
ENDBRANCH   3   8
BRANCH   7  17
HETATM   17  C12 UNL     1      19.752   0.604  52.585  1.00  0.00     0.035 C 
BRANCH  17  18
HETATM   18  C13 UNL     1      18.801  -0.345  52.006  1.00  0.00     0.038 C 
BRANCH  18  19
HETATM   19  C14 UNL     1      17.802  -0.948  52.679  1.00  0.00     0.103 A 
HETATM   20  N4  UNL     1      16.520  -1.206  53.337  1.00  0.00    -0.317 N 
HETATM   21  C15 UNL     1      17.535  -2.244  53.321  1.00  0.00     0.273 A 
HETATM   22  H11 UNL     1      15.734  -0.508  53.394  1.00  0.00     0.169 HD
HETATM   23  O1  UNL     1      17.517  -3.401  53.801  1.00  0.00    -0.266 OA
ENDBRANCH  18  19
ENDBRANCH  17  18
ENDBRANCH   7  17
TORSDOF 5
ENDMDL
MODEL 8
REMARK VINA RESULT:      -6.8      6.097      8.308
REMARK  5 active torsions:
REMARK  status: ('A' for Active; 'I' for Inactive)
REMARK    1  A    between atoms: C3_3  and  N1_4 
REMARK    2  A    between atoms: N1_4  and  C4_5 
REMARK    3  A    between atoms: C11_15  and  C12_16 
REMARK    4  A    between atoms: C12_16  and  C13_17 
REMARK    5  A    between atoms: C13_17  and  C14_18 
ROOT
HETATM    1  C1  UNL     1      18.398   0.341  51.354  1.00  0.00     0.030 C 
HETATM    2  C2  UNL     1      19.035   1.449  51.521  1.00  0.00     0.029 A 
HETATM    3  C3  UNL     1      20.426   1.514  51.635  1.00  0.00     0.141 A 
HETATM    4  N2  UNL     1      21.035   2.681  51.807  1.00  0.00    -0.224 NA
HETATM    5  C10 UNL     1      20.342   3.830  51.878  1.00  0.00     0.236 A 
HETATM    6  N3  UNL     1      18.990   3.788  51.769  1.00  0.00    -0.241 NA
HETATM    7  C11 UNL     1      18.334   2.629  51.594  1.00  0.00     0.071 A 
ENDROOT
BRANCH   3   8
HETATM    8  N1  UNL     1      21.029   0.217  51.560  1.00  0.00    -0.340 N 
HETATM    9  H3  UNL     1      21.099  -0.439  50.775  1.00  0.00     0.167 HD
BRANCH   8  10
HETATM   10  C4  UNL     1      21.641  -0.283  52.739  1.00  0.00     0.035 A 
HETATM   11  C5  UNL     1      21.036  -0.960  53.774  1.00  0.00     0.029 A 
HETATM   12  C6  UNL     1      21.696  -1.431  54.875  1.00  0.00     0.004 A 
HETATM   13  C7  UNL     1      23.062  -1.239  55.002  1.00  0.00     0.019 A 
HETATM   14  C8  UNL     1      23.767  -0.567  54.009  1.00  0.00     0.013 A 
HETATM   15 BR1  UNL     1      25.642  -0.221  54.014  1.00  0.00    -0.051 Br
HETATM   16  C9  UNL     1      23.021  -0.128  52.939  1.00  0.00     0.048 A 
ENDBRANCH   8  10
ENDBRANCH   3   8
BRANCH   7  17
HETATM   17  C12 UNL     1      17.029   2.635  51.463  1.00  0.00     0.035 C 
BRANCH  17  18
HETATM   18  C13 UNL     1      16.278   3.867  51.707  1.00  0.00     0.038 C 
BRANCH  18  19
HETATM   19  C14 UNL     1      15.456   4.076  52.753  1.00  0.00     0.103 A 
HETATM   20  N4  UNL     1      14.928   4.512  54.048  1.00  0.00    -0.317 N 
HETATM   21  C15 UNL     1      14.073   3.762  53.145  1.00  0.00     0.273 A 
HETATM   22  H11 UNL     1      15.482   5.058  54.758  1.00  0.00     0.169 HD
HETATM   23  O1  UNL     1      12.884   3.391  53.278  1.00  0.00    -0.266 OA
ENDBRANCH  18  19
ENDBRANCH  17  18
ENDBRANCH   7  17
TORSDOF 5
ENDMDL
MODEL 9
REMARK VINA RESULT:      -6.7      3.172      3.998
REMARK  5 active torsions:
REMARK  status: ('A' for Active; 'I' for Inactive)
REMARK    1  A    between atoms: C3_3  and  N1_4 
REMARK    2  A    between atoms: N1_4  and  C4_5 
REMARK    3  A    between atoms: C11_15  and  C12_16 
REMARK    4  A    between atoms: C12_16  and  C13_17 
REMARK    5  A    between atoms: C13_17  and  C14_18 
ROOT
HETATM    1  C1  UNL     1      26.610   3.131  49.615  1.00  0.00     0.030 C 
HETATM    2  C2  UNL     1      25.738   3.364  50.535  1.00  0.00     0.029 A 
HETATM    3  C3  UNL     1      24.808   4.404  50.452  1.00  0.00     0.141 A 
HETATM    4  N2  UNL     1      23.930   4.603  51.428  1.00  0.00    -0.224 NA
HETATM    5  C10 UNL     1      23.905   3.820  52.520  1.00  0.00     0.236 A 
HETATM    6  N3  UNL     1      24.801   2.805  52.619  1.00  0.00    -0.241 NA
HETATM    7  C11 UNL     1      25.705   2.569  51.655  1.00  0.00     0.071 A 
ENDROOT
BRANCH   3   8
HETATM    8  N1  UNL     1      24.961   5.164  49.247  1.00  0.00    -0.340 N 
HETATM    9  H3  UNL     1      24.575   5.009  48.311  1.00  0.00     0.167 HD
BRANCH   8  10
HETATM   10  C4  UNL     1      25.772   6.327  49.314  1.00  0.00     0.035 A 
HETATM   11  C5  UNL     1      25.675   7.364  50.214  1.00  0.00     0.029 A 
HETATM   12  C6  UNL     1      26.508   8.449  50.230  1.00  0.00     0.004 A 
HETATM   13  C7  UNL     1      27.530   8.555  49.300  1.00  0.00     0.019 A 
HETATM   14  C8  UNL     1      27.712   7.557  48.347  1.00  0.00     0.013 A 
HETATM   15 BR1  UNL     1      29.064   7.535  47.004  1.00  0.00    -0.051 Br
HETATM   16  C9  UNL     1      26.827   6.505  48.407  1.00  0.00     0.048 A 
ENDBRANCH   8  10
ENDBRANCH   3   8
BRANCH   7  17
HETATM   17  C12 UNL     1      26.533   1.559  51.775  1.00  0.00     0.035 C 
BRANCH  17  18
HETATM   18  C13 UNL     1      27.605   1.609  52.771  1.00  0.00     0.038 C 
BRANCH  18  19
HETATM   19  C14 UNL     1      27.907   0.620  53.633  1.00  0.00     0.103 A 
HETATM   20  N4  UNL     1      27.838  -0.336  54.741  1.00  0.00    -0.317 N 
HETATM   21  C15 UNL     1      28.999  -0.337  53.868  1.00  0.00     0.273 A 
HETATM   22  H11 UNL     1      27.034  -0.398  55.417  1.00  0.00     0.169 HD
HETATM   23  O1  UNL     1      30.025  -1.055  53.889  1.00  0.00    -0.266 OA
ENDBRANCH  18  19
ENDBRANCH  17  18
ENDBRANCH   7  17
TORSDOF 5
ENDMDL
