MODEL 1
REMARK VINA RESULT:      -6.4      0.000      0.000
REMARK  7 active torsions:
REMARK  status: ('A' for Active; 'I' for Inactive)
REMARK    1  A    between atoms: N1_2  and  C3_4 
REMARK    2  A    between atoms: C3_4  and  C4_5 
REMARK    3  A    between atoms: C4_5  and  N2_6 
REMARK    4  A    between atoms: N2_6  and  C5_7 
REMARK    5  A    between atoms: C5_7  and  N3_8 
REMARK    6  A    between atoms: P1_13  and  N5_14 
REMARK    7  A    between atoms: N5_14  and  C9_15 
ROOT
HETATM    1  C5  UNL     1      24.289   6.092  50.625  1.00  0.00     0.567 A 
HETATM    2  C6  UNL     1      22.911   5.413  50.407  1.00  0.00     0.352 A 
HETATM    3  C7  UNL     1      23.619   5.025  49.271  1.00  0.00     0.301 A 
HETATM    4  N4  UNL     1      24.390   4.622  50.499  1.00  0.00     0.055 N 
HETATM    5  C8  UNL     1      24.842   3.545  51.316  1.00  0.00     0.308 C 
HETATM    6  P1  UNL     1      23.398   2.962  52.405  1.00  0.00     0.051 P 
HETATM    7  C15 UNL     1      22.017   4.221  52.172  1.00  0.00     0.143 C 
HETATM    8  N6  UNL     1      21.734   5.272  51.278  1.00  0.00    -0.252 NA
ENDROOT
BRANCH   1   9
HETATM    9  N2  UNL     1      24.580   6.908  49.536  1.00  0.00     0.159 N 
HETATM   10  H11 UNL     1      23.906   7.743  49.465  1.00  0.00     0.322 HD
BRANCH   9  11
HETATM   11  C4  UNL     1      25.903   7.499  49.465  1.00  0.00     0.295 C 
BRANCH  11  12
HETATM   12  C3  UNL     1      26.471   7.081  48.127  1.00  0.00     0.145 C 
BRANCH  12  13
HETATM   13  N1  UNL     1      27.587   6.256  48.282  1.00  0.00    -0.419 N 
HETATM   14  C1  UNL     1      27.438   4.915  48.688  1.00  0.00     0.142 C 
HETATM   15  C2  UNL     1      28.883   6.798  48.179  1.00  0.00     0.142 C 
ENDBRANCH  12  13
ENDBRANCH  11  12
ENDBRANCH   9  11
ENDBRANCH   1   9
BRANCH   1  16
HETATM   16  N3  UNL     1      24.469   6.580  51.940  1.00  0.00     0.152 N 
HETATM   17  H12 UNL     1      23.847   6.047  52.583  1.00  0.00     0.318 HD
HETATM   18  H13 UNL     1      25.443   6.514  52.305  1.00  0.00     0.318 HD
ENDBRANCH   1  16
BRANCH   6  19
HETATM   19  N5  UNL     1      22.852   1.352  51.821  1.00  0.00    -0.359 N 
HETATM   20  H17 UNL     1      22.887   1.048  50.824  1.00  0.00     0.165 HD
BRANCH  19  21
HETATM   21  C9  UNL     1      22.324   0.405  52.742  1.00  0.00     0.033 A 
HETATM   22  C10 UNL     1      23.037  -0.301  53.711  1.00  0.00     0.029 A 
HETATM   23  C11 UNL     1      22.435  -1.211  54.538  1.00  0.00     0.004 A 
HETATM   24  C12 UNL     1      21.065  -1.420  54.386  1.00  0.00     0.024 A 
HETATM   25  C13 UNL     1      20.311  -0.759  53.454  1.00  0.00     0.036 A 
HETATM   26 CL1  UNL     1      18.590  -1.049  53.301  1.00  0.00    -0.084 Cl
HETATM   27  C14 UNL     1      20.948   0.154  52.632  1.00  0.00     0.053 A 
ENDBRANCH  19  21
ENDBRANCH   6  19
TORSDOF 7
ENDMDL
MODEL 2
REMARK VINA RESULT:      -6.4      3.132      4.762
REMARK  7 active torsions:
REMARK  status: ('A' for Active; 'I' for Inactive)
REMARK    1  A    between atoms: N1_2  and  C3_4 
REMARK    2  A    between atoms: C3_4  and  C4_5 
REMARK    3  A    between atoms: C4_5  and  N2_6 
REMARK    4  A    between atoms: N2_6  and  C5_7 
REMARK    5  A    between atoms: C5_7  and  N3_8 
REMARK    6  A    between atoms: P1_13  and  N5_14 
REMARK    7  A    between atoms: N5_14  and  C9_15 
ROOT
HETATM    1  C5  UNL     1      24.931   3.310  51.965  1.00  0.00     0.567 A 
HETATM    2  C6  UNL     1      23.912   2.183  51.654  1.00  0.00     0.352 A 
HETATM    3  C7  UNL     1      23.972   2.157  53.045  1.00  0.00     0.301 A 
HETATM    4  N4  UNL     1      23.612   3.545  52.590  1.00  0.00     0.055 N 
HETATM    5  C8  UNL     1      22.598   4.544  52.515  1.00  0.00     0.308 C 
HETATM    6  P1  UNL     1      21.413   4.101  51.097  1.00  0.00     0.051 P 
HETATM    7  C15 UNL     1      22.206   2.664  50.173  1.00  0.00     0.143 C 
HETATM    8  N6  UNL     1      23.261   1.760  50.404  1.00  0.00    -0.252 NA
ENDROOT
BRANCH   1   9
HETATM    9  N2  UNL     1      25.980   2.791  52.720  1.00  0.00     0.159 N 
HETATM   10  H11 UNL     1      25.646   2.037  53.410  1.00  0.00     0.322 HD
BRANCH   9  11
HETATM   11  C4  UNL     1      27.086   2.178  52.011  1.00  0.00     0.295 C 
BRANCH  11  12
HETATM   12  C3  UNL     1      27.832   1.357  53.039  1.00  0.00     0.145 C 
BRANCH  12  13
HETATM   13  N1  UNL     1      27.064   0.280  53.487  1.00  0.00    -0.419 N 
HETATM   14  C1  UNL     1      26.763   0.133  54.856  1.00  0.00     0.142 C 
HETATM   15  C2  UNL     1      26.709  -0.750  52.596  1.00  0.00     0.142 C 
ENDBRANCH  12  13
ENDBRANCH  11  12
ENDBRANCH   9  11
ENDBRANCH   1   9
BRANCH   1  16
HETATM   16  N3  UNL     1      25.206   4.137  50.851  1.00  0.00     0.152 N 
HETATM   17  H12 UNL     1      25.238   3.546  49.995  1.00  0.00     0.318 HD
HETATM   18  H13 UNL     1      24.517   4.902  50.689  1.00  0.00     0.318 HD
ENDBRANCH   1  16
BRANCH   6  19
HETATM   19  N5  UNL     1      19.845   3.574  51.802  1.00  0.00    -0.359 N 
HETATM   20  H17 UNL     1      19.064   4.222  52.043  1.00  0.00     0.165 HD
BRANCH  19  21
HETATM   21  C9  UNL     1      19.616   2.197  52.071  1.00  0.00     0.033 A 
HETATM   22  C10 UNL     1      18.687   1.368  51.442  1.00  0.00     0.029 A 
HETATM   23  C11 UNL     1      18.529   0.054  51.792  1.00  0.00     0.004 A 
HETATM   24  C12 UNL     1      19.334  -0.447  52.814  1.00  0.00     0.024 A 
HETATM   25  C13 UNL     1      20.263   0.314  53.470  1.00  0.00     0.036 A 
HETATM   26 CL1  UNL     1      21.258  -0.358  54.745  1.00  0.00    -0.084 Cl
HETATM   27  C14 UNL     1      20.399   1.640  53.094  1.00  0.00     0.053 A 
ENDBRANCH  19  21
ENDBRANCH   6  19
TORSDOF 7
ENDMDL
MODEL 3
REMARK VINA RESULT:      -6.4      3.647      7.096
REMARK  7 active torsions:
REMARK  status: ('A' for Active; 'I' for Inactive)
REMARK    1  A    between atoms: N1_2  and  C3_4 
REMARK    2  A    between atoms: C3_4  and  C4_5 
REMARK    3  A    between atoms: C4_5  and  N2_6 
REMARK    4  A    between atoms: N2_6  and  C5_7 
REMARK    5  A    between atoms: C5_7  and  N3_8 
REMARK    6  A    between atoms: P1_13  and  N5_14 
REMARK    7  A    between atoms: N5_14  and  C9_15 
ROOT
HETATM    1  C5  UNL     1      24.502   1.126  52.409  1.00  0.00     0.567 A 
HETATM    2  C6  UNL     1      24.830   2.641  52.485  1.00  0.00     0.352 A 
HETATM    3  C7  UNL     1      25.641   2.211  51.437  1.00  0.00     0.301 A 
HETATM    4  N4  UNL     1      24.213   1.836  51.145  1.00  0.00     0.055 N 
HETATM    5  C8  UNL     1      23.064   2.079  50.338  1.00  0.00     0.308 C 
HETATM    6  P1  UNL     1      22.202   3.653  50.965  1.00  0.00     0.051 P 
HETATM    7  C15 UNL     1      23.053   4.114  52.581  1.00  0.00     0.143 C 
HETATM    8  N6  UNL     1      24.231   3.741  53.257  1.00  0.00    -0.252 NA
ENDROOT
BRANCH   1   9
HETATM    9  N2  UNL     1      25.677   0.391  52.546  1.00  0.00     0.159 N 
HETATM   10  H11 UNL     1      26.552   1.015  52.494  1.00  0.00     0.322 HD
BRANCH   9  11
HETATM   11  C4  UNL     1      25.853  -0.388  53.756  1.00  0.00     0.295 C 
BRANCH  11  12
HETATM   12  C3  UNL     1      26.789   0.412  54.631  1.00  0.00     0.145 C 
BRANCH  12  13
HETATM   13  N1  UNL     1      28.044   0.559  54.037  1.00  0.00    -0.419 N 
HETATM   14  C1  UNL     1      28.886  -0.556  53.852  1.00  0.00     0.142 C 
HETATM   15  C2  UNL     1      28.542   1.845  53.752  1.00  0.00     0.142 C 
ENDBRANCH  12  13
ENDBRANCH  11  12
ENDBRANCH   9  11
ENDBRANCH   1   9
BRANCH   1  16
HETATM   16  N3  UNL     1      23.355   0.766  53.154  1.00  0.00     0.152 N 
HETATM   17  H12 UNL     1      22.512   1.143  52.674  1.00  0.00     0.318 HD
HETATM   18  H13 UNL     1      23.220  -0.259  53.287  1.00  0.00     0.318 HD
ENDBRANCH   1  16
BRANCH   6  19
HETATM   19  N5  UNL     1      22.447   4.962  49.758  1.00  0.00    -0.359 N 
HETATM   20  H17 UNL     1      21.774   5.186  48.993  1.00  0.00     0.165 HD
BRANCH  19  21
HETATM   21  C9  UNL     1      23.622   5.761  49.807  1.00  0.00     0.033 A 
HETATM   22  C10 UNL     1      23.725   7.062  50.299  1.00  0.00     0.029 A 
HETATM   23  C11 UNL     1      24.904   7.757  50.280  1.00  0.00     0.004 A 
HETATM   24  C12 UNL     1      26.024   7.119  49.748  1.00  0.00     0.024 A 
HETATM   25  C13 UNL     1      25.989   5.845  49.250  1.00  0.00     0.036 A 
HETATM   26 CL1  UNL     1      27.422   5.081  48.595  1.00  0.00    -0.084 Cl
HETATM   27  C14 UNL     1      24.781   5.169  49.282  1.00  0.00     0.053 A 
ENDBRANCH  19  21
ENDBRANCH   6  19
TORSDOF 7
ENDMDL
MODEL 4
REMARK VINA RESULT:      -6.3      7.503     10.801
REMARK  7 active torsions:
REMARK  status: ('A' for Active; 'I' for Inactive)
REMARK    1  A    between atoms: N1_2  and  C3_4 
REMARK    2  A    between atoms: C3_4  and  C4_5 
REMARK    3  A    between atoms: C4_5  and  N2_6 
REMARK    4  A    between atoms: N2_6  and  C5_7 
REMARK    5  A    between atoms: C5_7  and  N3_8 
REMARK    6  A    between atoms: P1_13  and  N5_14 
REMARK    7  A    between atoms: N5_14  and  C9_15 
ROOT
HETATM    1  C5  UNL     1      31.189   8.510  48.428  1.00  0.00     0.567 A 
HETATM    2  C6  UNL     1      32.452   7.677  48.772  1.00  0.00     0.352 A 
HETATM    3  C7  UNL     1      31.442   6.719  48.809  1.00  0.00     0.301 A 
HETATM    4  N4  UNL     1      31.424   7.408  47.471  1.00  0.00     0.055 N 
HETATM    5  C8  UNL     1      31.673   7.290  46.073  1.00  0.00     0.308 C 
HETATM    6  P1  UNL     1      33.545   7.426  45.776  1.00  0.00     0.051 P 
HETATM    7  C15 UNL     1      34.306   7.940  47.420  1.00  0.00     0.143 C 
HETATM    8  N6  UNL     1      33.885   8.010  48.762  1.00  0.00    -0.252 NA
ENDROOT
BRANCH   1   9
HETATM    9  N2  UNL     1      30.248   8.366  49.443  1.00  0.00     0.159 N 
HETATM   10  H11 UNL     1      30.671   8.551  50.415  1.00  0.00     0.322 HD
BRANCH   9  11
HETATM   11  C4  UNL     1      29.064   9.201  49.394  1.00  0.00     0.295 C 
BRANCH  11  12
HETATM   12  C3  UNL     1      28.155   8.571  48.364  1.00  0.00     0.145 C 
BRANCH  12  13
HETATM   13  N1  UNL     1      27.385   7.547  48.920  1.00  0.00    -0.419 N 
HETATM   14  C1  UNL     1      27.501   6.224  48.449  1.00  0.00     0.142 C 
HETATM   15  C2  UNL     1      26.377   7.853  49.854  1.00  0.00     0.142 C 
ENDBRANCH  12  13
ENDBRANCH  11  12
ENDBRANCH   9  11
ENDBRANCH   1   9
BRANCH   1  16
HETATM   16  N3  UNL     1      31.491   9.797  47.923  1.00  0.00     0.152 N 
HETATM   17  H12 UNL     1      30.726  10.093  47.282  1.00  0.00     0.318 HD
HETATM   18  H13 UNL     1      31.610  10.537  48.647  1.00  0.00     0.318 HD
ENDBRANCH   1  16
BRANCH   6  19
HETATM   19  N5  UNL     1      34.170   5.809  45.300  1.00  0.00    -0.359 N 
HETATM   20  H17 UNL     1      34.646   5.609  44.393  1.00  0.00     0.165 HD
BRANCH  19  21
HETATM   21  C9  UNL     1      34.022   4.704  46.182  1.00  0.00     0.033 A 
HETATM   22  C10 UNL     1      34.859   4.368  47.246  1.00  0.00     0.029 A 
HETATM   23  C11 UNL     1      34.640   3.265  48.025  1.00  0.00     0.004 A 
HETATM   24  C12 UNL     1      33.536   2.467  47.725  1.00  0.00     0.024 A 
HETATM   25  C13 UNL     1      32.678   2.742  46.695  1.00  0.00     0.036 A 
HETATM   26 CL1  UNL     1      31.300   1.715  46.356  1.00  0.00    -0.084 Cl
HETATM   27  C14 UNL     1      32.927   3.864  45.924  1.00  0.00     0.053 A 
ENDBRANCH  19  21
ENDBRANCH   6  19
TORSDOF 7
ENDMDL
MODEL 5
REMARK VINA RESULT:      -6.3      3.938      8.376
REMARK  7 active torsions:
REMARK  status: ('A' for Active; 'I' for Inactive)
REMARK    1  A    between atoms: N1_2  and  C3_4 
REMARK    2  A    between atoms: C3_4  and  C4_5 
REMARK    3  A    between atoms: C4_5  and  N2_6 
REMARK    4  A    between atoms: N2_6  and  C5_7 
REMARK    5  A    between atoms: C5_7  and  N3_8 
REMARK    6  A    between atoms: P1_13  and  N5_14 
REMARK    7  A    between atoms: N5_14  and  C9_15 
ROOT
HETATM    1  C5  UNL     1      23.916   1.753  52.265  1.00  0.00     0.567 A 
HETATM    2  C6  UNL     1      23.825   3.273  52.567  1.00  0.00     0.352 A 
HETATM    3  C7  UNL     1      24.920   2.879  53.333  1.00  0.00     0.301 A 
HETATM    4  N4  UNL     1      25.149   2.482  51.900  1.00  0.00     0.055 N 
HETATM    5  C8  UNL     1      25.894   2.717  50.708  1.00  0.00     0.308 C 
HETATM    6  P1  UNL     1      25.193   4.261  49.849  1.00  0.00     0.051 P 
HETATM    7  C15 UNL     1      23.612   4.708  50.770  1.00  0.00     0.143 C 
HETATM    8  N6  UNL     1      23.003   4.345  51.987  1.00  0.00    -0.252 NA
ENDROOT
BRANCH   1   9
HETATM    9  N2  UNL     1      23.853   1.039  53.458  1.00  0.00     0.159 N 
HETATM   10  H11 UNL     1      22.923   1.198  53.975  1.00  0.00     0.322 HD
BRANCH   9  11
HETATM   11  C4  UNL     1      23.995  -0.403  53.394  1.00  0.00     0.295 C 
BRANCH  11  12
HETATM   12  C3  UNL     1      25.100  -0.753  54.364  1.00  0.00     0.145 C 
BRANCH  12  13
HETATM   13  N1  UNL     1      26.356  -0.433  53.844  1.00  0.00    -0.419 N 
HETATM   14  C1  UNL     1      26.756  -0.916  52.582  1.00  0.00     0.142 C 
HETATM   15  C2  UNL     1      27.294   0.252  54.641  1.00  0.00     0.142 C 
ENDBRANCH  12  13
ENDBRANCH  11  12
ENDBRANCH   9  11
ENDBRANCH   1   9
BRANCH   1  16
HETATM   16  N3  UNL     1      23.123   1.356  51.162  1.00  0.00     0.152 N 
HETATM   17  H12 UNL     1      23.692   1.437  50.294  1.00  0.00     0.318 HD
HETATM   18  H13 UNL     1      22.752   0.383  51.215  1.00  0.00     0.318 HD
ENDBRANCH   1  16
BRANCH   6  19
HETATM   19  N5  UNL     1      26.384   5.599  50.010  1.00  0.00    -0.359 N 
HETATM   20  H17 UNL     1      26.910   5.812  50.885  1.00  0.00     0.165 HD
BRANCH  19  21
HETATM   21  C9  UNL     1      26.649   6.449  48.902  1.00  0.00     0.033 A 
HETATM   22  C10 UNL     1      25.722   7.226  48.207  1.00  0.00     0.029 A 
HETATM   23  C11 UNL     1      26.078   7.998  47.134  1.00  0.00     0.004 A 
HETATM   24  C12 UNL     1      27.416   7.989  46.743  1.00  0.00     0.024 A 
HETATM   25  C13 UNL     1      28.373   7.248  47.383  1.00  0.00     0.036 A 
HETATM   26 CL1  UNL     1      30.045   7.271  46.861  1.00  0.00    -0.084 Cl
HETATM   27  C14 UNL     1      27.982   6.477  48.464  1.00  0.00     0.053 A 
ENDBRANCH  19  21
ENDBRANCH   6  19
TORSDOF 7
ENDMDL
MODEL 6
REMARK VINA RESULT:      -6.3      1.757      2.255
REMARK  7 active torsions:
REMARK  status: ('A' for Active; 'I' for Inactive)
REMARK    1  A    between atoms: N1_2  and  C3_4 
REMARK    2  A    between atoms: C3_4  and  C4_5 
REMARK    3  A    between atoms: C4_5  and  N2_6 
REMARK    4  A    between atoms: N2_6  and  C5_7 
REMARK    5  A    between atoms: C5_7  and  N3_8 
REMARK    6  A    between atoms: P1_13  and  N5_14 
REMARK    7  A    between atoms: N5_14  and  C9_15 
ROOT
HETATM    1  C5  UNL     1      24.693   6.860  50.907  1.00  0.00     0.567 A 
HETATM    2  C6  UNL     1      24.138   5.989  49.749  1.00  0.00     0.352 A 
HETATM    3  C7  UNL     1      25.248   5.260  50.168  1.00  0.00     0.301 A 
HETATM    4  N4  UNL     1      24.337   5.493  51.342  1.00  0.00     0.055 N 
HETATM    5  C8  UNL     1      23.430   4.911  52.275  1.00  0.00     0.308 C 
HETATM    6  P1  UNL     1      21.755   4.654  51.415  1.00  0.00     0.051 P 
HETATM    7  C15 UNL     1      21.875   5.528  49.751  1.00  0.00     0.143 C 
HETATM    8  N6  UNL     1      22.902   6.076  48.957  1.00  0.00    -0.252 NA
ENDROOT
BRANCH   1   9
HETATM    9  N2  UNL     1      26.021   7.187  50.646  1.00  0.00     0.159 N 
HETATM   10  H11 UNL     1      26.469   6.518  49.933  1.00  0.00     0.322 HD
BRANCH   9  11
HETATM   11  C4  UNL     1      26.305   8.513  50.132  1.00  0.00     0.295 C 
BRANCH  11  12
HETATM   12  C3  UNL     1      27.594   8.388  49.352  1.00  0.00     0.145 C 
BRANCH  12  13
HETATM   13  N1  UNL     1      27.441   7.551  48.245  1.00  0.00    -0.419 N 
HETATM   14  C1  UNL     1      28.319   6.469  48.036  1.00  0.00     0.142 C 
HETATM   15  C2  UNL     1      26.501   7.870  47.246  1.00  0.00     0.142 C 
ENDBRANCH  12  13
ENDBRANCH  11  12
ENDBRANCH   9  11
ENDBRANCH   1   9
BRANCH   1  16
HETATM   16  N3  UNL     1      23.791   7.864  51.332  1.00  0.00     0.152 N 
HETATM   17  H12 UNL     1      24.281   8.494  52.001  1.00  0.00     0.318 HD
HETATM   18  H13 UNL     1      23.393   8.451  50.568  1.00  0.00     0.318 HD
ENDBRANCH   1  16
BRANCH   6  19
HETATM   19  N5  UNL     1      21.506   2.893  51.156  1.00  0.00    -0.359 N 
HETATM   20  H17 UNL     1      20.781   2.491  50.521  1.00  0.00     0.165 HD
BRANCH  19  21
HETATM   21  C9  UNL     1      22.319   1.952  51.845  1.00  0.00     0.033 A 
HETATM   22  C10 UNL     1      23.657   1.658  51.584  1.00  0.00     0.029 A 
HETATM   23  C11 UNL     1      24.347   0.715  52.295  1.00  0.00     0.004 A 
HETATM   24  C12 UNL     1      23.668   0.041  53.309  1.00  0.00     0.024 A 
HETATM   25  C13 UNL     1      22.356   0.283  53.614  1.00  0.00     0.036 A 
HETATM   26 CL1  UNL     1      21.543  -0.584  54.901  1.00  0.00    -0.084 Cl
HETATM   27  C14 UNL     1      21.685   1.242  52.876  1.00  0.00     0.053 A 
ENDBRANCH  19  21
ENDBRANCH   6  19
TORSDOF 7
ENDMDL
MODEL 7
REMARK VINA RESULT:      -6.2      2.213      3.063
REMARK  7 active torsions:
REMARK  status: ('A' for Active; 'I' for Inactive)
REMARK    1  A    between atoms: N1_2  and  C3_4 
REMARK    2  A    between atoms: C3_4  and  C4_5 
REMARK    3  A    between atoms: C4_5  and  N2_6 
REMARK    4  A    between atoms: N2_6  and  C5_7 
REMARK    5  A    between atoms: C5_7  and  N3_8 
REMARK    6  A    between atoms: P1_13  and  N5_14 
REMARK    7  A    between atoms: N5_14  and  C9_15 
ROOT
HETATM    1  C5  UNL     1      22.311   5.226  51.312  1.00  0.00     0.567 A 
HETATM    2  C6  UNL     1      22.743   3.946  50.548  1.00  0.00     0.352 A 
HETATM    3  C7  UNL     1      23.356   3.776  51.788  1.00  0.00     0.301 A 
HETATM    4  N4  UNL     1      21.879   3.985  51.988  1.00  0.00     0.055 N 
HETATM    5  C8  UNL     1      20.638   3.395  52.366  1.00  0.00     0.308 C 
HETATM    6  P1  UNL     1      19.986   2.365  50.908  1.00  0.00     0.051 P 
HETATM    7  C15 UNL     1      21.101   2.757  49.442  1.00  0.00     0.143 C 
HETATM    8  N6  UNL     1      22.342   3.393  49.245  1.00  0.00    -0.252 NA
ENDROOT
BRANCH   1   9
HETATM    9  N2  UNL     1      23.443   5.905  51.754  1.00  0.00     0.159 N 
HETATM   10  H11 UNL     1      24.328   5.296  51.697  1.00  0.00     0.322 HD
BRANCH   9  11
HETATM   11  C4  UNL     1      23.801   7.138  51.079  1.00  0.00     0.295 C 
BRANCH  11  12
HETATM   12  C3  UNL     1      25.213   6.938  50.575  1.00  0.00     0.145 C 
BRANCH  12  13
HETATM   13  N1  UNL     1      25.229   6.226  49.373  1.00  0.00    -0.419 N 
HETATM   14  C1  UNL     1      24.341   6.555  48.331  1.00  0.00     0.142 C 
HETATM   15  C2  UNL     1      26.032   5.075  49.249  1.00  0.00     0.142 C 
ENDBRANCH  12  13
ENDBRANCH  11  12
ENDBRANCH   9  11
ENDBRANCH   1   9
BRANCH   1  16
HETATM   16  N3  UNL     1      21.270   5.935  50.667  1.00  0.00     0.152 N 
HETATM   17  H12 UNL     1      20.668   6.377  51.392  1.00  0.00     0.318 HD
HETATM   18  H13 UNL     1      21.586   6.681  50.011  1.00  0.00     0.318 HD
ENDBRANCH   1  16
BRANCH   6  19
HETATM   19  N5  UNL     1      20.127   0.622  51.325  1.00  0.00    -0.359 N 
HETATM   20  H17 UNL     1      19.646  -0.145  50.807  1.00  0.00     0.165 HD
BRANCH  19  21
HETATM   21  C9  UNL     1      20.928   0.220  52.429  1.00  0.00     0.033 A 
HETATM   22  C10 UNL     1      20.476  -0.154  53.694  1.00  0.00     0.029 A 
HETATM   23  C11 UNL     1      21.336  -0.505  54.700  1.00  0.00     0.004 A 
HETATM   24  C12 UNL     1      22.702  -0.479  54.425  1.00  0.00     0.024 A 
HETATM   25  C13 UNL     1      23.208  -0.121  53.205  1.00  0.00     0.036 A 
HETATM   26 CL1  UNL     1      24.934  -0.107  52.901  1.00  0.00    -0.084 Cl
HETATM   27  C14 UNL     1      22.314   0.230  52.209  1.00  0.00     0.053 A 
ENDBRANCH  19  21
ENDBRANCH   6  19
TORSDOF 7
ENDMDL
MODEL 8
REMARK VINA RESULT:      -6.2      3.700      6.024
REMARK  7 active torsions:
REMARK  status: ('A' for Active; 'I' for Inactive)
REMARK    1  A    between atoms: N1_2  and  C3_4 
REMARK    2  A    between atoms: C3_4  and  C4_5 
REMARK    3  A    between atoms: C4_5  and  N2_6 
REMARK    4  A    between atoms: N2_6  and  C5_7 
REMARK    5  A    between atoms: C5_7  and  N3_8 
REMARK    6  A    between atoms: P1_13  and  N5_14 
REMARK    7  A    between atoms: N5_14  and  C9_15 
ROOT
HETATM    1  C5  UNL     1      25.382   1.850  53.258  1.00  0.00     0.567 A 
HETATM    2  C6  UNL     1      25.465   1.759  51.711  1.00  0.00     0.352 A 
HETATM    3  C7  UNL     1      24.320   1.016  51.994  1.00  0.00     0.301 A 
HETATM    4  N4  UNL     1      24.180   2.391  52.589  1.00  0.00     0.055 N 
HETATM    5  C8  UNL     1      23.515   3.650  52.524  1.00  0.00     0.308 C 
HETATM    6  P1  UNL     1      24.280   4.670  51.115  1.00  0.00     0.051 P 
HETATM    7  C15 UNL     1      25.803   3.722  50.542  1.00  0.00     0.143 C 
HETATM    8  N6  UNL     1      26.331   2.429  50.730  1.00  0.00    -0.252 NA
ENDROOT
BRANCH   1   9
HETATM    9  N2  UNL     1      25.363   0.566  53.797  1.00  0.00     0.159 N 
HETATM   10  H11 UNL     1      25.294  -0.191  53.036  1.00  0.00     0.322 HD
BRANCH   9  11
HETATM   11  C4  UNL     1      26.487   0.159  54.618  1.00  0.00     0.295 C 
BRANCH  11  12
HETATM   12  C3  UNL     1      27.391  -0.647  53.713  1.00  0.00     0.145 C 
BRANCH  12  13
HETATM   13  N1  UNL     1      28.732  -0.299  53.889  1.00  0.00    -0.419 N 
HETATM   14  C1  UNL     1      29.760  -1.177  53.493  1.00  0.00     0.142 C 
HETATM   15  C2  UNL     1      29.068   0.869  54.601  1.00  0.00     0.142 C 
ENDBRANCH  12  13
ENDBRANCH  11  12
ENDBRANCH   9  11
ENDBRANCH   1   9
BRANCH   1  16
HETATM   16  N3  UNL     1      26.240   2.832  53.805  1.00  0.00     0.152 N 
HETATM   17  H12 UNL     1      26.599   2.491  54.721  1.00  0.00     0.318 HD
HETATM   18  H13 UNL     1      27.059   3.082  53.210  1.00  0.00     0.318 HD
ENDBRANCH   1  16
BRANCH   6  19
HETATM   19  N5  UNL     1      23.093   4.776  49.771  1.00  0.00    -0.359 N 
HETATM   20  H17 UNL     1      22.945   5.627  49.185  1.00  0.00     0.165 HD
BRANCH  19  21
HETATM   21  C9  UNL     1      22.277   3.655  49.455  1.00  0.00     0.033 A 
HETATM   22  C10 UNL     1      22.687   2.474  48.837  1.00  0.00     0.029 A 
HETATM   23  C11 UNL     1      21.814   1.458  48.556  1.00  0.00     0.004 A 
HETATM   24  C12 UNL     1      20.477   1.634  48.910  1.00  0.00     0.024 A 
HETATM   25  C13 UNL     1      20.012   2.769  49.518  1.00  0.00     0.036 A 
HETATM   26 CL1  UNL     1      18.324   2.946  49.950  1.00  0.00    -0.084 Cl
HETATM   27  C14 UNL     1      20.919   3.779  49.788  1.00  0.00     0.053 A 
ENDBRANCH  19  21
ENDBRANCH   6  19
TORSDOF 7
ENDMDL
MODEL 9
REMARK VINA RESULT:      -6.2      6.991      9.500
REMARK  7 active torsions:
REMARK  status: ('A' for Active; 'I' for Inactive)
REMARK    1  A    between atoms: N1_2  and  C3_4 
REMARK    2  A    between atoms: C3_4  and  C4_5 
REMARK    3  A    between atoms: C4_5  and  N2_6 
REMARK    4  A    between atoms: N2_6  and  C5_7 
REMARK    5  A    between atoms: C5_7  and  N3_8 
REMARK    6  A    between atoms: P1_13  and  N5_14 
REMARK    7  A    between atoms: N5_14  and  C9_15 
ROOT
HETATM    1  C5  UNL     1      32.747   6.271  48.548  1.00  0.00     0.567 A 
HETATM    2  C6  UNL     1      31.360   5.707  48.953  1.00  0.00     0.352 A 
HETATM    3  C7  UNL     1      31.972   5.912  50.187  1.00  0.00     0.301 A 
HETATM    4  N4  UNL     1      31.982   7.199  49.407  1.00  0.00     0.055 N 
HETATM    5  C8  UNL     1      31.461   8.520  49.291  1.00  0.00     0.308 C 
HETATM    6  P1  UNL     1      29.726   8.423  48.521  1.00  0.00     0.051 P 
HETATM    7  C15 UNL     1      29.495   6.640  47.959  1.00  0.00     0.143 C 
HETATM    8  N6  UNL     1      30.150   5.411  48.170  1.00  0.00    -0.252 NA
ENDROOT
BRANCH   1   9
HETATM    9  N2  UNL     1      33.749   5.476  49.096  1.00  0.00     0.159 N 
HETATM   10  H11 UNL     1      33.370   4.530  49.442  1.00  0.00     0.322 HD
BRANCH   9  11
HETATM   11  C4  UNL     1      34.879   5.132  48.254  1.00  0.00     0.295 C 
BRANCH  11  12
HETATM   12  C3  UNL     1      34.751   3.652  47.972  1.00  0.00     0.145 C 
BRANCH  12  13
HETATM   13  N1  UNL     1      34.190   3.418  46.715  1.00  0.00    -0.419 N 
HETATM   14  C1  UNL     1      34.828   3.881  45.547  1.00  0.00     0.142 C 
HETATM   15  C2  UNL     1      32.907   2.848  46.611  1.00  0.00     0.142 C 
ENDBRANCH  12  13
ENDBRANCH  11  12
ENDBRANCH   9  11
ENDBRANCH   1   9
BRANCH   1  16
HETATM   16  N3  UNL     1      32.817   6.656  47.188  1.00  0.00     0.152 N 
HETATM   17  H12 UNL     1      32.221   6.014  46.627  1.00  0.00     0.318 HD
HETATM   18  H13 UNL     1      32.512   7.634  46.991  1.00  0.00     0.318 HD
ENDBRANCH   1  16
BRANCH   6  19
HETATM   19  N5  UNL     1      28.512   8.819  49.786  1.00  0.00    -0.359 N 
HETATM   20  H17 UNL     1      28.743   8.974  50.792  1.00  0.00     0.165 HD
BRANCH  19  21
HETATM   21  C9  UNL     1      27.138   8.931  49.440  1.00  0.00     0.033 A 
HETATM   22  C10 UNL     1      26.597   9.704  48.412  1.00  0.00     0.029 A 
HETATM   23  C11 UNL     1      25.251   9.760  48.174  1.00  0.00     0.004 A 
HETATM   24  C12 UNL     1      24.414   9.010  49.000  1.00  0.00     0.024 A 
HETATM   25  C13 UNL     1      24.882   8.233  50.024  1.00  0.00     0.036 A 
HETATM   26 CL1  UNL     1      23.794   7.303  51.034  1.00  0.00    -0.084 Cl
HETATM   27  C14 UNL     1      26.248   8.198  50.241  1.00  0.00     0.053 A 
ENDBRANCH  19  21
ENDBRANCH   6  19
TORSDOF 7
ENDMDL
