MODEL 1
REMARK VINA RESULT:      -9.1      0.000      0.000
REMARK  3 active torsions:
REMARK  status: ('A' for Active; 'I' for Inactive)
REMARK    1  A    between atoms: N1_1  and  C1_2 
REMARK    2  A    between atoms: C13_16  and  O1_17 
REMARK    3  A    between atoms: O1_17  and  C14_18 
ROOT
HETATM    1  C1  UNL     1      22.010   1.739  51.277  1.00  0.00     0.264 C 
HETATM    2  C2  UNL     1      22.180   0.888  52.491  1.00  0.00     0.011 A 
HETATM    3  C3  UNL     1      21.006   0.782  53.319  1.00  0.00    -0.022 A 
HETATM    4  C4  UNL     1      21.011   0.025  54.520  1.00  0.00    -0.024 A 
HETATM    5  C5  UNL     1      22.356  -0.409  54.459  1.00  0.00     0.033 A 
HETATM    6  C6  UNL     1      23.547  -0.728  54.300  1.00  0.00     0.023 A 
HETATM    7  C7  UNL     1      23.161   0.116  53.168  1.00  0.00     0.091 A 
HETATM    8  C8  UNL     1      24.642  -0.600  53.548  1.00  0.00     0.000 A 
HETATM    9  C9  UNL     1      25.557  -0.475  52.910  1.00  0.00    -0.037 C 
HETATM   10  N2  UNL     1      26.628  -0.311  52.139  1.00  0.00    -0.316 N 
HETATM   11  C10 UNL     1      26.350   1.069  51.780  1.00  0.00     0.215 C 
HETATM   12  N3  UNL     1      25.242   1.477  51.446  1.00  0.00    -0.243 NA
HETATM   13  C11 UNL     1      24.568   2.598  51.061  1.00  0.00     0.072 A 
HETATM   14  C12 UNL     1      25.315   3.694  50.738  1.00  0.00     0.072 A 
HETATM   15  C13 UNL     1      24.831   4.958  50.354  1.00  0.00     0.107 A 
HETATM   16  C19 UNL     1      23.461   5.018  50.319  1.00  0.00     0.136 A 
HETATM   17  C20 UNL     1      22.675   3.931  50.638  1.00  0.00     0.115 A 
HETATM   18  C21 UNL     1      23.166   2.662  51.026  1.00  0.00     0.040 A 
HETATM   19  O3  UNL     1      21.335   4.246  50.529  1.00  0.00    -0.345 OA
HETATM   20  C22 UNL     1      20.729   5.491  50.483  1.00  0.00     0.202 C 
HETATM   21  C23 UNL     1      21.637   6.657  50.245  1.00  0.00     0.202 C 
HETATM   22  O4  UNL     1      22.965   6.240  49.943  1.00  0.00    -0.344 OA
HETATM   23  H8  UNL     1      26.770  -1.288  52.430  1.00  0.00     0.176 HD
ENDROOT
BRANCH  15  24
HETATM   24  O1  UNL     1      25.821   5.858  50.097  1.00  0.00    -0.343 OA
BRANCH  24  25
HETATM   25  C14 UNL     1      26.236   6.420  48.894  1.00  0.00     0.133 C 
HETATM   26  C15 UNL     1      27.669   5.999  48.557  1.00  0.00     0.058 C 
HETATM   27  C16 UNL     1      28.209   6.925  47.501  1.00  0.00     0.170 C 
HETATM   28  O2  UNL     1      28.435   8.198  48.012  1.00  0.00    -0.391 OA
HETATM   29  C17 UNL     1      27.634   8.462  49.095  1.00  0.00     0.170 C 
HETATM   30  C18 UNL     1      26.238   7.940  48.976  1.00  0.00     0.058 C 
ENDBRANCH  24  25
ENDBRANCH  15  24
BRANCH   1  31
HETATM   31  N1  UNL     1      21.842   0.875  50.096  1.00  0.00     0.088 N 
HETATM   32  H1  UNL     1      20.939   1.122  49.605  1.00  0.00     0.313 HD
HETATM   33  H2  UNL     1      21.791  -0.134  50.381  1.00  0.00     0.313 HD
ENDBRANCH   1  31
TORSDOF 3
ENDMDL
MODEL 2
REMARK VINA RESULT:      -9.1      2.931      7.103
REMARK  3 active torsions:
REMARK  status: ('A' for Active; 'I' for Inactive)
REMARK    1  A    between atoms: N1_1  and  C1_2 
REMARK    2  A    between atoms: C13_16  and  O1_17 
REMARK    3  A    between atoms: O1_17  and  C14_18 
ROOT
HETATM    1  C1  UNL     1      23.584   6.236  50.869  1.00  0.00     0.264 C 
HETATM    2  C2  UNL     1      23.820   6.900  49.553  1.00  0.00     0.011 A 
HETATM    3  C3  UNL     1      22.672   7.579  49.009  1.00  0.00    -0.022 A 
HETATM    4  C4  UNL     1      22.728   8.242  47.755  1.00  0.00    -0.024 A 
HETATM    5  C5  UNL     1      24.079   7.954  47.453  1.00  0.00     0.033 A 
HETATM    6  C6  UNL     1      25.271   7.641  47.295  1.00  0.00     0.023 A 
HETATM    7  C7  UNL     1      24.837   7.090  48.580  1.00  0.00     0.091 A 
HETATM    8  C8  UNL     1      26.323   6.982  47.787  1.00  0.00     0.000 A 
HETATM    9  C9  UNL     1      27.196   6.417  48.209  1.00  0.00    -0.037 C 
HETATM   10  N2  UNL     1      28.215   5.739  48.729  1.00  0.00    -0.316 N 
HETATM   11  C10 UNL     1      27.414   4.675  49.308  1.00  0.00     0.215 C 
HETATM   12  N3  UNL     1      26.376   4.866  49.934  1.00  0.00    -0.243 NA
HETATM   13  C11 UNL     1      25.373   4.222  50.596  1.00  0.00     0.072 A 
HETATM   14  C12 UNL     1      25.557   2.898  50.871  1.00  0.00     0.072 A 
HETATM   15  C13 UNL     1      24.646   2.036  51.508  1.00  0.00     0.107 A 
HETATM   16  C19 UNL     1      23.477   2.661  51.862  1.00  0.00     0.136 A 
HETATM   17  C20 UNL     1      23.257   3.997  51.601  1.00  0.00     0.115 A 
HETATM   18  C21 UNL     1      24.176   4.860  50.959  1.00  0.00     0.040 A 
HETATM   19  O3  UNL     1      22.010   4.386  52.052  1.00  0.00    -0.345 OA
HETATM   20  C22 UNL     1      20.917   3.603  52.387  1.00  0.00     0.202 C 
HETATM   21  C23 UNL     1      21.181   2.139  52.551  1.00  0.00     0.202 C 
HETATM   22  O4  UNL     1      22.573   1.842  52.488  1.00  0.00    -0.344 OA
HETATM   23  H8  UNL     1      28.727   6.520  48.296  1.00  0.00     0.176 HD
ENDROOT
BRANCH  15  24
HETATM   24  O1  UNL     1      25.110   0.762  51.639  1.00  0.00    -0.343 OA
BRANCH  24  25
HETATM   25  C14 UNL     1      25.406   0.026  52.782  1.00  0.00     0.133 C 
HETATM   26  C15 UNL     1      25.897   0.937  53.910  1.00  0.00     0.058 C 
HETATM   27  C16 UNL     1      26.578   0.091  54.953  1.00  0.00     0.170 C 
HETATM   28  O2  UNL     1      27.789  -0.407  54.488  1.00  0.00    -0.391 OA
HETATM   29  C17 UNL     1      27.808  -0.505  53.119  1.00  0.00     0.170 C 
HETATM   30  C18 UNL     1      26.523  -0.972  52.512  1.00  0.00     0.058 C 
ENDBRANCH  24  25
ENDBRANCH  15  24
BRANCH   1  31
HETATM   31  N1  UNL     1      24.164   7.061  51.942  1.00  0.00     0.088 N 
HETATM   32  H1  UNL     1      23.537   7.893  52.123  1.00  0.00     0.313 HD
HETATM   33  H2  UNL     1      25.108   7.423  51.660  1.00  0.00     0.313 HD
ENDBRANCH   1  31
TORSDOF 3
ENDMDL
MODEL 3
REMARK VINA RESULT:      -9.1      3.217      6.636
REMARK  3 active torsions:
REMARK  status: ('A' for Active; 'I' for Inactive)
REMARK    1  A    between atoms: N1_1  and  C1_2 
REMARK    2  A    between atoms: C13_16  and  O1_17 
REMARK    3  A    between atoms: O1_17  and  C14_18 
ROOT
HETATM    1  C1  UNL     1      22.150   3.959  51.758  1.00  0.00     0.264 C 
HETATM    2  C2  UNL     1      22.069   4.586  50.405  1.00  0.00     0.011 A 
HETATM    3  C3  UNL     1      20.735   4.701  49.876  1.00  0.00    -0.022 A 
HETATM    4  C4  UNL     1      20.492   5.255  48.592  1.00  0.00    -0.024 A 
HETATM    5  C5  UNL     1      21.837   5.532  48.252  1.00  0.00     0.033 A 
HETATM    6  C6  UNL     1      23.049   5.728  48.063  1.00  0.00     0.023 A 
HETATM    7  C7  UNL     1      22.901   5.121  49.387  1.00  0.00     0.091 A 
HETATM    8  C8  UNL     1      24.287   5.589  48.543  1.00  0.00     0.000 A 
HETATM    9  C9  UNL     1      25.322   5.457  48.957  1.00  0.00    -0.037 C 
HETATM   10  N2  UNL     1      26.538   5.289  49.468  1.00  0.00    -0.316 N 
HETATM   11  C10 UNL     1      26.256   4.024  50.124  1.00  0.00     0.215 C 
HETATM   12  N3  UNL     1      25.242   3.807  50.780  1.00  0.00    -0.243 NA
HETATM   13  C11 UNL     1      24.605   2.847  51.509  1.00  0.00     0.072 A 
HETATM   14  C12 UNL     1      25.324   1.734  51.836  1.00  0.00     0.072 A 
HETATM   15  C13 UNL     1      24.859   0.611  52.546  1.00  0.00     0.107 A 
HETATM   16  C19 UNL     1      23.543   0.719  52.915  1.00  0.00     0.136 A 
HETATM   17  C20 UNL     1      22.787   1.830  52.602  1.00  0.00     0.115 A 
HETATM   18  C21 UNL     1      23.258   2.956  51.887  1.00  0.00     0.040 A 
HETATM   19  O3  UNL     1      21.499   1.696  53.083  1.00  0.00    -0.345 OA
HETATM   20  C22 UNL     1      20.831   0.554  53.494  1.00  0.00     0.202 C 
HETATM   21  C23 UNL     1      21.678  -0.660  53.715  1.00  0.00     0.202 C 
HETATM   22  O4  UNL     1      23.067  -0.361  53.612  1.00  0.00    -0.344 OA
HETATM   23  H8  UNL     1      26.675   6.185  48.980  1.00  0.00     0.176 HD
ENDROOT
BRANCH  15  24
HETATM   24  O1  UNL     1      25.810  -0.350  52.716  1.00  0.00    -0.343 OA
BRANCH  24  25
HETATM   25  C14 UNL     1      27.198  -0.261  52.667  1.00  0.00     0.133 C 
HETATM   26  C15 UNL     1      27.848  -1.583  53.082  1.00  0.00     0.058 C 
HETATM   27  C16 UNL     1      29.296  -1.328  53.406  1.00  0.00     0.170 C 
HETATM   28  O2  UNL     1      29.431  -0.601  54.583  1.00  0.00    -0.391 OA
HETATM   29  C17 UNL     1      28.319   0.162  54.841  1.00  0.00     0.170 C 
HETATM   30  C18 UNL     1      27.709   0.798  53.633  1.00  0.00     0.058 C 
ENDBRANCH  24  25
ENDBRANCH  15  24
BRANCH   1  31
HETATM   31  N1  UNL     1      22.354   5.010  52.770  1.00  0.00     0.088 N 
HETATM   32  H1  UNL     1      22.889   4.609  53.589  1.00  0.00     0.313 HD
HETATM   33  H2  UNL     1      21.432   5.363  53.126  1.00  0.00     0.313 HD
ENDBRANCH   1  31
TORSDOF 3
ENDMDL
MODEL 4
REMARK VINA RESULT:      -8.9      3.044      7.310
REMARK  3 active torsions:
REMARK  status: ('A' for Active; 'I' for Inactive)
REMARK    1  A    between atoms: N1_1  and  C1_2 
REMARK    2  A    between atoms: C13_16  and  O1_17 
REMARK    3  A    between atoms: O1_17  and  C14_18 
ROOT
HETATM    1  C1  UNL     1      23.331   4.371  51.720  1.00  0.00     0.264 C 
HETATM    2  C2  UNL     1      24.606   3.762  51.237  1.00  0.00     0.011 A 
HETATM    3  C3  UNL     1      25.260   4.494  50.184  1.00  0.00    -0.022 A 
HETATM    4  C4  UNL     1      26.471   4.034  49.603  1.00  0.00    -0.024 A 
HETATM    5  C5  UNL     1      26.614   2.859  50.378  1.00  0.00     0.033 A 
HETATM    6  C6  UNL     1      26.635   1.860  51.114  1.00  0.00     0.023 A 
HETATM    7  C7  UNL     1      25.438   2.632  51.453  1.00  0.00     0.091 A 
HETATM    8  C8  UNL     1      26.008   1.166  52.068  1.00  0.00     0.000 A 
HETATM    9  C9  UNL     1      25.464   0.591  52.863  1.00  0.00    -0.037 C 
HETATM   10  N2  UNL     1      24.801  -0.074  53.805  1.00  0.00    -0.316 N 
HETATM   11  C10 UNL     1      23.472   0.252  53.318  1.00  0.00     0.215 C 
HETATM   12  N3  UNL     1      23.135   1.376  52.958  1.00  0.00    -0.243 NA
HETATM   13  C11 UNL     1      22.082   2.087  52.463  1.00  0.00     0.072 A 
HETATM   14  C12 UNL     1      20.859   1.483  52.479  1.00  0.00     0.072 A 
HETATM   15  C13 UNL     1      19.651   2.014  51.989  1.00  0.00     0.107 A 
HETATM   16  C19 UNL     1      19.796   3.271  51.458  1.00  0.00     0.136 A 
HETATM   17  C20 UNL     1      21.017   3.912  51.426  1.00  0.00     0.115 A 
HETATM   18  C21 UNL     1      22.229   3.374  51.919  1.00  0.00     0.040 A 
HETATM   19  O3  UNL     1      20.899   5.159  50.845  1.00  0.00    -0.345 OA
HETATM   20  C22 UNL     1      19.883   5.663  50.050  1.00  0.00     0.202 C 
HETATM   21  C23 UNL     1      18.612   4.873  50.027  1.00  0.00     0.202 C 
HETATM   22  O4  UNL     1      18.632   3.812  50.977  1.00  0.00    -0.344 OA
HETATM   23  H8  UNL     1      25.767  -0.271  54.099  1.00  0.00     0.176 HD
ENDROOT
BRANCH  15  24
HETATM   24  O1  UNL     1      18.592   1.171  52.139  1.00  0.00    -0.343 OA
BRANCH  24  25
HETATM   25  C14 UNL     1      18.176   0.100  51.355  1.00  0.00     0.133 C 
HETATM   26  C15 UNL     1      17.289   0.576  50.201  1.00  0.00     0.058 C 
HETATM   27  C16 UNL     1      16.547  -0.608  49.642  1.00  0.00     0.170 C 
HETATM   28  O2  UNL     1      15.580  -1.064  50.530  1.00  0.00    -0.391 OA
HETATM   29  C17 UNL     1      15.891  -0.748  51.829  1.00  0.00     0.170 C 
HETATM   30  C18 UNL     1      17.341  -0.879  52.169  1.00  0.00     0.058 C 
ENDBRANCH  24  25
ENDBRANCH  15  24
BRANCH   1  31
HETATM   31  N1  UNL     1      23.574   5.057  53.001  1.00  0.00     0.088 N 
HETATM   32  H1  UNL     1      24.270   4.502  53.570  1.00  0.00     0.313 HD
HETATM   33  H2  UNL     1      22.685   5.129  53.555  1.00  0.00     0.313 HD
ENDBRANCH   1  31
TORSDOF 3
ENDMDL
MODEL 5
REMARK VINA RESULT:      -8.8      1.733      2.181
REMARK  3 active torsions:
REMARK  status: ('A' for Active; 'I' for Inactive)
REMARK    1  A    between atoms: N1_1  and  C1_2 
REMARK    2  A    between atoms: C13_16  and  O1_17 
REMARK    3  A    between atoms: O1_17  and  C14_18 
ROOT
HETATM    1  C1  UNL     1      21.002   1.437  50.811  1.00  0.00     0.264 C 
HETATM    2  C2  UNL     1      20.798   0.494  51.950  1.00  0.00     0.011 A 
HETATM    3  C3  UNL     1      19.428   0.113  52.175  1.00  0.00    -0.022 A 
HETATM    4  C4  UNL     1      19.066  -0.762  53.233  1.00  0.00    -0.024 A 
HETATM    5  C5  UNL     1      20.364  -0.969  53.755  1.00  0.00     0.033 A 
HETATM    6  C6  UNL     1      21.546  -1.076  54.124  1.00  0.00     0.023 A 
HETATM    7  C7  UNL     1      21.525  -0.183  52.964  1.00  0.00     0.091 A 
HETATM    8  C8  UNL     1      22.811  -0.693  53.933  1.00  0.00     0.000 A 
HETATM    9  C9  UNL     1      23.868  -0.355  53.764  1.00  0.00    -0.037 C 
HETATM   10  N2  UNL     1      25.112   0.060  53.546  1.00  0.00    -0.316 N 
HETATM   11  C10 UNL     1      24.755   1.410  53.145  1.00  0.00     0.215 C 
HETATM   12  N3  UNL     1      23.839   1.672  52.372  1.00  0.00    -0.243 NA
HETATM   13  C11 UNL     1      23.193   2.709  51.766  1.00  0.00     0.072 A 
HETATM   14  C12 UNL     1      23.782   3.938  51.837  1.00  0.00     0.072 A 
HETATM   15  C13 UNL     1      23.277   5.144  51.318  1.00  0.00     0.107 A 
HETATM   16  C19 UNL     1      22.067   4.991  50.689  1.00  0.00     0.136 A 
HETATM   17  C20 UNL     1      21.444   3.764  50.597  1.00  0.00     0.115 A 
HETATM   18  C21 UNL     1      21.955   2.553  51.122  1.00  0.00     0.040 A 
HETATM   19  O3  UNL     1      20.244   3.874  49.921  1.00  0.00    -0.345 OA
HETATM   20  C22 UNL     1      19.490   5.005  49.653  1.00  0.00     0.202 C 
HETATM   21  C23 UNL     1      20.172   6.318  49.873  1.00  0.00     0.202 C 
HETATM   22  O4  UNL     1      21.555   6.153  50.171  1.00  0.00    -0.344 OA
HETATM   23  H8  UNL     1      25.300  -0.908  53.840  1.00  0.00     0.176 HD
ENDROOT
BRANCH  15  24
HETATM   24  O1  UNL     1      24.089   6.213  51.550  1.00  0.00    -0.343 OA
BRANCH  24  25
HETATM   25  C14 UNL     1      24.976   6.869  50.702  1.00  0.00     0.133 C 
HETATM   26  C15 UNL     1      24.405   8.215  50.247  1.00  0.00     0.058 C 
HETATM   27  C16 UNL     1      25.181   8.688  49.046  1.00  0.00     0.170 C 
HETATM   28  O2  UNL     1      24.906   7.908  47.929  1.00  0.00    -0.391 OA
HETATM   29  C17 UNL     1      24.496   6.645  48.276  1.00  0.00     0.170 C 
HETATM   30  C18 UNL     1      25.225   6.054  49.441  1.00  0.00     0.058 C 
ENDBRANCH  24  25
ENDBRANCH  15  24
BRANCH   1  31
HETATM   31  N1  UNL     1      21.520   0.694  49.650  1.00  0.00     0.088 N 
HETATM   32  H1  UNL     1      21.593  -0.332  49.894  1.00  0.00     0.313 HD
HETATM   33  H2  UNL     1      22.479   1.035  49.391  1.00  0.00     0.313 HD
ENDBRANCH   1  31
TORSDOF 3
ENDMDL
MODEL 6
REMARK VINA RESULT:      -8.6      2.966      6.513
REMARK  3 active torsions:
REMARK  status: ('A' for Active; 'I' for Inactive)
REMARK    1  A    between atoms: N1_1  and  C1_2 
REMARK    2  A    between atoms: C13_16  and  O1_17 
REMARK    3  A    between atoms: O1_17  and  C14_18 
ROOT
HETATM    1  C1  UNL     1      24.184   2.793  52.085  1.00  0.00     0.264 C 
HETATM    2  C2  UNL     1      24.952   1.576  52.483  1.00  0.00     0.011 A 
HETATM    3  C3  UNL     1      26.288   1.508  51.949  1.00  0.00    -0.022 A 
HETATM    4  C4  UNL     1      27.139   0.404  52.219  1.00  0.00    -0.024 A 
HETATM    5  C5  UNL     1      26.239  -0.330  53.027  1.00  0.00     0.033 A 
HETATM    6  C6  UNL     1      25.368  -0.884  53.719  1.00  0.00     0.023 A 
HETATM    7  C7  UNL     1      24.810   0.380  53.235  1.00  0.00     0.091 A 
HETATM    8  C8  UNL     1      24.118  -0.832  54.185  1.00  0.00     0.000 A 
HETATM    9  C9  UNL     1      23.062  -0.778  54.562  1.00  0.00    -0.037 C 
HETATM   10  N2  UNL     1      21.808  -0.693  54.995  1.00  0.00    -0.316 N 
HETATM   11  C10 UNL     1      21.276  -0.058  53.802  1.00  0.00     0.215 C 
HETATM   12  N3  UNL     1      21.826   0.873  53.222  1.00  0.00    -0.243 NA
HETATM   13  C11 UNL     1      21.705   1.708  52.151  1.00  0.00     0.072 A 
HETATM   14  C12 UNL     1      20.503   1.722  51.504  1.00  0.00     0.072 A 
HETATM   15  C13 UNL     1      20.172   2.474  50.362  1.00  0.00     0.107 A 
HETATM   16  C19 UNL     1      21.210   3.250  49.912  1.00  0.00     0.136 A 
HETATM   17  C20 UNL     1      22.437   3.262  50.542  1.00  0.00     0.115 A 
HETATM   18  C21 UNL     1      22.767   2.502  51.689  1.00  0.00     0.040 A 
HETATM   19  O3  UNL     1      23.309   4.119  49.899  1.00  0.00    -0.345 OA
HETATM   20  C22 UNL     1      23.231   4.652  48.623  1.00  0.00     0.202 C 
HETATM   21  C23 UNL     1      21.910   4.519  47.933  1.00  0.00     0.202 C 
HETATM   22  O4  UNL     1      20.910   3.997  48.802  1.00  0.00    -0.344 OA
HETATM   23  H8  UNL     1      22.244  -1.144  55.810  1.00  0.00     0.176 HD
ENDROOT
BRANCH  15  24
HETATM   24  O1  UNL     1      18.892   2.275  49.939  1.00  0.00    -0.343 OA
BRANCH  24  25
HETATM   25  C14 UNL     1      17.755   3.058  50.115  1.00  0.00     0.133 C 
HETATM   26  C15 UNL     1      17.800   3.799  51.454  1.00  0.00     0.058 C 
HETATM   27  C16 UNL     1      16.415   4.289  51.782  1.00  0.00     0.170 C 
HETATM   28  O2  UNL     1      15.569   3.234  52.106  1.00  0.00    -0.391 OA
HETATM   29  C17 UNL     1      15.978   2.057  51.531  1.00  0.00     0.170 C 
HETATM   30  C18 UNL     1      16.501   2.196  50.137  1.00  0.00     0.058 C 
ENDBRANCH  24  25
ENDBRANCH  15  24
BRANCH   1  31
HETATM   31  N1  UNL     1      24.167   3.747  53.206  1.00  0.00     0.088 N 
HETATM   32  H1  UNL     1      24.516   4.688  52.872  1.00  0.00     0.313 HD
HETATM   33  H2  UNL     1      24.800   3.421  53.978  1.00  0.00     0.313 HD
ENDBRANCH   1  31
TORSDOF 3
ENDMDL
MODEL 7
REMARK VINA RESULT:      -8.3      1.481      1.854
REMARK  3 active torsions:
REMARK  status: ('A' for Active; 'I' for Inactive)
REMARK    1  A    between atoms: N1_1  and  C1_2 
REMARK    2  A    between atoms: C13_16  and  O1_17 
REMARK    3  A    between atoms: O1_17  and  C14_18 
ROOT
HETATM    1  C1  UNL     1      22.523   2.824  49.707  1.00  0.00     0.264 C 
HETATM    2  C2  UNL     1      22.331   2.089  50.992  1.00  0.00     0.011 A 
HETATM    3  C3  UNL     1      20.987   2.121  51.508  1.00  0.00    -0.022 A 
HETATM    4  C4  UNL     1      20.647   1.487  52.731  1.00  0.00    -0.024 A 
HETATM    5  C5  UNL     1      21.932   0.983  53.043  1.00  0.00     0.033 A 
HETATM    6  C6  UNL     1      23.099   0.594  53.212  1.00  0.00     0.023 A 
HETATM    7  C7  UNL     1      23.062   1.340  51.953  1.00  0.00     0.091 A 
HETATM    8  C8  UNL     1      24.351   0.595  52.748  1.00  0.00     0.000 A 
HETATM    9  C9  UNL     1      25.400   0.612  52.348  1.00  0.00    -0.037 C 
HETATM   10  N2  UNL     1      26.635   0.647  51.857  1.00  0.00    -0.316 N 
HETATM   11  C10 UNL     1      26.551   1.998  51.327  1.00  0.00     0.215 C 
HETATM   12  N3  UNL     1      25.590   2.424  50.695  1.00  0.00    -0.243 NA
HETATM   13  C11 UNL     1      25.111   3.533  50.064  1.00  0.00     0.072 A 
HETATM   14  C12 UNL     1      25.990   4.555  49.847  1.00  0.00     0.072 A 
HETATM   15  C13 UNL     1      25.705   5.797  49.251  1.00  0.00     0.107 A 
HETATM   16  C19 UNL     1      24.392   5.920  48.872  1.00  0.00     0.136 A 
HETATM   17  C20 UNL     1      23.477   4.908  49.075  1.00  0.00     0.115 A 
HETATM   18  C21 UNL     1      23.768   3.661  49.677  1.00  0.00     0.040 A 
HETATM   19  O3  UNL     1      22.230   5.276  48.610  1.00  0.00    -0.345 OA
HETATM   20  C22 UNL     1      21.743   6.538  48.312  1.00  0.00     0.202 C 
HETATM   21  C23 UNL     1      22.761   7.630  48.211  1.00  0.00     0.202 C 
HETATM   22  O4  UNL     1      24.090   7.122  48.284  1.00  0.00    -0.344 OA
HETATM   23  H8  UNL     1      26.632  -0.302  52.254  1.00  0.00     0.176 HD
ENDROOT
BRANCH  15  24
HETATM   24  O1  UNL     1      26.789   6.619  49.175  1.00  0.00    -0.343 OA
BRANCH  24  25
HETATM   25  C14 UNL     1      27.655   6.870  48.115  1.00  0.00     0.133 C 
HETATM   26  C15 UNL     1      28.942   6.053  48.253  1.00  0.00     0.058 C 
HETATM   27  C16 UNL     1      29.988   6.643  47.345  1.00  0.00     0.170 C 
HETATM   28  O2  UNL     1      30.423   7.878  47.810  1.00  0.00    -0.391 OA
HETATM   29  C17 UNL     1      29.471   8.497  48.582  1.00  0.00     0.170 C 
HETATM   30  C18 UNL     1      28.069   8.334  48.087  1.00  0.00     0.058 C 
ENDBRANCH  24  25
ENDBRANCH  15  24
BRANCH   1  31
HETATM   31  N1  UNL     1      22.586   1.858  48.598  1.00  0.00     0.088 N 
HETATM   32  H1  UNL     1      22.065   2.246  47.763  1.00  0.00     0.313 HD
HETATM   33  H2  UNL     1      22.131   0.952  48.871  1.00  0.00     0.313 HD
ENDBRANCH   1  31
TORSDOF 3
ENDMDL
MODEL 8
REMARK VINA RESULT:      -8.3      2.793      5.875
REMARK  3 active torsions:
REMARK  status: ('A' for Active; 'I' for Inactive)
REMARK    1  A    between atoms: N1_1  and  C1_2 
REMARK    2  A    between atoms: C13_16  and  O1_17 
REMARK    3  A    between atoms: O1_17  and  C14_18 
ROOT
HETATM    1  C1  UNL     1      24.240   3.055  52.211  1.00  0.00     0.264 C 
HETATM    2  C2  UNL     1      24.643   1.670  52.599  1.00  0.00     0.011 A 
HETATM    3  C3  UNL     1      25.982   1.306  52.218  1.00  0.00    -0.022 A 
HETATM    4  C4  UNL     1      26.508   0.017  52.496  1.00  0.00    -0.024 A 
HETATM    5  C5  UNL     1      25.364  -0.515  53.136  1.00  0.00     0.033 A 
HETATM    6  C6  UNL     1      24.305  -0.874  53.678  1.00  0.00     0.023 A 
HETATM    7  C7  UNL     1      24.127   0.510  53.233  1.00  0.00     0.091 A 
HETATM    8  C8  UNL     1      23.053  -0.543  54.000  1.00  0.00     0.000 A 
HETATM    9  C9  UNL     1      21.999  -0.253  54.257  1.00  0.00    -0.037 C 
HETATM   10  N2  UNL     1      20.754   0.113  54.549  1.00  0.00    -0.316 N 
HETATM   11  C10 UNL     1      20.546   0.915  53.356  1.00  0.00     0.215 C 
HETATM   12  N3  UNL     1      21.370   1.712  52.917  1.00  0.00    -0.243 NA
HETATM   13  C11 UNL     1      21.588   2.602  51.908  1.00  0.00     0.072 A 
HETATM   14  C12 UNL     1      20.518   2.938  51.130  1.00  0.00     0.072 A 
HETATM   15  C13 UNL     1      20.524   3.803  50.020  1.00  0.00     0.107 A 
HETATM   16  C19 UNL     1      21.765   4.324  49.755  1.00  0.00     0.136 A 
HETATM   17  C20 UNL     1      22.867   4.007  50.519  1.00  0.00     0.115 A 
HETATM   18  C21 UNL     1      22.858   3.136  51.634  1.00  0.00     0.040 A 
HETATM   19  O3  UNL     1      23.992   4.657  50.050  1.00  0.00    -0.345 OA
HETATM   20  C22 UNL     1      24.208   5.255  48.819  1.00  0.00     0.202 C 
HETATM   21  C23 UNL     1      22.994   5.479  47.973  1.00  0.00     0.202 C 
HETATM   22  O4  UNL     1      21.795   5.174  48.679  1.00  0.00    -0.344 OA
HETATM   23  H8  UNL     1      20.963  -0.470  55.371  1.00  0.00     0.176 HD
ENDROOT
BRANCH  15  24
HETATM   24  O1  UNL     1      19.299   3.941  49.439  1.00  0.00    -0.343 OA
BRANCH  24  25
HETATM   25  C14 UNL     1      18.687   3.188  48.442  1.00  0.00     0.133 C 
HETATM   26  C15 UNL     1      19.076   3.698  47.052  1.00  0.00     0.058 C 
HETATM   27  C16 UNL     1      18.104   3.145  46.044  1.00  0.00     0.170 C 
HETATM   28  O2  UNL     1      16.849   3.726  46.183  1.00  0.00    -0.391 OA
HETATM   29  C17 UNL     1      16.636   4.184  47.459  1.00  0.00     0.170 C 
HETATM   30  C18 UNL     1      17.171   3.293  48.535  1.00  0.00     0.058 C 
ENDBRANCH  24  25
ENDBRANCH  15  24
BRANCH   1  31
HETATM   31  N1  UNL     1      24.302   3.930  53.394  1.00  0.00     0.088 N 
HETATM   32  H1  UNL     1      24.862   3.454  54.154  1.00  0.00     0.313 HD
HETATM   33  H2  UNL     1      23.338   4.112  53.768  1.00  0.00     0.313 HD
ENDBRANCH   1  31
TORSDOF 3
ENDMDL
MODEL 9
REMARK VINA RESULT:      -8.2      2.874      7.092
REMARK  3 active torsions:
REMARK  status: ('A' for Active; 'I' for Inactive)
REMARK    1  A    between atoms: N1_1  and  C1_2 
REMARK    2  A    between atoms: C13_16  and  O1_17 
REMARK    3  A    between atoms: O1_17  and  C14_18 
ROOT
HETATM    1  C1  UNL     1      24.105   6.381  50.605  1.00  0.00     0.264 C 
HETATM    2  C2  UNL     1      25.157   5.426  50.147  1.00  0.00     0.011 A 
HETATM    3  C3  UNL     1      26.094   5.974  49.200  1.00  0.00    -0.022 A 
HETATM    4  C4  UNL     1      27.142   5.187  48.654  1.00  0.00    -0.024 A 
HETATM    5  C5  UNL     1      26.843   3.983  49.333  1.00  0.00     0.033 A 
HETATM    6  C6  UNL     1      26.486   2.985  49.981  1.00  0.00     0.023 A 
HETATM    7  C7  UNL     1      25.570   4.078  50.314  1.00  0.00     0.091 A 
HETATM    8  C8  UNL     1      25.595   2.472  50.833  1.00  0.00     0.000 A 
HETATM    9  C9  UNL     1      24.834   2.053  51.544  1.00  0.00    -0.037 C 
HETATM   10  N2  UNL     1      23.920   1.578  52.384  1.00  0.00    -0.316 N 
HETATM   11  C10 UNL     1      22.806   2.344  51.850  1.00  0.00     0.215 C 
HETATM   12  N3  UNL     1      22.872   3.536  51.568  1.00  0.00    -0.243 NA
HETATM   13  C11 UNL     1      22.142   4.577  51.075  1.00  0.00     0.072 A 
HETATM   14  C12 UNL     1      20.793   4.397  50.967  1.00  0.00     0.072 A 
HETATM   15  C13 UNL     1      19.860   5.317  50.454  1.00  0.00     0.107 A 
HETATM   16  C19 UNL     1      20.438   6.491  50.043  1.00  0.00     0.136 A 
HETATM   17  C20 UNL     1      21.796   6.708  50.138  1.00  0.00     0.115 A 
HETATM   18  C21 UNL     1      22.731   5.779  50.653  1.00  0.00     0.040 A 
HETATM   19  O3  UNL     1      22.127   7.960  49.659  1.00  0.00    -0.345 OA
HETATM   20  C22 UNL     1      21.391   8.812  48.851  1.00  0.00     0.202 C 
HETATM   21  C23 UNL     1      19.942   8.474  48.687  1.00  0.00     0.202 C 
HETATM   22  O4  UNL     1      19.547   7.406  49.542  1.00  0.00    -0.344 OA
HETATM   23  H8  UNL     1      24.746   1.064  52.717  1.00  0.00     0.176 HD
ENDROOT
BRANCH  15  24
HETATM   24  O1  UNL     1      18.580   4.851  50.470  1.00  0.00    -0.343 OA
BRANCH  24  25
HETATM   25  C14 UNL     1      18.091   3.573  50.724  1.00  0.00     0.133 C 
HETATM   26  C15 UNL     1      17.699   2.866  49.424  1.00  0.00     0.058 C 
HETATM   27  C16 UNL     1      16.819   1.692  49.759  1.00  0.00     0.170 C 
HETATM   28  O2  UNL     1      15.570   2.107  50.205  1.00  0.00    -0.391 OA
HETATM   29  C17 UNL     1      15.618   3.363  50.757  1.00  0.00     0.170 C 
HETATM   30  C18 UNL     1      16.836   3.633  51.582  1.00  0.00     0.058 C 
ENDBRANCH  24  25
ENDBRANCH  15  24
BRANCH   1  31
HETATM   31  N1  UNL     1      24.444   6.872  51.951  1.00  0.00     0.088 N 
HETATM   32  H1  UNL     1      23.903   6.321  52.673  1.00  0.00     0.313 HD
HETATM   33  H2  UNL     1      24.183   7.884  52.052  1.00  0.00     0.313 HD
ENDBRANCH   1  31
TORSDOF 3
ENDMDL
