MODEL 1
REMARK VINA RESULT:      -8.0      0.000      0.000
REMARK  3 active torsions:
REMARK  status: ('A' for Active; 'I' for Inactive)
REMARK    1  A    between atoms: C5_5  and  N1_6 
REMARK       I    between atoms: N1_6  and  C6_7 
REMARK       I    between atoms: C6_7  and  N2_9 
REMARK    2  A    between atoms: N2_9  and  C7_10 
REMARK    3  A    between atoms: C14_18  and  C15_19 
ROOT
HETATM    1  C7  UNL     1      20.973   0.818  52.644  1.00  0.00     0.022 A 
HETATM    2  C8  UNL     1      20.454   2.027  52.913  1.00  0.00     0.059 A 
HETATM    3  C9  UNL     1      19.459   2.322  51.919  1.00  0.00     0.088 A 
HETATM    4  C10 UNL     1      19.367   1.305  51.046  1.00  0.00     0.086 A 
HETATM    5  C11 UNL     1      20.339   0.241  51.437  1.00  0.00     0.124 A 
HETATM    6  O2  UNL     1      18.600   1.026  49.899  1.00  0.00    -0.325 OA
HETATM    7  C12 UNL     1      17.541   1.734  49.297  1.00  0.00     0.139 C 
HETATM    8  C13 UNL     1      16.606   2.604  49.648  1.00  0.00     0.009 C 
HETATM    9  C14 UNL     1      16.319   3.211  50.973  1.00  0.00     0.064 C 
HETATM   10  C16 UNL     1      17.501   3.891  51.566  1.00  0.00     0.100 C 
HETATM   11  N3  UNL     1      18.715   3.557  51.934  1.00  0.00    -0.262 NA
ENDROOT
BRANCH   1  12
HETATM   12  N2  UNL     1      21.991   0.195  53.421  1.00  0.00    -0.312 N 
HETATM   13  C6  UNL     1      23.360   0.305  53.059  1.00  0.00     0.325 C 
HETATM   14  N1  UNL     1      24.242  -0.375  53.941  1.00  0.00    -0.309 N 
HETATM   15  O1  UNL     1      23.697   0.951  52.052  1.00  0.00    -0.247 OA
HETATM   16  H6  UNL     1      23.933  -0.912  54.782  1.00  0.00     0.170 HD
HETATM   17  H7  UNL     1      21.637  -0.338  54.263  1.00  0.00     0.170 HD
BRANCH  14  18
HETATM   18  C5  UNL     1      25.662  -0.443  53.837  1.00  0.00     0.036 A 
HETATM   19  C4  UNL     1      26.438   0.273  54.728  1.00  0.00     0.030 A 
HETATM   20  C3  UNL     1      27.834   0.269  54.705  1.00  0.00     0.009 A 
HETATM   21  C2  UNL     1      28.426  -0.500  53.730  1.00  0.00    -0.062 A 
HETATM   22  C1  UNL     1      29.924  -0.583  53.605  1.00  0.00     0.048 C 
HETATM   23  C18 UNL     1      27.695  -1.241  52.805  1.00  0.00     0.009 A 
HETATM   24  C17 UNL     1      26.301  -1.200  52.876  1.00  0.00     0.030 A 
ENDBRANCH  14  18
ENDBRANCH   1  12
BRANCH   9  25
HETATM   25  C15 UNL     1      15.188   4.190  50.906  1.00  0.00     0.128 C 
HETATM   26 CL1  UNL     1      14.073   3.954  52.267  1.00  0.00    -0.129 Cl
ENDBRANCH   9  25
TORSDOF 3
ENDMDL
MODEL 2
REMARK VINA RESULT:      -7.9      4.856      8.571
REMARK  3 active torsions:
REMARK  status: ('A' for Active; 'I' for Inactive)
REMARK    1  A    between atoms: C5_5  and  N1_6 
REMARK       I    between atoms: N1_6  and  C6_7 
REMARK       I    between atoms: C6_7  and  N2_9 
REMARK    2  A    between atoms: N2_9  and  C7_10 
REMARK    3  A    between atoms: C14_18  and  C15_19 
ROOT
HETATM    1  C7  UNL     1      22.231   0.963  53.297  1.00  0.00     0.022 A 
HETATM    2  C8  UNL     1      22.206   2.260  52.949  1.00  0.00     0.059 A 
HETATM    3  C9  UNL     1      23.476   2.595  52.366  1.00  0.00     0.088 A 
HETATM    4  C10 UNL     1      24.275   1.515  52.354  1.00  0.00     0.086 A 
HETATM    5  C11 UNL     1      23.541   0.362  52.956  1.00  0.00     0.124 A 
HETATM    6  O2  UNL     1      25.587   1.234  51.925  1.00  0.00    -0.325 OA
HETATM    7  C12 UNL     1      26.528   2.027  51.240  1.00  0.00     0.139 C 
HETATM    8  C13 UNL     1      26.537   3.065  50.417  1.00  0.00     0.009 C 
HETATM    9  C14 UNL     1      25.404   3.851  49.864  1.00  0.00     0.064 C 
HETATM   10  C16 UNL     1      24.511   4.400  50.920  1.00  0.00     0.100 C 
HETATM   11  N3  UNL     1      23.765   3.925  51.888  1.00  0.00    -0.262 NA
ENDROOT
BRANCH   1  12
HETATM   12  N2  UNL     1      21.142   0.279  53.906  1.00  0.00    -0.312 N 
HETATM   13  C6  UNL     1      20.102  -0.290  53.122  1.00  0.00     0.325 C 
HETATM   14  N1  UNL     1      19.095  -0.935  53.889  1.00  0.00    -0.309 N 
HETATM   15  O1  UNL     1      20.124  -0.200  51.882  1.00  0.00    -0.247 OA
HETATM   16  H6  UNL     1      19.099  -0.998  54.931  1.00  0.00     0.170 HD
HETATM   17  H7  UNL     1      21.184   0.237  54.963  1.00  0.00     0.170 HD
BRANCH  14  18
HETATM   18  C5  UNL     1      17.935  -1.592  53.385  1.00  0.00     0.036 A 
HETATM   19  C4  UNL     1      17.741  -2.930  53.670  1.00  0.00     0.030 A 
HETATM   20  C3  UNL     1      16.637  -3.659  53.221  1.00  0.00     0.009 A 
HETATM   21  C2  UNL     1      15.721  -2.971  52.460  1.00  0.00    -0.062 A 
HETATM   22  C1  UNL     1      14.490  -3.649  51.919  1.00  0.00     0.048 C 
HETATM   23  C18 UNL     1      15.864  -1.623  52.141  1.00  0.00     0.009 A 
HETATM   24  C17 UNL     1      16.988  -0.945  52.617  1.00  0.00     0.030 A 
ENDBRANCH  14  18
ENDBRANCH   1  12
BRANCH   9  25
HETATM   25  C15 UNL     1      25.875   4.980  49.002  1.00  0.00     0.128 C 
HETATM   26 CL1  UNL     1      27.601   4.802  48.624  1.00  0.00    -0.129 Cl
ENDBRANCH   9  25
TORSDOF 3
ENDMDL
MODEL 3
REMARK VINA RESULT:      -7.8      4.445      9.643
REMARK  3 active torsions:
REMARK  status: ('A' for Active; 'I' for Inactive)
REMARK    1  A    between atoms: C5_5  and  N1_6 
REMARK       I    between atoms: N1_6  and  C6_7 
REMARK       I    between atoms: C6_7  and  N2_9 
REMARK    2  A    between atoms: N2_9  and  C7_10 
REMARK    3  A    between atoms: C14_18  and  C15_19 
ROOT
HETATM    1  C7  UNL     1      22.555   0.051  53.757  1.00  0.00     0.022 A 
HETATM    2  C8  UNL     1      23.595  -0.793  53.874  1.00  0.00     0.059 A 
HETATM    3  C9  UNL     1      24.766  -0.136  53.362  1.00  0.00     0.088 A 
HETATM    4  C10 UNL     1      24.451   1.097  52.934  1.00  0.00     0.086 A 
HETATM    5  C11 UNL     1      22.993   1.329  53.151  1.00  0.00     0.124 A 
HETATM    6  O2  UNL     1      25.150   2.173  52.353  1.00  0.00    -0.325 OA
HETATM    7  C12 UNL     1      26.523   2.353  52.091  1.00  0.00     0.139 C 
HETATM    8  C13 UNL     1      27.685   1.914  52.550  1.00  0.00     0.009 C 
HETATM    9  C14 UNL     1      27.974   0.950  53.643  1.00  0.00     0.064 C 
HETATM   10  C16 UNL     1      27.288  -0.357  53.459  1.00  0.00     0.100 C 
HETATM   11  N3  UNL     1      26.054  -0.786  53.349  1.00  0.00    -0.262 NA
ENDROOT
BRANCH   1  12
HETATM   12  N2  UNL     1      21.226  -0.259  54.164  1.00  0.00    -0.312 N 
HETATM   13  C6  UNL     1      20.215  -0.544  53.208  1.00  0.00     0.325 C 
HETATM   14  N1  UNL     1      18.948  -0.832  53.783  1.00  0.00    -0.309 N 
HETATM   15  O1  UNL     1      20.472  -0.528  51.991  1.00  0.00    -0.247 OA
HETATM   16  H6  UNL     1      18.757  -0.840  54.810  1.00  0.00     0.170 HD
HETATM   17  H7  UNL     1      21.074  -0.257  55.211  1.00  0.00     0.170 HD
BRANCH  14  18
HETATM   18  C5  UNL     1      17.750  -1.153  53.081  1.00  0.00     0.036 A 
HETATM   19  C4  UNL     1      17.178  -2.398  53.258  1.00  0.00     0.030 A 
HETATM   20  C3  UNL     1      16.007  -2.804  52.615  1.00  0.00     0.009 A 
HETATM   21  C2  UNL     1      15.425  -1.886  51.771  1.00  0.00    -0.062 A 
HETATM   22  C1  UNL     1      14.160  -2.208  51.021  1.00  0.00     0.048 C 
HETATM   23  C18 UNL     1      15.957  -0.618  51.553  1.00  0.00     0.009 A 
HETATM   24  C17 UNL     1      17.130  -0.267  52.223  1.00  0.00     0.030 A 
ENDBRANCH  14  18
ENDBRANCH   1  12
BRANCH   9  25
HETATM   25  C15 UNL     1      29.442   0.703  53.797  1.00  0.00     0.128 C 
HETATM   26 CL1  UNL     1      29.792  -1.037  53.773  1.00  0.00    -0.129 Cl
ENDBRANCH   9  25
TORSDOF 3
ENDMDL
MODEL 4
REMARK VINA RESULT:      -7.7      7.606      9.961
REMARK  3 active torsions:
REMARK  status: ('A' for Active; 'I' for Inactive)
REMARK    1  A    between atoms: C5_5  and  N1_6 
REMARK       I    between atoms: N1_6  and  C6_7 
REMARK       I    between atoms: C6_7  and  N2_9 
REMARK    2  A    between atoms: N2_9  and  C7_10 
REMARK    3  A    between atoms: C14_18  and  C15_19 
ROOT
HETATM    1  C7  UNL     1      25.956   4.630  49.145  1.00  0.00     0.022 A 
HETATM    2  C8  UNL     1      27.206   4.222  48.869  1.00  0.00     0.059 A 
HETATM    3  C9  UNL     1      28.007   5.382  48.591  1.00  0.00     0.088 A 
HETATM    4  C10 UNL     1      27.258   6.493  48.695  1.00  0.00     0.086 A 
HETATM    5  C11 UNL     1      25.864   6.105  49.063  1.00  0.00     0.124 A 
HETATM    6  O2  UNL     1      27.477   7.875  48.542  1.00  0.00    -0.325 OA
HETATM    7  C12 UNL     1      28.657   8.606  48.298  1.00  0.00     0.139 C 
HETATM    8  C13 UNL     1      29.961   8.473  48.486  1.00  0.00     0.009 C 
HETATM    9  C14 UNL     1      30.726   7.357  49.100  1.00  0.00     0.064 C 
HETATM   10  C16 UNL     1      30.449   6.044  48.458  1.00  0.00     0.100 C 
HETATM   11  N3  UNL     1      29.406   5.276  48.256  1.00  0.00    -0.262 NA
ENDROOT
BRANCH   1  12
HETATM   12  N2  UNL     1      24.884   3.752  49.470  1.00  0.00    -0.312 N 
HETATM   13  C6  UNL     1      24.903   2.981  50.663  1.00  0.00     0.325 C 
HETATM   14  N1  UNL     1      23.756   2.159  50.832  1.00  0.00    -0.309 N 
HETATM   15  O1  UNL     1      25.862   3.059  51.450  1.00  0.00    -0.247 OA
HETATM   16  H6  UNL     1      22.962   2.111  50.155  1.00  0.00     0.170 HD
HETATM   17  H7  UNL     1      24.100   3.733  48.759  1.00  0.00     0.170 HD
BRANCH  14  18
HETATM   18  C5  UNL     1      23.494   1.281  51.923  1.00  0.00     0.036 A 
HETATM   19  C4  UNL     1      22.205   1.173  52.407  1.00  0.00     0.030 A 
HETATM   20  C3  UNL     1      21.851   0.340  53.471  1.00  0.00     0.009 A 
HETATM   21  C2  UNL     1      22.869  -0.392  54.038  1.00  0.00    -0.062 A 
HETATM   22  C1  UNL     1      22.610  -1.324  55.191  1.00  0.00     0.048 C 
HETATM   23  C18 UNL     1      24.186  -0.322  53.593  1.00  0.00     0.009 A 
HETATM   24  C17 UNL     1      24.482   0.527  52.525  1.00  0.00     0.030 A 
ENDBRANCH  14  18
ENDBRANCH   1  12
BRANCH   9  25
HETATM   25  C15 UNL     1      32.201   7.605  49.067  1.00  0.00     0.128 C 
HETATM   26 CL1  UNL     1      32.607   8.811  47.829  1.00  0.00    -0.129 Cl
ENDBRANCH   9  25
TORSDOF 3
ENDMDL
MODEL 5
REMARK VINA RESULT:      -7.6      1.526      2.298
REMARK  3 active torsions:
REMARK  status: ('A' for Active; 'I' for Inactive)
REMARK    1  A    between atoms: C5_5  and  N1_6 
REMARK       I    between atoms: N1_6  and  C6_7 
REMARK       I    between atoms: C6_7  and  N2_9 
REMARK    2  A    between atoms: N2_9  and  C7_10 
REMARK    3  A    between atoms: C14_18  and  C15_19 
ROOT
HETATM    1  C7  UNL     1      20.955   0.726  52.699  1.00  0.00     0.022 A 
HETATM    2  C8  UNL     1      20.270   0.229  51.655  1.00  0.00     0.059 A 
HETATM    3  C9  UNL     1      19.328   1.223  51.221  1.00  0.00     0.088 A 
HETATM    4  C10 UNL     1      19.432   2.321  51.988  1.00  0.00     0.086 A 
HETATM    5  C11 UNL     1      20.494   2.098  53.013  1.00  0.00     0.124 A 
HETATM    6  O2  UNL     1      18.797   3.577  52.045  1.00  0.00    -0.325 OA
HETATM    7  C12 UNL     1      17.836   4.169  51.201  1.00  0.00     0.139 C 
HETATM    8  C13 UNL     1      17.434   4.080  49.942  1.00  0.00     0.009 C 
HETATM    9  C14 UNL     1      17.927   3.209  48.845  1.00  0.00     0.064 C 
HETATM   10  C16 UNL     1      17.902   1.764  49.197  1.00  0.00     0.100 C 
HETATM   11  N3  UNL     1      18.437   0.990  50.110  1.00  0.00    -0.262 NA
ENDROOT
BRANCH   1  12
HETATM   12  N2  UNL     1      21.978   0.019  53.392  1.00  0.00    -0.312 N 
HETATM   13  C6  UNL     1      23.351   0.266  53.124  1.00  0.00     0.325 C 
HETATM   14  N1  UNL     1      24.237  -0.525  53.903  1.00  0.00    -0.309 N 
HETATM   15  O1  UNL     1      23.687   1.109  52.274  1.00  0.00    -0.247 OA
HETATM   16  H6  UNL     1      23.930  -1.227  54.612  1.00  0.00     0.170 HD
HETATM   17  H7  UNL     1      21.625  -0.683  54.101  1.00  0.00     0.170 HD
BRANCH  14  18
HETATM   18  C5  UNL     1      25.662  -0.499  53.857  1.00  0.00     0.036 A 
HETATM   19  C4  UNL     1      26.318  -1.234  52.888  1.00  0.00     0.030 A 
HETATM   20  C3  UNL     1      27.708  -1.271  52.762  1.00  0.00     0.009 A 
HETATM   21  C2  UNL     1      28.423  -0.525  53.671  1.00  0.00    -0.062 A 
HETATM   22  C1  UNL     1      29.927  -0.486  53.636  1.00  0.00     0.048 C 
HETATM   23  C18 UNL     1      27.816   0.234  54.668  1.00  0.00     0.009 A 
HETATM   24  C17 UNL     1      26.422   0.234  54.746  1.00  0.00     0.030 A 
ENDBRANCH  14  18
ENDBRANCH   1  12
BRANCH   9  25
HETATM   25  C15 UNL     1      17.148   3.407  47.582  1.00  0.00     0.128 C 
HETATM   26 CL1  UNL     1      15.434   3.024  47.835  1.00  0.00    -0.129 Cl
ENDBRANCH   9  25
TORSDOF 3
ENDMDL
MODEL 6
REMARK VINA RESULT:      -7.6      6.380      7.447
REMARK  3 active torsions:
REMARK  status: ('A' for Active; 'I' for Inactive)
REMARK    1  A    between atoms: C5_5  and  N1_6 
REMARK       I    between atoms: N1_6  and  C6_7 
REMARK       I    between atoms: C6_7  and  N2_9 
REMARK    2  A    between atoms: N2_9  and  C7_10 
REMARK    3  A    between atoms: C14_18  and  C15_19 
ROOT
HETATM    1  C7  UNL     1      24.228   3.691  51.556  1.00  0.00     0.022 A 
HETATM    2  C8  UNL     1      23.048   3.263  51.077  1.00  0.00     0.059 A 
HETATM    3  C9  UNL     1      22.780   1.966  51.634  1.00  0.00     0.088 A 
HETATM    4  C10 UNL     1      23.784   1.599  52.447  1.00  0.00     0.086 A 
HETATM    5  C11 UNL     1      24.811   2.682  52.470  1.00  0.00     0.124 A 
HETATM    6  O2  UNL     1      24.077   0.477  53.247  1.00  0.00    -0.325 OA
HETATM    7  C12 UNL     1      23.319  -0.672  53.545  1.00  0.00     0.139 C 
HETATM    8  C13 UNL     1      22.046  -1.033  53.596  1.00  0.00     0.009 C 
HETATM    9  C14 UNL     1      20.820  -0.242  53.318  1.00  0.00     0.064 C 
HETATM   10  C16 UNL     1      20.829   0.384  51.969  1.00  0.00     0.100 C 
HETATM   11  N3  UNL     1      21.579   1.235  51.311  1.00  0.00    -0.262 NA
ENDROOT
BRANCH   1  12
HETATM   12  N2  UNL     1      24.819   4.942  51.220  1.00  0.00    -0.312 N 
HETATM   13  C6  UNL     1      25.538   5.112  50.007  1.00  0.00     0.325 C 
HETATM   14  N1  UNL     1      26.061   6.420  49.830  1.00  0.00    -0.309 N 
HETATM   15  O1  UNL     1      25.666   4.165  49.211  1.00  0.00    -0.247 OA
HETATM   16  H6  UNL     1      25.940   7.200  50.514  1.00  0.00     0.170 HD
HETATM   17  H7  UNL     1      24.672   5.705  51.939  1.00  0.00     0.170 HD
BRANCH  14  18
HETATM   18  C5  UNL     1      26.821   6.887  48.718  1.00  0.00     0.036 A 
HETATM   19  C4  UNL     1      28.092   6.385  48.512  1.00  0.00     0.030 A 
HETATM   20  C3  UNL     1      28.912   6.780  47.453  1.00  0.00     0.009 A 
HETATM   21  C2  UNL     1      28.388   7.719  46.594  1.00  0.00    -0.062 A 
HETATM   22  C1  UNL     1      29.178   8.223  45.416  1.00  0.00     0.048 C 
HETATM   23  C18 UNL     1      27.116   8.260  46.753  1.00  0.00     0.009 A 
HETATM   24  C17 UNL     1      26.340   7.828  47.830  1.00  0.00     0.030 A 
ENDBRANCH  14  18
ENDBRANCH   1  12
BRANCH   9  25
HETATM   25  C15 UNL     1      19.579  -1.067  53.455  1.00  0.00     0.128 C 
HETATM   26 CL1  UNL     1      18.340  -0.534  52.301  1.00  0.00    -0.129 Cl
ENDBRANCH   9  25
TORSDOF 3
ENDMDL
MODEL 7
REMARK VINA RESULT:      -7.5      6.776      8.005
REMARK  3 active torsions:
REMARK  status: ('A' for Active; 'I' for Inactive)
REMARK    1  A    between atoms: C5_5  and  N1_6 
REMARK       I    between atoms: N1_6  and  C6_7 
REMARK       I    between atoms: C6_7  and  N2_9 
REMARK    2  A    between atoms: N2_9  and  C7_10 
REMARK    3  A    between atoms: C14_18  and  C15_19 
ROOT
HETATM    1  C7  UNL     1      25.284   3.915  50.665  1.00  0.00     0.022 A 
HETATM    2  C8  UNL     1      24.074   3.477  50.282  1.00  0.00     0.059 A 
HETATM    3  C9  UNL     1      23.802   2.246  50.972  1.00  0.00     0.088 A 
HETATM    4  C10 UNL     1      24.835   1.930  51.771  1.00  0.00     0.086 A 
HETATM    5  C11 UNL     1      25.886   2.982  51.644  1.00  0.00     0.124 A 
HETATM    6  O2  UNL     1      25.139   0.881  52.661  1.00  0.00    -0.325 OA
HETATM    7  C12 UNL     1      24.369  -0.214  53.101  1.00  0.00     0.139 C 
HETATM    8  C13 UNL     1      23.091  -0.533  53.243  1.00  0.00     0.009 C 
HETATM    9  C14 UNL     1      21.872   0.262  52.945  1.00  0.00     0.064 C 
HETATM   10  C16 UNL     1      21.833   0.758  51.543  1.00  0.00     0.100 C 
HETATM   11  N3  UNL     1      22.571   1.521  50.774  1.00  0.00    -0.262 NA
ENDROOT
BRANCH   1  12
HETATM   12  N2  UNL     1      25.888   5.112  50.186  1.00  0.00    -0.312 N 
HETATM   13  C6  UNL     1      27.006   5.070  49.310  1.00  0.00     0.325 C 
HETATM   14  N1  UNL     1      27.484   6.352  48.929  1.00  0.00    -0.309 N 
HETATM   15  O1  UNL     1      27.481   3.980  48.945  1.00  0.00    -0.247 OA
HETATM   16  H6  UNL     1      27.067   7.254  49.250  1.00  0.00     0.170 HD
HETATM   17  H7  UNL     1      25.436   6.003  50.534  1.00  0.00     0.170 HD
BRANCH  14  18
HETATM   18  C5  UNL     1      28.584   6.626  48.066  1.00  0.00     0.036 A 
HETATM   19  C4  UNL     1      29.771   5.943  48.249  1.00  0.00     0.030 A 
HETATM   20  C3  UNL     1      30.903   6.142  47.455  1.00  0.00     0.009 A 
HETATM   21  C2  UNL     1      30.786   7.075  46.451  1.00  0.00    -0.062 A 
HETATM   22  C1  UNL     1      31.938   7.377  45.530  1.00  0.00     0.048 C 
HETATM   23  C18 UNL     1      29.616   7.794  46.220  1.00  0.00     0.009 A 
HETATM   24  C17 UNL     1      28.516   7.553  47.045  1.00  0.00     0.030 A 
ENDBRANCH  14  18
ENDBRANCH   1  12
BRANCH   9  25
HETATM   25  C15 UNL     1      20.620  -0.512  53.215  1.00  0.00     0.128 C 
HETATM   26 CL1  UNL     1      20.942  -1.858  54.327  1.00  0.00    -0.129 Cl
ENDBRANCH   9  25
TORSDOF 3
ENDMDL
MODEL 8
REMARK VINA RESULT:      -7.4      4.212      4.529
REMARK  3 active torsions:
REMARK  status: ('A' for Active; 'I' for Inactive)
REMARK    1  A    between atoms: C5_5  and  N1_6 
REMARK       I    between atoms: N1_6  and  C6_7 
REMARK       I    between atoms: C6_7  and  N2_9 
REMARK    2  A    between atoms: N2_9  and  C7_10 
REMARK    3  A    between atoms: C14_18  and  C15_19 
ROOT
HETATM    1  C7  UNL     1      23.275   4.696  52.234  1.00  0.00     0.022 A 
HETATM    2  C8  UNL     1      23.558   5.778  51.490  1.00  0.00     0.059 A 
HETATM    3  C9  UNL     1      22.406   6.088  50.689  1.00  0.00     0.088 A 
HETATM    4  C10 UNL     1      21.424   5.206  50.937  1.00  0.00     0.086 A 
HETATM    5  C11 UNL     1      21.898   4.226  51.959  1.00  0.00     0.124 A 
HETATM    6  O2  UNL     1      20.109   5.003  50.475  1.00  0.00    -0.325 OA
HETATM    7  C12 UNL     1      19.305   5.763  49.602  1.00  0.00     0.139 C 
HETATM    8  C13 UNL     1      19.200   7.018  49.194  1.00  0.00     0.009 C 
HETATM    9  C14 UNL     1      20.001   8.212  49.568  1.00  0.00     0.064 C 
HETATM   10  C16 UNL     1      21.461   8.020  49.350  1.00  0.00     0.100 C 
HETATM   11  N3  UNL     1      22.395   7.205  49.777  1.00  0.00    -0.262 NA
ENDROOT
BRANCH   1  12
HETATM   12  N2  UNL     1      24.184   4.098  53.152  1.00  0.00    -0.312 N 
HETATM   13  C6  UNL     1      25.039   3.037  52.752  1.00  0.00     0.325 C 
HETATM   14  N1  UNL     1      25.881   2.557  53.790  1.00  0.00    -0.309 N 
HETATM   15  O1  UNL     1      25.009   2.607  51.585  1.00  0.00    -0.247 OA
HETATM   16  H6  UNL     1      25.888   2.935  54.764  1.00  0.00     0.170 HD
HETATM   17  H7  UNL     1      24.159   4.510  54.127  1.00  0.00     0.170 HD
BRANCH  14  18
HETATM   18  C5  UNL     1      26.839   1.506  53.690  1.00  0.00     0.036 A 
HETATM   19  C4  UNL     1      28.184   1.810  53.777  1.00  0.00     0.030 A 
HETATM   20  C3  UNL     1      29.195   0.850  53.690  1.00  0.00     0.009 A 
HETATM   21  C2  UNL     1      28.786  -0.451  53.509  1.00  0.00    -0.062 A 
HETATM   22  C1  UNL     1      29.784  -1.574  53.401  1.00  0.00     0.048 C 
HETATM   23  C18 UNL     1      27.446  -0.815  53.414  1.00  0.00     0.009 A 
HETATM   24  C17 UNL     1      26.478   0.187  53.508  1.00  0.00     0.030 A 
ENDBRANCH  14  18
ENDBRANCH   1  12
BRANCH   9  25
HETATM   25  C15 UNL     1      19.563   9.434  48.824  1.00  0.00     0.128 C 
HETATM   26 CL1  UNL     1      20.222  10.899  49.581  1.00  0.00    -0.129 Cl
ENDBRANCH   9  25
TORSDOF 3
ENDMDL
MODEL 9
REMARK VINA RESULT:      -7.3      7.630      9.477
REMARK  3 active torsions:
REMARK  status: ('A' for Active; 'I' for Inactive)
REMARK    1  A    between atoms: C5_5  and  N1_6 
REMARK       I    between atoms: N1_6  and  C6_7 
REMARK       I    between atoms: C6_7  and  N2_9 
REMARK    2  A    between atoms: N2_9  and  C7_10 
REMARK    3  A    between atoms: C14_18  and  C15_19 
ROOT
HETATM    1  C7  UNL     1      25.758   4.479  49.198  1.00  0.00     0.022 A 
HETATM    2  C8  UNL     1      25.675   5.804  48.987  1.00  0.00     0.059 A 
HETATM    3  C9  UNL     1      26.979   6.284  48.622  1.00  0.00     0.088 A 
HETATM    4  C10 UNL     1      27.856   5.267  48.609  1.00  0.00     0.086 A 
HETATM    5  C11 UNL     1      27.145   4.008  48.981  1.00  0.00     0.124 A 
HETATM    6  O2  UNL     1      29.231   5.123  48.339  1.00  0.00    -0.325 OA
HETATM    7  C12 UNL     1      30.187   6.048  47.876  1.00  0.00     0.139 C 
HETATM    8  C13 UNL     1      30.219   7.171  47.175  1.00  0.00     0.009 C 
HETATM    9  C14 UNL     1      29.109   7.940  46.555  1.00  0.00     0.064 C 
HETATM   10  C16 UNL     1      28.045   8.306  47.528  1.00  0.00     0.100 C 
HETATM   11  N3  UNL     1      27.220   7.676  48.329  1.00  0.00    -0.262 NA
ENDROOT
BRANCH   1  12
HETATM   12  N2  UNL     1      24.657   3.661  49.577  1.00  0.00    -0.312 N 
HETATM   13  C6  UNL     1      24.702   2.871  50.757  1.00  0.00     0.325 C 
HETATM   14  N1  UNL     1      23.521   2.116  50.986  1.00  0.00    -0.309 N 
HETATM   15  O1  UNL     1      25.710   2.881  51.485  1.00  0.00    -0.247 OA
HETATM   16  H6  UNL     1      22.686   2.125  50.359  1.00  0.00     0.170 HD
HETATM   17  H7  UNL     1      23.832   3.699  48.916  1.00  0.00     0.170 HD
BRANCH  14  18
HETATM   18  C5  UNL     1      23.275   1.237  52.081  1.00  0.00     0.036 A 
HETATM   19  C4  UNL     1      24.283   0.396  52.511  1.00  0.00     0.030 A 
HETATM   20  C3  UNL     1      24.137  -0.498  53.574  1.00  0.00     0.009 A 
HETATM   21  C2  UNL     1      22.910  -0.510  54.196  1.00  0.00    -0.062 A 
HETATM   22  C1  UNL     1      22.632  -1.431  55.354  1.00  0.00     0.048 C 
HETATM   23  C18 UNL     1      21.857   0.314  53.806  1.00  0.00     0.009 A 
HETATM   24  C17 UNL     1      22.061   1.189  52.737  1.00  0.00     0.030 A 
ENDBRANCH  14  18
ENDBRANCH   1  12
BRANCH   9  25
HETATM   25  C15 UNL     1      29.597   9.187  45.887  1.00  0.00     0.128 C 
HETATM   26 CL1  UNL     1      29.624  10.543  47.033  1.00  0.00    -0.129 Cl
ENDBRANCH   9  25
TORSDOF 3
ENDMDL
