MODEL 1
REMARK VINA RESULT:      -8.0      0.000      0.000
REMARK  7 active torsions:
REMARK  status: ('A' for Active; 'I' for Inactive)
REMARK    1  A    between atoms: C3_3  and  C4_4 
REMARK    2  A    between atoms: C4_4  and  P1_5 
REMARK    3  A    between atoms: P1_5  and  C5_6 
REMARK    4  A    between atoms: C6_7  and  C7_8 
REMARK    5  A    between atoms: N2_10  and  C8_11 
REMARK    6  A    between atoms: C9_13  and  O1_14 
REMARK    7  A    between atoms: C11_17  and  C12_18 
ROOT
HETATM    1  C7  UNL     1      24.098   3.444  52.256  1.00  0.00     0.058 C 
HETATM    2  N1  UNL     1      23.554   2.402  52.889  1.00  0.00    -0.174 NA
HETATM    3  N2  UNL     1      24.255   1.209  52.609  1.00  0.00    -0.236 N 
HETATM    4  C11 UNL     1      25.146   1.398  51.477  1.00  0.00     0.151 C 
HETATM    5  C18 UNL     1      25.367   2.826  51.523  1.00  0.00     0.093 C 
ENDROOT
BRANCH   1   6
HETATM    6  C6  UNL     1      23.532   4.701  52.397  1.00  0.00     0.041 C 
HETATM    7  C5  UNL     1      23.076   5.122  51.161  1.00  0.00    -0.020 C 
BRANCH   7   8
HETATM    8  P1  UNL     1      23.540   5.240  49.545  1.00  0.00    -0.079 P 
BRANCH   8   9
HETATM    9  C4  UNL     1      25.151   5.676  49.045  1.00  0.00     0.060 C 
BRANCH   9  10
HETATM   10  C3  UNL     1      26.333   5.746  48.803  1.00  0.00     0.014 A 
HETATM   11  C2  UNL     1      27.512   5.868  48.543  1.00  0.00    -0.002 A 
HETATM   12  C1  UNL     1      26.982   4.563  48.967  1.00  0.00     0.014 A 
ENDBRANCH   9  10
ENDBRANCH   8   9
ENDBRANCH   7   8
ENDBRANCH   1   6
BRANCH   3  13
HETATM   13  C8  UNL     1      23.912   0.232  53.606  1.00  0.00     0.192 A 
HETATM   14  N3  UNL     1      24.423  -0.440  54.554  1.00  0.00    -0.198 NA
HETATM   15  C9  UNL     1      23.795  -1.304  55.314  1.00  0.00     0.171 A 
HETATM   16  C10 UNL     1      22.300  -1.550  55.007  1.00  0.00     0.111 A 
HETATM   17  S1  UNL     1      22.151  -0.388  53.601  1.00  0.00    -0.058 SA
BRANCH  15  18
HETATM   18  O1  UNL     1      24.812  -1.670  56.214  1.00  0.00    -0.344 OA
HETATM   19  H7  UNL     1      25.760  -1.194  56.107  1.00  0.00     0.219 HD
ENDBRANCH  15  18
ENDBRANCH   3  13
BRANCH   4  20
HETATM   20  C12 UNL     1      26.346   0.593  51.998  1.00  0.00    -0.033 A 
HETATM   21  C13 UNL     1      26.621  -0.650  52.101  1.00  0.00     0.011 A 
HETATM   22  C14 UNL     1      27.596  -1.465  52.666  1.00  0.00     0.024 A 
HETATM   23  C15 UNL     1      28.574  -0.462  53.322  1.00  0.00     0.034 A 
HETATM   24 CL1  UNL     1      29.926  -1.306  54.099  1.00  0.00    -0.084 Cl
HETATM   25  C16 UNL     1      28.389   0.769  53.288  1.00  0.00     0.024 A 
HETATM   26  C17 UNL     1      27.251   1.474  52.579  1.00  0.00     0.011 A 
ENDBRANCH   4  20
TORSDOF 7
ENDMDL
MODEL 2
REMARK VINA RESULT:      -7.7      1.776      2.269
REMARK  7 active torsions:
REMARK  status: ('A' for Active; 'I' for Inactive)
REMARK    1  A    between atoms: C3_3  and  C4_4 
REMARK    2  A    between atoms: C4_4  and  P1_5 
REMARK    3  A    between atoms: P1_5  and  C5_6 
REMARK    4  A    between atoms: C6_7  and  C7_8 
REMARK    5  A    between atoms: N2_10  and  C8_11 
REMARK    6  A    between atoms: C9_13  and  O1_14 
REMARK    7  A    between atoms: C11_17  and  C12_18 
ROOT
HETATM    1  C7  UNL     1      23.875   3.491  52.312  1.00  0.00     0.058 C 
HETATM    2  N1  UNL     1      23.364   2.417  52.918  1.00  0.00    -0.174 NA
HETATM    3  N2  UNL     1      24.101   1.254  52.609  1.00  0.00    -0.236 N 
HETATM    4  C11 UNL     1      24.986   1.499  51.483  1.00  0.00     0.151 C 
HETATM    5  C18 UNL     1      25.162   2.932  51.565  1.00  0.00     0.093 C 
ENDROOT
BRANCH   1   6
HETATM    6  C6  UNL     1      23.270   4.726  52.484  1.00  0.00     0.041 C 
HETATM    7  C5  UNL     1      21.914   4.591  52.249  1.00  0.00    -0.020 C 
BRANCH   7   8
HETATM    8  P1  UNL     1      20.815   3.928  51.155  1.00  0.00    -0.079 P 
BRANCH   8   9
HETATM    9  C4  UNL     1      21.299   2.989  49.769  1.00  0.00     0.060 C 
BRANCH   9  10
HETATM   10  C3  UNL     1      21.861   2.468  48.835  1.00  0.00     0.014 A 
HETATM   11  C2  UNL     1      22.384   1.909  47.893  1.00  0.00    -0.002 A 
HETATM   12  C1  UNL     1      23.092   2.991  48.594  1.00  0.00     0.014 A 
ENDBRANCH   9  10
ENDBRANCH   8   9
ENDBRANCH   7   8
ENDBRANCH   1   6
BRANCH   3  13
HETATM   13  C8  UNL     1      23.789   0.242  53.582  1.00  0.00     0.192 A 
HETATM   14  N3  UNL     1      24.321  -0.436  54.513  1.00  0.00    -0.198 NA
HETATM   15  C9  UNL     1      23.720  -1.338  55.251  1.00  0.00     0.171 A 
HETATM   16  C10 UNL     1      22.234  -1.624  54.935  1.00  0.00     0.111 A 
HETATM   17  S1  UNL     1      22.049  -0.434  53.558  1.00  0.00    -0.058 SA
BRANCH  15  18
HETATM   18  O1  UNL     1      24.748  -1.693  56.144  1.00  0.00    -0.344 OA
HETATM   19  H7  UNL     1      25.748  -1.679  55.775  1.00  0.00     0.219 HD
ENDBRANCH  15  18
ENDBRANCH   3  13
BRANCH   4  20
HETATM   20  C12 UNL     1      26.211   0.720  51.984  1.00  0.00    -0.033 A 
HETATM   21  C13 UNL     1      26.520  -0.517  52.067  1.00  0.00     0.011 A 
HETATM   22  C14 UNL     1      27.520  -1.314  52.614  1.00  0.00     0.024 A 
HETATM   23  C15 UNL     1      28.474  -0.295  53.280  1.00  0.00     0.034 A 
HETATM   24 CL1  UNL     1      29.853  -1.114  54.036  1.00  0.00    -0.084 Cl
HETATM   25  C16 UNL     1      28.256   0.931  53.266  1.00  0.00     0.024 A 
HETATM   26  C17 UNL     1      27.095   1.616  52.575  1.00  0.00     0.011 A 
ENDBRANCH   4  20
TORSDOF 7
ENDMDL
MODEL 3
REMARK VINA RESULT:      -7.7      3.590      6.146
REMARK  7 active torsions:
REMARK  status: ('A' for Active; 'I' for Inactive)
REMARK    1  A    between atoms: C3_3  and  C4_4 
REMARK    2  A    between atoms: C4_4  and  P1_5 
REMARK    3  A    between atoms: P1_5  and  C5_6 
REMARK    4  A    between atoms: C6_7  and  C7_8 
REMARK    5  A    between atoms: N2_10  and  C8_11 
REMARK    6  A    between atoms: C9_13  and  O1_14 
REMARK    7  A    between atoms: C11_17  and  C12_18 
ROOT
HETATM    1  C7  UNL     1      22.145   1.316  50.374  1.00  0.00     0.058 C 
HETATM    2  N1  UNL     1      22.805   2.434  50.063  1.00  0.00    -0.174 NA
HETATM    3  N2  UNL     1      23.830   2.701  50.996  1.00  0.00    -0.236 N 
HETATM    4  C11 UNL     1      23.661   1.881  52.183  1.00  0.00     0.151 C 
HETATM    5  C18 UNL     1      22.911   0.764  51.654  1.00  0.00     0.093 C 
ENDROOT
BRANCH   1   6
HETATM    6  C6  UNL     1      21.089   0.902  49.578  1.00  0.00     0.041 C 
HETATM    7  C5  UNL     1      19.906   1.140  50.254  1.00  0.00    -0.020 C 
BRANCH   7   8
HETATM    8  P1  UNL     1      19.174   0.941  51.759  1.00  0.00    -0.079 P 
BRANCH   8   9
HETATM    9  C4  UNL     1      19.825  -0.086  53.008  1.00  0.00     0.060 C 
BRANCH   9  10
HETATM   10  C3  UNL     1      20.498  -0.782  53.732  1.00  0.00     0.014 A 
HETATM   11  C2  UNL     1      21.152  -1.526  54.433  1.00  0.00    -0.002 A 
HETATM   12  C1  UNL     1      21.160  -0.076  54.686  1.00  0.00     0.014 A 
ENDBRANCH   9  10
ENDBRANCH   8   9
ENDBRANCH   7   8
ENDBRANCH   1   6
BRANCH   3  13
HETATM   13  C8  UNL     1      24.751   3.637  50.409  1.00  0.00     0.192 A 
HETATM   14  N3  UNL     1      25.868   3.685  49.810  1.00  0.00    -0.198 NA
HETATM   15  C9  UNL     1      26.469   4.770  49.383  1.00  0.00     0.171 A 
HETATM   16  C10 UNL     1      25.766   6.117  49.667  1.00  0.00     0.111 A 
HETATM   17  S1  UNL     1      24.302   5.445  50.534  1.00  0.00    -0.058 SA
BRANCH  15  18
HETATM   18  O1  UNL     1      27.600   4.226  48.747  1.00  0.00    -0.344 OA
HETATM   19  H7  UNL     1      28.420   4.880  48.556  1.00  0.00     0.219 HD
ENDBRANCH  15  18
ENDBRANCH   3  13
BRANCH   4  20
HETATM   20  C12 UNL     1      25.138   1.540  52.433  1.00  0.00    -0.033 A 
HETATM   21  C13 UNL     1      25.938   0.637  52.014  1.00  0.00     0.011 A 
HETATM   22  C14 UNL     1      27.222   0.171  52.273  1.00  0.00     0.024 A 
HETATM   23  C15 UNL     1      27.722   1.093  53.410  1.00  0.00     0.034 A 
HETATM   24 CL1  UNL     1      29.376   0.674  53.890  1.00  0.00    -0.084 Cl
HETATM   25  C16 UNL     1      27.014   1.995  53.897  1.00  0.00     0.024 A 
HETATM   26  C17 UNL     1      25.618   2.367  53.442  1.00  0.00     0.011 A 
ENDBRANCH   4  20
TORSDOF 7
ENDMDL
MODEL 4
REMARK VINA RESULT:      -7.2      3.914      6.437
REMARK  7 active torsions:
REMARK  status: ('A' for Active; 'I' for Inactive)
REMARK    1  A    between atoms: C3_3  and  C4_4 
REMARK    2  A    between atoms: C4_4  and  P1_5 
REMARK    3  A    between atoms: P1_5  and  C5_6 
REMARK    4  A    between atoms: C6_7  and  C7_8 
REMARK    5  A    between atoms: N2_10  and  C8_11 
REMARK    6  A    between atoms: C9_13  and  O1_14 
REMARK    7  A    between atoms: C11_17  and  C12_18 
ROOT
HETATM    1  C7  UNL     1      23.739   1.015  53.026  1.00  0.00     0.058 C 
HETATM    2  N1  UNL     1      22.890   1.190  52.011  1.00  0.00    -0.174 NA
HETATM    3  N2  UNL     1      23.110   2.426  51.365  1.00  0.00    -0.236 N 
HETATM    4  C11 UNL     1      23.960   3.278  52.177  1.00  0.00     0.151 C 
HETATM    5  C18 UNL     1      24.674   2.300  52.966  1.00  0.00     0.093 C 
ENDROOT
BRANCH   1   6
HETATM    6  C6  UNL     1      23.661  -0.137  53.792  1.00  0.00     0.041 C 
HETATM    7  C5  UNL     1      24.912  -0.725  53.834  1.00  0.00    -0.020 C 
BRANCH   7   8
HETATM    8  P1  UNL     1      26.203  -1.172  52.846  1.00  0.00    -0.079 P 
BRANCH   8   9
HETATM    9  C4  UNL     1      27.831  -0.598  53.088  1.00  0.00     0.060 C 
BRANCH   9  10
HETATM   10  C3  UNL     1      28.862  -0.104  53.479  1.00  0.00     0.014 A 
HETATM   11  C2  UNL     1      29.871   0.442  53.873  1.00  0.00    -0.002 A 
HETATM   12  C1  UNL     1      29.892  -0.989  53.532  1.00  0.00     0.014 A 
ENDBRANCH   9  10
ENDBRANCH   8   9
ENDBRANCH   7   8
ENDBRANCH   1   6
BRANCH   3  13
HETATM   13  C8  UNL     1      22.486   2.382  50.070  1.00  0.00     0.192 A 
HETATM   14  N3  UNL     1      22.768   2.280  48.837  1.00  0.00    -0.198 NA
HETATM   15  C9  UNL     1      21.908   2.278  47.846  1.00  0.00     0.171 A 
HETATM   16  C10 UNL     1      20.417   2.449  48.213  1.00  0.00     0.111 A 
HETATM   17  S1  UNL     1      20.630   2.571  50.027  1.00  0.00    -0.058 SA
BRANCH  15  18
HETATM   18  O1  UNL     1      22.757   2.065  46.745  1.00  0.00    -0.344 OA
HETATM   19  H7  UNL     1      23.372   2.878  46.431  1.00  0.00     0.219 HD
ENDBRANCH  15  18
ENDBRANCH   3  13
BRANCH   4  20
HETATM   20  C12 UNL     1      24.819   3.877  51.053  1.00  0.00    -0.033 A 
HETATM   21  C13 UNL     1      25.824   3.475  50.375  1.00  0.00     0.011 A 
HETATM   22  C14 UNL     1      26.736   3.977  49.453  1.00  0.00     0.024 A 
HETATM   23  C15 UNL     1      26.301   5.450  49.276  1.00  0.00     0.034 A 
HETATM   24 CL1  UNL     1      27.341   6.285  48.107  1.00  0.00    -0.084 Cl
HETATM   25  C16 UNL     1      25.342   5.943  49.900  1.00  0.00     0.024 A 
HETATM   26  C17 UNL     1      24.437   5.200  50.861  1.00  0.00     0.011 A 
ENDBRANCH   4  20
TORSDOF 7
ENDMDL
MODEL 5
REMARK VINA RESULT:      -7.2      4.637      6.933
REMARK  7 active torsions:
REMARK  status: ('A' for Active; 'I' for Inactive)
REMARK    1  A    between atoms: C3_3  and  C4_4 
REMARK    2  A    between atoms: C4_4  and  P1_5 
REMARK    3  A    between atoms: P1_5  and  C5_6 
REMARK    4  A    between atoms: C6_7  and  C7_8 
REMARK    5  A    between atoms: N2_10  and  C8_11 
REMARK    6  A    between atoms: C9_13  and  O1_14 
REMARK    7  A    between atoms: C11_17  and  C12_18 
ROOT
HETATM    1  C7  UNL     1      23.100   0.536  53.089  1.00  0.00     0.058 C 
HETATM    2  N1  UNL     1      21.840   0.979  53.106  1.00  0.00    -0.174 NA
HETATM    3  N2  UNL     1      21.640   1.994  52.146  1.00  0.00    -0.236 N 
HETATM    4  C11 UNL     1      22.916   2.483  51.652  1.00  0.00     0.151 C 
HETATM    5  C18 UNL     1      23.772   1.344  51.896  1.00  0.00     0.093 C 
ENDROOT
BRANCH   1   6
HETATM    6  C6  UNL     1      23.489  -0.452  53.979  1.00  0.00     0.041 C 
HETATM    7  C5  UNL     1      24.861  -0.606  53.896  1.00  0.00    -0.020 C 
BRANCH   7   8
HETATM    8  P1  UNL     1      26.113  -0.771  52.780  1.00  0.00    -0.079 P 
BRANCH   8   9
HETATM    9  C4  UNL     1      27.792  -0.551  53.192  1.00  0.00     0.060 C 
BRANCH   9  10
HETATM   10  C3  UNL     1      28.969  -0.660  53.445  1.00  0.00     0.014 A 
HETATM   11  C2  UNL     1      30.154  -0.713  53.703  1.00  0.00    -0.002 A 
HETATM   12  C1  UNL     1      29.421  -1.938  53.343  1.00  0.00     0.014 A 
ENDBRANCH   9  10
ENDBRANCH   8   9
ENDBRANCH   7   8
ENDBRANCH   1   6
BRANCH   3  13
HETATM   13  C8  UNL     1      20.228   2.134  51.915  1.00  0.00     0.192 A 
HETATM   14  N3  UNL     1      19.284   2.974  52.026  1.00  0.00    -0.198 NA
HETATM   15  C9  UNL     1      18.027   2.769  51.709  1.00  0.00     0.171 A 
HETATM   16  C10 UNL     1      17.658   1.363  51.184  1.00  0.00     0.111 A 
HETATM   17  S1  UNL     1      19.331   0.628  51.272  1.00  0.00    -0.058 SA
BRANCH  15  18
HETATM   18  O1  UNL     1      17.469   4.036  51.961  1.00  0.00    -0.344 OA
HETATM   19  H7  UNL     1      17.309   4.310  52.979  1.00  0.00     0.219 HD
ENDBRANCH  15  18
ENDBRANCH   3  13
BRANCH   4  20
HETATM   20  C12 UNL     1      22.540   2.637  50.170  1.00  0.00    -0.033 A 
HETATM   21  C13 UNL     1      22.298   1.828  49.213  1.00  0.00     0.011 A 
HETATM   22  C14 UNL     1      22.086   1.862  47.839  1.00  0.00     0.024 A 
HETATM   23  C15 UNL     1      22.192   3.365  47.491  1.00  0.00     0.034 A 
HETATM   24 CL1  UNL     1      21.931   3.638  45.758  1.00  0.00    -0.084 Cl
HETATM   25  C16 UNL     1      22.436   4.233  48.350  1.00  0.00     0.024 A 
HETATM   26  C17 UNL     1      22.611   3.985  49.834  1.00  0.00     0.011 A 
ENDBRANCH   4  20
TORSDOF 7
ENDMDL
MODEL 6
REMARK VINA RESULT:      -7.0      4.912      7.450
REMARK  7 active torsions:
REMARK  status: ('A' for Active; 'I' for Inactive)
REMARK    1  A    between atoms: C3_3  and  C4_4 
REMARK    2  A    between atoms: C4_4  and  P1_5 
REMARK    3  A    between atoms: P1_5  and  C5_6 
REMARK    4  A    between atoms: C6_7  and  C7_8 
REMARK    5  A    between atoms: N2_10  and  C8_11 
REMARK    6  A    between atoms: C9_13  and  O1_14 
REMARK    7  A    between atoms: C11_17  and  C12_18 
ROOT
HETATM    1  C7  UNL     1      20.954   0.798  52.604  1.00  0.00     0.058 C 
HETATM    2  N1  UNL     1      21.651   1.937  52.611  1.00  0.00    -0.174 NA
HETATM    3  N2  UNL     1      22.198   2.211  51.339  1.00  0.00    -0.236 N 
HETATM    4  C11 UNL     1      22.123   1.034  50.490  1.00  0.00     0.151 C 
HETATM    5  C18 UNL     1      21.017   0.321  51.088  1.00  0.00     0.093 C 
ENDROOT
BRANCH   1   6
HETATM    6  C6  UNL     1      20.356   0.356  53.773  1.00  0.00     0.041 C 
HETATM    7  C5  UNL     1      21.345  -0.073  54.640  1.00  0.00    -0.020 C 
BRANCH   7   8
HETATM    8  P1  UNL     1      22.737  -1.021  54.701  1.00  0.00    -0.079 P 
BRANCH   8   9
HETATM    9  C4  UNL     1      24.213  -0.600  53.875  1.00  0.00     0.060 C 
BRANCH   9  10
HETATM   10  C3  UNL     1      25.248  -0.567  53.253  1.00  0.00     0.014 A 
HETATM   11  C2  UNL     1      26.304  -0.578  52.656  1.00  0.00    -0.002 A 
HETATM   12  C1  UNL     1      25.347   0.517  52.438  1.00  0.00     0.014 A 
ENDBRANCH   9  10
ENDBRANCH   8   9
ENDBRANCH   7   8
ENDBRANCH   1   6
BRANCH   3  13
HETATM   13  C8  UNL     1      22.562   3.601  51.287  1.00  0.00     0.192 A 
HETATM   14  N3  UNL     1      22.056   4.762  51.364  1.00  0.00    -0.198 NA
HETATM   15  C9  UNL     1      22.708   5.896  51.264  1.00  0.00     0.171 A 
HETATM   16  C10 UNL     1      24.227   5.809  50.995  1.00  0.00     0.111 A 
HETATM   17  S1  UNL     1      24.359   3.984  50.956  1.00  0.00    -0.058 SA
BRANCH  15  18
HETATM   18  O1  UNL     1      21.679   6.827  51.499  1.00  0.00    -0.344 OA
HETATM   19  H7  UNL     1      21.930   7.862  51.449  1.00  0.00     0.219 HD
ENDBRANCH  15  18
ENDBRANCH   3  13
BRANCH   4  20
HETATM   20  C12 UNL     1      21.741   1.728  49.174  1.00  0.00    -0.033 A 
HETATM   21  C13 UNL     1      22.394   2.227  48.196  1.00  0.00     0.011 A 
HETATM   22  C14 UNL     1      22.155   2.979  47.051  1.00  0.00     0.024 A 
HETATM   23  C15 UNL     1      20.625   3.207  47.077  1.00  0.00     0.034 A 
HETATM   24 CL1  UNL     1      20.098   4.147  45.669  1.00  0.00    -0.084 Cl
HETATM   25  C16 UNL     1      19.902   2.772  47.992  1.00  0.00     0.024 A 
HETATM   26  C17 UNL     1      20.365   1.931  49.163  1.00  0.00     0.011 A 
ENDBRANCH   4  20
TORSDOF 7
ENDMDL
MODEL 7
REMARK VINA RESULT:      -7.0      8.910     11.637
REMARK  7 active torsions:
REMARK  status: ('A' for Active; 'I' for Inactive)
REMARK    1  A    between atoms: C3_3  and  C4_4 
REMARK    2  A    between atoms: C4_4  and  P1_5 
REMARK    3  A    between atoms: P1_5  and  C5_6 
REMARK    4  A    between atoms: C6_7  and  C7_8 
REMARK    5  A    between atoms: N2_10  and  C8_11 
REMARK    6  A    between atoms: C9_13  and  O1_14 
REMARK    7  A    between atoms: C11_17  and  C12_18 
ROOT
HETATM    1  C7  UNL     1      31.186   9.813  48.747  1.00  0.00     0.058 C 
HETATM    2  N1  UNL     1      32.141  10.071  47.850  1.00  0.00    -0.174 NA
HETATM    3  N2  UNL     1      33.074   9.015  47.776  1.00  0.00    -0.236 N 
HETATM    4  C11 UNL     1      32.915   8.117  48.907  1.00  0.00     0.151 C 
HETATM    5  C18 UNL     1      31.533   8.349  49.263  1.00  0.00     0.093 C 
ENDROOT
BRANCH   1   6
HETATM    6  C6  UNL     1      30.188  10.747  48.972  1.00  0.00     0.041 C 
HETATM    7  C5  UNL     1      28.964  10.103  48.941  1.00  0.00    -0.020 C 
BRANCH   7   8
HETATM    8  P1  UNL     1      28.068   8.998  48.038  1.00  0.00    -0.079 P 
BRANCH   8   9
HETATM    9  C4  UNL     1      27.911   7.317  48.473  1.00  0.00     0.060 C 
BRANCH   9  10
HETATM   10  C3  UNL     1      27.709   6.127  48.529  1.00  0.00     0.014 A 
HETATM   11  C2  UNL     1      27.456   4.943  48.603  1.00  0.00    -0.002 A 
HETATM   12  C1  UNL     1      28.814   5.385  48.252  1.00  0.00     0.014 A 
ENDBRANCH   9  10
ENDBRANCH   8   9
ENDBRANCH   7   8
ENDBRANCH   1   6
BRANCH   3  13
HETATM   13  C8  UNL     1      33.809   9.140  46.546  1.00  0.00     0.192 A 
HETATM   14  N3  UNL     1      34.973   9.392  46.108  1.00  0.00    -0.198 NA
HETATM   15  C9  UNL     1      35.330   9.433  44.847  1.00  0.00     0.171 A 
HETATM   16  C10 UNL     1      34.223   9.185  43.797  1.00  0.00     0.111 A 
HETATM   17  S1  UNL     1      32.839   8.925  44.966  1.00  0.00    -0.058 SA
BRANCH  15  18
HETATM   18  O1  UNL     1      36.712   9.673  44.959  1.00  0.00    -0.344 OA
HETATM   19  H7  UNL     1      37.370   8.849  44.799  1.00  0.00     0.219 HD
ENDBRANCH  15  18
ENDBRANCH   3  13
BRANCH   4  20
HETATM   20  C12 UNL     1      33.123   6.786  48.169  1.00  0.00    -0.033 A 
HETATM   21  C13 UNL     1      32.389   6.034  47.443  1.00  0.00     0.011 A 
HETATM   22  C14 UNL     1      32.437   4.775  46.854  1.00  0.00     0.024 A 
HETATM   23  C15 UNL     1      33.828   4.235  47.262  1.00  0.00     0.034 A 
HETATM   24 CL1  UNL     1      34.106   2.618  46.588  1.00  0.00    -0.084 Cl
HETATM   25  C16 UNL     1      34.613   4.885  47.977  1.00  0.00     0.024 A 
HETATM   26  C17 UNL     1      34.376   6.284  48.505  1.00  0.00     0.011 A 
ENDBRANCH   4  20
TORSDOF 7
ENDMDL
MODEL 8
REMARK VINA RESULT:      -6.9      4.689      7.170
REMARK  7 active torsions:
REMARK  status: ('A' for Active; 'I' for Inactive)
REMARK    1  A    between atoms: C3_3  and  C4_4 
REMARK    2  A    between atoms: C4_4  and  P1_5 
REMARK    3  A    between atoms: P1_5  and  C5_6 
REMARK    4  A    between atoms: C6_7  and  C7_8 
REMARK    5  A    between atoms: N2_10  and  C8_11 
REMARK    6  A    between atoms: C9_13  and  O1_14 
REMARK    7  A    between atoms: C11_17  and  C12_18 
ROOT
HETATM    1  C7  UNL     1      21.071   4.145  51.275  1.00  0.00     0.058 C 
HETATM    2  N1  UNL     1      20.911   4.513  50.002  1.00  0.00    -0.174 NA
HETATM    3  N2  UNL     1      22.049   5.195  49.519  1.00  0.00    -0.236 N 
HETATM    4  C11 UNL     1      22.914   5.581  50.619  1.00  0.00     0.151 C 
HETATM    5  C18 UNL     1      22.553   4.605  51.622  1.00  0.00     0.093 C 
ENDROOT
BRANCH   1   6
HETATM    6  C6  UNL     1      20.047   3.476  51.928  1.00  0.00     0.041 C 
HETATM    7  C5  UNL     1      20.570   2.346  52.529  1.00  0.00    -0.020 C 
BRANCH   7   8
HETATM    8  P1  UNL     1      21.574   1.026  52.228  1.00  0.00    -0.079 P 
BRANCH   8   9
HETATM    9  C4  UNL     1      23.290   1.175  51.959  1.00  0.00     0.060 C 
BRANCH   9  10
HETATM   10  C3  UNL     1      24.497   1.193  52.021  1.00  0.00     0.014 A 
HETATM   11  C2  UNL     1      25.709   1.169  52.048  1.00  0.00    -0.002 A 
HETATM   12  C1  UNL     1      24.971   2.091  52.925  1.00  0.00     0.014 A 
ENDBRANCH   9  10
ENDBRANCH   8   9
ENDBRANCH   7   8
ENDBRANCH   1   6
BRANCH   3  13
HETATM   13  C8  UNL     1      22.006   5.194  48.081  1.00  0.00     0.192 A 
HETATM   14  N3  UNL     1      22.100   4.410  47.088  1.00  0.00    -0.198 NA
HETATM   15  C9  UNL     1      22.014   4.753  45.824  1.00  0.00     0.171 A 
HETATM   16  C10 UNL     1      21.812   6.254  45.518  1.00  0.00     0.111 A 
HETATM   17  S1  UNL     1      21.786   6.850  47.248  1.00  0.00    -0.058 SA
BRANCH  15  18
HETATM   18  O1  UNL     1      22.111   3.500  45.192  1.00  0.00    -0.344 OA
HETATM   19  H7  UNL     1      22.227   3.490  44.132  1.00  0.00     0.219 HD
ENDBRANCH  15  18
ENDBRANCH   3  13
BRANCH   4  20
HETATM   20  C12 UNL     1      24.268   5.283  49.958  1.00  0.00    -0.033 A 
HETATM   21  C13 UNL     1      24.998   4.243  49.829  1.00  0.00     0.011 A 
HETATM   22  C14 UNL     1      26.268   3.902  49.379  1.00  0.00     0.024 A 
HETATM   23  C15 UNL     1      26.867   5.254  48.923  1.00  0.00     0.034 A 
HETATM   24 CL1  UNL     1      28.508   5.041  48.286  1.00  0.00    -0.084 Cl
HETATM   25  C16 UNL     1      26.242   6.327  49.018  1.00  0.00     0.024 A 
HETATM   26  C17 UNL     1      24.822   6.481  49.523  1.00  0.00     0.011 A 
ENDBRANCH   4  20
TORSDOF 7
ENDMDL
MODEL 9
REMARK VINA RESULT:      -6.8      4.268      7.225
REMARK  7 active torsions:
REMARK  status: ('A' for Active; 'I' for Inactive)
REMARK    1  A    between atoms: C3_3  and  C4_4 
REMARK    2  A    between atoms: C4_4  and  P1_5 
REMARK    3  A    between atoms: P1_5  and  C5_6 
REMARK    4  A    between atoms: C6_7  and  C7_8 
REMARK    5  A    between atoms: N2_10  and  C8_11 
REMARK    6  A    between atoms: C9_13  and  O1_14 
REMARK    7  A    between atoms: C11_17  and  C12_18 
ROOT
HETATM    1  C7  UNL     1      23.991   0.803  52.930  1.00  0.00     0.058 C 
HETATM    2  N1  UNL     1      23.087   1.000  51.968  1.00  0.00    -0.174 NA
HETATM    3  N2  UNL     1      23.236   2.273  51.377  1.00  0.00    -0.236 N 
HETATM    4  C11 UNL     1      24.098   3.112  52.191  1.00  0.00     0.151 C 
HETATM    5  C18 UNL     1      24.881   2.121  52.893  1.00  0.00     0.093 C 
ENDROOT
BRANCH   1   6
HETATM    6  C6  UNL     1      23.988  -0.388  53.638  1.00  0.00     0.041 C 
HETATM    7  C5  UNL     1      22.678  -0.797  53.809  1.00  0.00    -0.020 C 
BRANCH   7   8
HETATM    8  P1  UNL     1      21.160  -0.231  54.272  1.00  0.00    -0.079 P 
BRANCH   8   9
HETATM    9  C4  UNL     1      19.688  -0.667  53.448  1.00  0.00     0.060 C 
BRANCH   9  10
HETATM   10  C3  UNL     1      18.551  -0.853  53.082  1.00  0.00     0.014 A 
HETATM   11  C2  UNL     1      17.410  -0.990  52.692  1.00  0.00    -0.002 A 
HETATM   12  C1  UNL     1      18.028  -2.022  53.539  1.00  0.00     0.014 A 
ENDBRANCH   9  10
ENDBRANCH   8   9
ENDBRANCH   7   8
ENDBRANCH   1   6
BRANCH   3  13
HETATM   13  C8  UNL     1      22.551   2.274  50.113  1.00  0.00     0.192 A 
HETATM   14  N3  UNL     1      22.774   2.243  48.864  1.00  0.00    -0.198 NA
HETATM   15  C9  UNL     1      21.866   2.262  47.917  1.00  0.00     0.171 A 
HETATM   16  C10 UNL     1      20.390   2.364  48.364  1.00  0.00     0.111 A 
HETATM   17  S1  UNL     1      20.689   2.403  50.169  1.00  0.00    -0.058 SA
BRANCH  15  18
HETATM   18  O1  UNL     1      22.665   2.133  46.767  1.00  0.00    -0.344 OA
HETATM   19  H7  UNL     1      22.181   1.855  45.859  1.00  0.00     0.219 HD
ENDBRANCH  15  18
ENDBRANCH   3  13
BRANCH   4  20
HETATM   20  C12 UNL     1      24.881   3.796  51.060  1.00  0.00    -0.033 A 
HETATM   21  C13 UNL     1      25.886   3.477  50.338  1.00  0.00     0.011 A 
HETATM   22  C14 UNL     1      26.734   4.062  49.404  1.00  0.00     0.024 A 
HETATM   23  C15 UNL     1      26.203   5.510  49.286  1.00  0.00     0.034 A 
HETATM   24 CL1  UNL     1      27.149   6.442  48.111  1.00  0.00    -0.084 Cl
HETATM   25  C16 UNL     1      25.236   5.923  49.954  1.00  0.00     0.024 A 
HETATM   26  C17 UNL     1      24.411   5.097  50.920  1.00  0.00     0.011 A 
ENDBRANCH   4  20
TORSDOF 7
ENDMDL
