MODEL 1
REMARK VINA RESULT:      -7.8      0.000      0.000
REMARK  6 active torsions:
REMARK  status: ('A' for Active; 'I' for Inactive)
REMARK    1  A    between atoms: C3_3  and  C4_4 
REMARK    2  A    between atoms: C9_9  and  C10_10 
REMARK    3  A    between atoms: C10_10  and  N1_11 
REMARK    4  A    between atoms: N1_11  and  C11_12 
REMARK    5  A    between atoms: C11_12  and  C12_13 
REMARK    6  A    between atoms: N2_14  and  C13_15 
ROOT
HETATM    1  N1  UNL     1      24.470   5.671  49.135  1.00  0.00    -0.416 NA
ENDROOT
BRANCH   1   2
HETATM    2  C10 UNL     1      23.197   5.227  48.606  1.00  0.00     0.144 C 
BRANCH   2   3
HETATM    3  C9  UNL     1      22.625   4.273  49.618  1.00  0.00    -0.039 C 
HETATM    4  C8  UNL     1      22.285   4.805  50.798  1.00  0.00     0.007 C 
HETATM    5  C7  UNL     1      21.713   4.151  51.969  1.00  0.00     0.003 C 
HETATM    6  C6  UNL     1      21.857   2.839  52.218  1.00  0.00     0.037 C 
HETATM    7  C5  UNL     1      22.551   1.801  51.471  1.00  0.00     0.069 C 
HETATM    8  C4  UNL     1      22.812   0.657  52.035  1.00  0.00     0.036 C 
HETATM    9  O2  UNL     1      22.952   1.982  50.159  1.00  0.00    -0.347 OA
HETATM   10  C21 UNL     1      22.523   2.852  49.140  1.00  0.00     0.211 C 
BRANCH   8  11
HETATM   11  C3  UNL     1      22.472   0.290  53.387  1.00  0.00    -0.002 C 
HETATM   12  C2  UNL     1      22.936  -0.822  53.951  1.00  0.00    -0.031 C 
HETATM   13  C1  UNL     1      22.691  -1.336  55.300  1.00  0.00     0.036 C 
ENDBRANCH   8  11
ENDBRANCH   2   3
ENDBRANCH   1   2
BRANCH   1  14
HETATM   14  C11 UNL     1      25.460   4.887  49.344  1.00  0.00     0.294 C 
BRANCH  14  15
HETATM   15  C12 UNL     1      26.633   4.047  49.530  1.00  0.00     0.138 C 
HETATM   16  N2  UNL     1      26.209   3.499  50.595  1.00  0.00    -0.235 NA
BRANCH  16  17
HETATM   17  C13 UNL     1      26.869   2.524  51.367  1.00  0.00     0.178 C 
HETATM   18  C14 UNL     1      26.282   1.252  51.261  1.00  0.00     0.059 C 
HETATM   19  C15 UNL     1      26.426   0.301  52.257  1.00  0.00     0.001 C 
HETATM   20  C16 UNL     1      26.472  -0.606  53.305  1.00  0.00    -0.013 C 
HETATM   21  C17 UNL     1      27.120  -0.157  54.489  1.00  0.00     0.074 A 
HETATM   22  C18 UNL     1      28.413   0.258  54.901  1.00  0.00     0.006 A 
HETATM   23  C19 UNL     1      28.258   1.090  53.938  1.00  0.00     0.021 A 
HETATM   24  C20 UNL     1      28.111   1.794  53.106  1.00  0.00     0.019 C 
HETATM   25  O1  UNL     1      27.928   2.569  52.170  1.00  0.00    -0.249 OA
ENDBRANCH  16  17
ENDBRANCH  14  15
ENDBRANCH   1  14
TORSDOF 6
ENDMDL
MODEL 2
REMARK VINA RESULT:      -7.7      2.287      4.769
REMARK  6 active torsions:
REMARK  status: ('A' for Active; 'I' for Inactive)
REMARK    1  A    between atoms: C3_3  and  C4_4 
REMARK    2  A    between atoms: C9_9  and  C10_10 
REMARK    3  A    between atoms: C10_10  and  N1_11 
REMARK    4  A    between atoms: N1_11  and  C11_12 
REMARK    5  A    between atoms: C11_12  and  C12_13 
REMARK    6  A    between atoms: N2_14  and  C13_15 
ROOT
HETATM    1  N1  UNL     1      20.587  -0.004  53.697  1.00  0.00    -0.416 NA
ENDROOT
BRANCH   1   2
HETATM    2  C10 UNL     1      19.831   0.111  52.465  1.00  0.00     0.144 C 
BRANCH   2   3
HETATM    3  C9  UNL     1      20.597   1.058  51.583  1.00  0.00    -0.039 C 
HETATM    4  C8  UNL     1      21.058   0.546  50.436  1.00  0.00     0.007 C 
HETATM    5  C7  UNL     1      21.826   1.199  49.381  1.00  0.00     0.003 C 
HETATM    6  C6  UNL     1      22.584   2.287  49.596  1.00  0.00     0.037 C 
HETATM    7  C5  UNL     1      22.831   3.048  50.811  1.00  0.00     0.069 C 
HETATM    8  C4  UNL     1      23.821   3.891  50.861  1.00  0.00     0.036 C 
HETATM    9  O2  UNL     1      22.041   2.911  51.939  1.00  0.00    -0.347 OA
HETATM   10  C21 UNL     1      20.726   2.450  52.134  1.00  0.00     0.211 C 
BRANCH   8  11
HETATM   11  C3  UNL     1      24.746   4.165  49.789  1.00  0.00    -0.002 C 
HETATM   12  C2  UNL     1      26.064   4.131  49.971  1.00  0.00    -0.031 C 
HETATM   13  C1  UNL     1      27.130   4.381  48.999  1.00  0.00     0.036 C 
ENDBRANCH   8  11
ENDBRANCH   2   3
ENDBRANCH   1   2
BRANCH   1  14
HETATM   14  C11 UNL     1      21.810  -0.376  53.742  1.00  0.00     0.294 C 
BRANCH  14  15
HETATM   15  C12 UNL     1      23.219  -0.727  53.834  1.00  0.00     0.138 C 
HETATM   16  N2  UNL     1      23.637   0.357  53.321  1.00  0.00    -0.235 NA
BRANCH  16  17
HETATM   17  C13 UNL     1      24.977   0.725  53.089  1.00  0.00     0.178 C 
HETATM   18  C14 UNL     1      25.821  -0.381  52.891  1.00  0.00     0.059 C 
HETATM   19  C15 UNL     1      27.181  -0.308  53.140  1.00  0.00     0.001 C 
HETATM   20  C16 UNL     1      28.519  -0.269  53.500  1.00  0.00    -0.013 C 
HETATM   21  C17 UNL     1      28.967   0.940  54.101  1.00  0.00     0.074 A 
HETATM   22  C18 UNL     1      29.105   2.310  53.758  1.00  0.00     0.006 A 
HETATM   23  C19 UNL     1      27.856   2.187  53.496  1.00  0.00     0.021 A 
HETATM   24  C20 UNL     1      26.787   2.061  53.271  1.00  0.00     0.019 C 
HETATM   25  O1  UNL     1      25.594   1.901  53.022  1.00  0.00    -0.249 OA
ENDBRANCH  16  17
ENDBRANCH  14  15
ENDBRANCH   1  14
TORSDOF 6
ENDMDL
MODEL 3
REMARK VINA RESULT:      -7.5      2.796      6.093
REMARK  6 active torsions:
REMARK  status: ('A' for Active; 'I' for Inactive)
REMARK    1  A    between atoms: C3_3  and  C4_4 
REMARK    2  A    between atoms: C9_9  and  C10_10 
REMARK    3  A    between atoms: C10_10  and  N1_11 
REMARK    4  A    between atoms: N1_11  and  C11_12 
REMARK    5  A    between atoms: C11_12  and  C12_13 
REMARK    6  A    between atoms: N2_14  and  C13_15 
ROOT
HETATM    1  N1  UNL     1      23.230   3.623  50.573  1.00  0.00    -0.416 NA
ENDROOT
BRANCH   1   2
HETATM    2  C10 UNL     1      23.868   3.442  49.284  1.00  0.00     0.144 C 
BRANCH   2   3
HETATM    3  C9  UNL     1      25.047   4.375  49.258  1.00  0.00    -0.039 C 
HETATM    4  C8  UNL     1      24.816   5.596  48.763  1.00  0.00     0.007 C 
HETATM    5  C7  UNL     1      25.741   6.714  48.606  1.00  0.00     0.003 C 
HETATM    6  C6  UNL     1      27.071   6.554  48.508  1.00  0.00     0.037 C 
HETATM    7  C5  UNL     1      27.887   5.350  48.530  1.00  0.00     0.069 C 
HETATM    8  C4  UNL     1      29.125   5.396  48.132  1.00  0.00     0.036 C 
HETATM    9  O2  UNL     1      27.393   4.134  48.966  1.00  0.00    -0.347 OA
HETATM   10  C21 UNL     1      26.316   3.784  49.802  1.00  0.00     0.211 C 
BRANCH   8  11
HETATM   11  C3  UNL     1      29.810   6.569  47.647  1.00  0.00    -0.002 C 
HETATM   12  C2  UNL     1      31.136   6.629  47.572  1.00  0.00    -0.031 C 
HETATM   13  C1  UNL     1      31.980   7.732  47.107  1.00  0.00     0.036 C 
ENDBRANCH   8  11
ENDBRANCH   2   3
ENDBRANCH   1   2
BRANCH   1  14
HETATM   14  C11 UNL     1      23.465   2.879  51.587  1.00  0.00     0.294 C 
BRANCH  14  15
HETATM   15  C12 UNL     1      23.815   2.042  52.725  1.00  0.00     0.138 C 
HETATM   16  N2  UNL     1      24.885   1.594  52.208  1.00  0.00    -0.235 NA
BRANCH  16  17
HETATM   17  C13 UNL     1      25.787   0.680  52.787  1.00  0.00     0.178 C 
HETATM   18  C14 UNL     1      26.447   1.201  53.912  1.00  0.00     0.059 C 
HETATM   19  C15 UNL     1      27.677   0.714  54.321  1.00  0.00     0.001 C 
HETATM   20  C16 UNL     1      28.959   0.307  54.660  1.00  0.00    -0.013 C 
HETATM   21  C17 UNL     1      29.562  -0.641  53.787  1.00  0.00     0.074 A 
HETATM   22  C18 UNL     1      29.343  -1.973  53.350  1.00  0.00     0.006 A 
HETATM   23  C19 UNL     1      28.199  -1.492  53.029  1.00  0.00     0.021 A 
HETATM   24  C20 UNL     1      27.221  -1.063  52.765  1.00  0.00     0.019 C 
HETATM   25  O1  UNL     1      26.134  -0.567  52.481  1.00  0.00    -0.249 OA
ENDBRANCH  16  17
ENDBRANCH  14  15
ENDBRANCH   1  14
TORSDOF 6
ENDMDL
MODEL 4
REMARK VINA RESULT:      -7.3      2.666      5.077
REMARK  6 active torsions:
REMARK  status: ('A' for Active; 'I' for Inactive)
REMARK    1  A    between atoms: C3_3  and  C4_4 
REMARK    2  A    between atoms: C9_9  and  C10_10 
REMARK    3  A    between atoms: C10_10  and  N1_11 
REMARK    4  A    between atoms: N1_11  and  C11_12 
REMARK    5  A    between atoms: C11_12  and  C12_13 
REMARK    6  A    between atoms: N2_14  and  C13_15 
ROOT
HETATM    1  N1  UNL     1      19.090   0.670  50.494  1.00  0.00    -0.416 NA
ENDROOT
BRANCH   1   2
HETATM    2  C10 UNL     1      18.848   1.974  49.911  1.00  0.00     0.144 C 
BRANCH   2   3
HETATM    3  C9  UNL     1      20.184   2.488  49.450  1.00  0.00    -0.039 C 
HETATM    4  C8  UNL     1      20.864   1.689  48.619  1.00  0.00     0.007 C 
HETATM    5  C7  UNL     1      22.170   1.901  48.004  1.00  0.00     0.003 C 
HETATM    6  C6  UNL     1      23.100   2.716  48.528  1.00  0.00     0.037 C 
HETATM    7  C5  UNL     1      23.077   3.537  49.728  1.00  0.00     0.069 C 
HETATM    8  C4  UNL     1      24.186   4.025  50.204  1.00  0.00     0.036 C 
HETATM    9  O2  UNL     1      21.902   3.827  50.399  1.00  0.00    -0.347 OA
HETATM   10  C21 UNL     1      20.553   3.836  50.002  1.00  0.00     0.211 C 
BRANCH   8  11
HETATM   11  C3  UNL     1      25.499   3.830  49.643  1.00  0.00    -0.002 C 
HETATM   12  C2  UNL     1      26.249   4.850  49.235  1.00  0.00    -0.031 C 
HETATM   13  C1  UNL     1      27.590   4.826  48.649  1.00  0.00     0.036 C 
ENDBRANCH   8  11
ENDBRANCH   2   3
ENDBRANCH   1   2
BRANCH   1  14
HETATM   14  C11 UNL     1      19.754   0.491  51.573  1.00  0.00     0.294 C 
BRANCH  14  15
HETATM   15  C12 UNL     1      20.565   0.348  52.773  1.00  0.00     0.138 C 
HETATM   16  N2  UNL     1      21.678   0.437  52.167  1.00  0.00    -0.235 NA
BRANCH  16  17
HETATM   17  C13 UNL     1      22.962   0.378  52.741  1.00  0.00     0.178 C 
HETATM   18  C14 UNL     1      23.569   1.640  52.856  1.00  0.00     0.059 C 
HETATM   19  C15 UNL     1      24.945   1.781  52.910  1.00  0.00     0.001 C 
HETATM   20  C16 UNL     1      26.322   1.929  52.847  1.00  0.00    -0.013 C 
HETATM   21  C17 UNL     1      27.068   0.736  52.633  1.00  0.00     0.074 A 
HETATM   22  C18 UNL     1      27.314  -0.496  53.293  1.00  0.00     0.006 A 
HETATM   23  C19 UNL     1      26.034  -0.564  53.262  1.00  0.00     0.021 A 
HETATM   24  C20 UNL     1      24.935  -0.603  53.232  1.00  0.00     0.019 C 
HETATM   25  O1  UNL     1      23.707  -0.627  53.192  1.00  0.00    -0.249 OA
ENDBRANCH  16  17
ENDBRANCH  14  15
ENDBRANCH   1  14
TORSDOF 6
ENDMDL
MODEL 5
REMARK VINA RESULT:      -7.2      4.793      6.081
REMARK  6 active torsions:
REMARK  status: ('A' for Active; 'I' for Inactive)
REMARK    1  A    between atoms: C3_3  and  C4_4 
REMARK    2  A    between atoms: C9_9  and  C10_10 
REMARK    3  A    between atoms: C10_10  and  N1_11 
REMARK    4  A    between atoms: N1_11  and  C11_12 
REMARK    5  A    between atoms: C11_12  and  C12_13 
REMARK    6  A    between atoms: N2_14  and  C13_15 
ROOT
HETATM    1  N1  UNL     1      27.054   4.315  49.014  1.00  0.00    -0.416 NA
ENDROOT
BRANCH   1   2
HETATM    2  C10 UNL     1      25.771   4.782  49.501  1.00  0.00     0.144 C 
BRANCH   2   3
HETATM    3  C9  UNL     1      25.353   3.825  50.582  1.00  0.00    -0.039 C 
HETATM    4  C8  UNL     1      26.139   2.756  50.754  1.00  0.00     0.007 C 
HETATM    5  C7  UNL     1      26.005   1.660  51.708  1.00  0.00     0.003 C 
HETATM    6  C6  UNL     1      24.831   1.309  52.257  1.00  0.00     0.037 C 
HETATM    7  C5  UNL     1      23.497   1.860  52.081  1.00  0.00     0.069 C 
HETATM    8  C4  UNL     1      22.457   1.190  52.483  1.00  0.00     0.036 C 
HETATM    9  O2  UNL     1      23.282   3.093  51.490  1.00  0.00    -0.347 OA
HETATM   10  C21 UNL     1      24.102   4.223  51.312  1.00  0.00     0.211 C 
BRANCH   8  11
HETATM   11  C3  UNL     1      22.485  -0.105  53.117  1.00  0.00    -0.002 C 
HETATM   12  C2  UNL     1      21.434  -0.592  53.770  1.00  0.00    -0.031 C 
HETATM   13  C1  UNL     1      21.297  -1.875  54.462  1.00  0.00     0.036 C 
ENDBRANCH   8  11
ENDBRANCH   2   3
ENDBRANCH   1   2
BRANCH   1  14
HETATM   14  C11 UNL     1      27.951   5.090  48.534  1.00  0.00     0.294 C 
BRANCH  14  15
HETATM   15  C12 UNL     1      28.941   6.034  48.037  1.00  0.00     0.138 C 
HETATM   16  N2  UNL     1      29.938   5.280  48.263  1.00  0.00    -0.235 NA
BRANCH  16  17
HETATM   17  C13 UNL     1      31.293   5.567  48.010  1.00  0.00     0.178 C 
HETATM   18  C14 UNL     1      32.024   4.441  47.596  1.00  0.00     0.059 C 
HETATM   19  C15 UNL     1      33.395   4.362  47.771  1.00  0.00     0.001 C 
HETATM   20  C16 UNL     1      34.747   4.235  48.053  1.00  0.00    -0.013 C 
HETATM   21  C17 UNL     1      35.329   5.295  48.802  1.00  0.00     0.074 A 
HETATM   22  C18 UNL     1      35.574   6.686  48.663  1.00  0.00     0.006 A 
HETATM   23  C19 UNL     1      34.308   6.707  48.460  1.00  0.00     0.021 A 
HETATM   24  C20 UNL     1      33.223   6.707  48.283  1.00  0.00     0.019 C 
HETATM   25  O1  UNL     1      32.010   6.685  48.084  1.00  0.00    -0.249 OA
ENDBRANCH  16  17
ENDBRANCH  14  15
ENDBRANCH   1  14
TORSDOF 6
ENDMDL
MODEL 6
REMARK VINA RESULT:      -7.1      4.694      6.282
REMARK  6 active torsions:
REMARK  status: ('A' for Active; 'I' for Inactive)
REMARK    1  A    between atoms: C3_3  and  C4_4 
REMARK    2  A    between atoms: C9_9  and  C10_10 
REMARK    3  A    between atoms: C10_10  and  N1_11 
REMARK    4  A    between atoms: N1_11  and  C11_12 
REMARK    5  A    between atoms: C11_12  and  C12_13 
REMARK    6  A    between atoms: N2_14  and  C13_15 
ROOT
HETATM    1  N1  UNL     1      26.902   4.812  49.048  1.00  0.00    -0.416 NA
ENDROOT
BRANCH   1   2
HETATM    2  C10 UNL     1      26.827   3.369  49.158  1.00  0.00     0.144 C 
BRANCH   2   3
HETATM    3  C9  UNL     1      25.951   3.079  50.346  1.00  0.00    -0.039 C 
HETATM    4  C8  UNL     1      26.561   2.528  51.402  1.00  0.00     0.007 C 
HETATM    5  C7  UNL     1      25.994   2.134  52.688  1.00  0.00     0.003 C 
HETATM    6  C6  UNL     1      24.694   1.839  52.854  1.00  0.00     0.037 C 
HETATM    7  C5  UNL     1      23.593   1.829  51.904  1.00  0.00     0.069 C 
HETATM    8  C4  UNL     1      22.475   1.236  52.208  1.00  0.00     0.036 C 
HETATM    9  O2  UNL     1      23.685   2.437  50.664  1.00  0.00    -0.347 OA
HETATM   10  C21 UNL     1      24.510   3.460  50.160  1.00  0.00     0.211 C 
BRANCH   8  11
HETATM   11  C3  UNL     1      22.197   0.554  53.448  1.00  0.00    -0.002 C 
HETATM   12  C2  UNL     1      22.173  -0.774  53.530  1.00  0.00    -0.031 C 
HETATM   13  C1  UNL     1      21.910  -1.616  54.698  1.00  0.00     0.036 C 
ENDBRANCH   8  11
ENDBRANCH   2   3
ENDBRANCH   1   2
BRANCH   1  14
HETATM   14  C11 UNL     1      27.900   5.430  48.539  1.00  0.00     0.294 C 
BRANCH  14  15
HETATM   15  C12 UNL     1      29.084   6.066  47.981  1.00  0.00     0.138 C 
HETATM   16  N2  UNL     1      29.844   5.064  48.162  1.00  0.00    -0.235 NA
BRANCH  16  17
HETATM   17  C13 UNL     1      31.210   4.967  47.835  1.00  0.00     0.178 C 
HETATM   18  C14 UNL     1      31.622   5.940  46.910  1.00  0.00     0.059 C 
HETATM   19  C15 UNL     1      32.725   5.745  46.095  1.00  0.00     0.001 C 
HETATM   20  C16 UNL     1      33.755   5.500  45.200  1.00  0.00    -0.013 C 
HETATM   21  C17 UNL     1      34.341   4.205  45.263  1.00  0.00     0.074 A 
HETATM   22  C18 UNL     1      35.066   3.411  46.188  1.00  0.00     0.006 A 
HETATM   23  C19 UNL     1      34.047   3.655  46.926  1.00  0.00     0.021 A 
HETATM   24  C20 UNL     1      33.167   3.879  47.547  1.00  0.00     0.019 C 
HETATM   25  O1  UNL     1      32.178   4.143  48.227  1.00  0.00    -0.249 OA
ENDBRANCH  16  17
ENDBRANCH  14  15
ENDBRANCH   1  14
TORSDOF 6
ENDMDL
MODEL 7
REMARK VINA RESULT:      -7.0      3.120      5.918
REMARK  6 active torsions:
REMARK  status: ('A' for Active; 'I' for Inactive)
REMARK    1  A    between atoms: C3_3  and  C4_4 
REMARK    2  A    between atoms: C9_9  and  C10_10 
REMARK    3  A    between atoms: C10_10  and  N1_11 
REMARK    4  A    between atoms: N1_11  and  C11_12 
REMARK    5  A    between atoms: C11_12  and  C12_13 
REMARK    6  A    between atoms: N2_14  and  C13_15 
ROOT
HETATM    1  N1  UNL     1      22.586   5.044  51.055  1.00  0.00    -0.416 NA
ENDROOT
BRANCH   1   2
HETATM    2  C10 UNL     1      22.723   3.751  50.416  1.00  0.00     0.144 C 
BRANCH   2   3
HETATM    3  C9  UNL     1      23.938   3.104  51.022  1.00  0.00    -0.039 C 
HETATM    4  C8  UNL     1      25.060   3.172  50.296  1.00  0.00     0.007 C 
HETATM    5  C7  UNL     1      26.387   2.649  50.606  1.00  0.00     0.003 C 
HETATM    6  C6  UNL     1      26.590   1.625  51.450  1.00  0.00     0.037 C 
HETATM    7  C5  UNL     1      25.649   0.827  52.219  1.00  0.00     0.069 C 
HETATM    8  C4  UNL     1      26.030  -0.299  52.749  1.00  0.00     0.036 C 
HETATM    9  O2  UNL     1      24.337   1.222  52.416  1.00  0.00    -0.347 OA
HETATM   10  C21 UNL     1      23.700   2.475  52.365  1.00  0.00     0.211 C 
BRANCH   8  11
HETATM   11  C3  UNL     1      27.351  -0.870  52.650  1.00  0.00    -0.002 C 
HETATM   12  C2  UNL     1      28.299  -0.606  53.544  1.00  0.00    -0.031 C 
HETATM   13  C1  UNL     1      29.678  -1.098  53.591  1.00  0.00     0.036 C 
ENDBRANCH   8  11
ENDBRANCH   2   3
ENDBRANCH   1   2
BRANCH   1  14
HETATM   14  C11 UNL     1      23.467   5.969  50.975  1.00  0.00     0.294 C 
BRANCH  14  15
HETATM   15  C12 UNL     1      24.429   7.060  50.947  1.00  0.00     0.138 C 
HETATM   16  N2  UNL     1      25.086   6.605  49.959  1.00  0.00    -0.235 NA
BRANCH  16  17
HETATM   17  C13 UNL     1      26.219   7.183  49.356  1.00  0.00     0.178 C 
HETATM   18  C14 UNL     1      26.863   6.316  48.458  1.00  0.00     0.059 C 
HETATM   19  C15 UNL     1      28.205   6.461  48.148  1.00  0.00     0.001 C 
HETATM   20  C16 UNL     1      29.572   6.535  47.928  1.00  0.00    -0.013 C 
HETATM   21  C17 UNL     1      30.272   7.516  48.684  1.00  0.00     0.074 A 
HETATM   22  C18 UNL     1      30.302   8.927  48.824  1.00  0.00     0.006 A 
HETATM   23  C19 UNL     1      29.055   8.753  49.060  1.00  0.00     0.021 A 
HETATM   24  C20 UNL     1      27.985   8.585  49.255  1.00  0.00     0.019 C 
HETATM   25  O1  UNL     1      26.793   8.378  49.467  1.00  0.00    -0.249 OA
ENDBRANCH  16  17
ENDBRANCH  14  15
ENDBRANCH   1  14
TORSDOF 6
ENDMDL
MODEL 8
REMARK VINA RESULT:      -6.9      3.927      7.812
REMARK  6 active torsions:
REMARK  status: ('A' for Active; 'I' for Inactive)
REMARK    1  A    between atoms: C3_3  and  C4_4 
REMARK    2  A    between atoms: C9_9  and  C10_10 
REMARK    3  A    between atoms: C10_10  and  N1_11 
REMARK    4  A    between atoms: N1_11  and  C11_12 
REMARK    5  A    between atoms: C11_12  and  C12_13 
REMARK    6  A    between atoms: N2_14  and  C13_15 
ROOT
HETATM    1  N1  UNL     1      25.107   5.333  50.042  1.00  0.00    -0.416 NA
ENDROOT
BRANCH   1   2
HETATM    2  C10 UNL     1      26.080   4.649  49.213  1.00  0.00     0.144 C 
BRANCH   2   3
HETATM    3  C9  UNL     1      27.046   5.699  48.738  1.00  0.00    -0.039 C 
HETATM    4  C8  UNL     1      28.273   5.267  48.426  1.00  0.00     0.007 C 
HETATM    5  C7  UNL     1      29.420   6.028  47.941  1.00  0.00     0.003 C 
HETATM    6  C6  UNL     1      29.569   7.345  48.163  1.00  0.00     0.037 C 
HETATM    7  C5  UNL     1      28.722   8.291  48.871  1.00  0.00     0.069 C 
HETATM    8  C4  UNL     1      29.193   9.455  49.215  1.00  0.00     0.036 C 
HETATM    9  O2  UNL     1      27.411   8.000  49.203  1.00  0.00    -0.347 OA
HETATM   10  C21 UNL     1      26.474   7.087  48.684  1.00  0.00     0.211 C 
BRANCH   8  11
HETATM   11  C3  UNL     1      30.529   9.931  48.957  1.00  0.00    -0.002 C 
HETATM   12  C2  UNL     1      30.784  10.834  48.015  1.00  0.00    -0.031 C 
HETATM   13  C1  UNL     1      32.070  11.419  47.628  1.00  0.00     0.036 C 
ENDBRANCH   8  11
ENDBRANCH   2   3
ENDBRANCH   1   2
BRANCH   1  14
HETATM   14  C11 UNL     1      24.337   4.732  50.869  1.00  0.00     0.294 C 
BRANCH  14  15
HETATM   15  C12 UNL     1      23.446   3.991  51.748  1.00  0.00     0.138 C 
HETATM   16  N2  UNL     1      23.969   2.859  51.509  1.00  0.00    -0.235 NA
BRANCH  16  17
HETATM   17  C13 UNL     1      23.586   1.617  52.051  1.00  0.00     0.178 C 
HETATM   18  C14 UNL     1      22.268   1.260  51.723  1.00  0.00     0.059 C 
HETATM   19  C15 UNL     1      21.536   0.386  52.510  1.00  0.00     0.001 C 
HETATM   20  C16 UNL     1      20.767  -0.394  53.359  1.00  0.00    -0.013 C 
HETATM   21  C17 UNL     1      21.385  -0.781  54.580  1.00  0.00     0.074 A 
HETATM   22  C18 UNL     1      22.495  -1.552  55.012  1.00  0.00     0.006 A 
HETATM   23  C19 UNL     1      23.127  -0.751  54.237  1.00  0.00     0.021 A 
HETATM   24  C20 UNL     1      23.653  -0.058  53.563  1.00  0.00     0.019 C 
HETATM   25  O1  UNL     1      24.221   0.723  52.804  1.00  0.00    -0.249 OA
ENDBRANCH  16  17
ENDBRANCH  14  15
ENDBRANCH   1  14
TORSDOF 6
ENDMDL
MODEL 9
REMARK VINA RESULT:      -6.8      3.532      6.838
REMARK  6 active torsions:
REMARK  status: ('A' for Active; 'I' for Inactive)
REMARK    1  A    between atoms: C3_3  and  C4_4 
REMARK    2  A    between atoms: C9_9  and  C10_10 
REMARK    3  A    between atoms: C10_10  and  N1_11 
REMARK    4  A    between atoms: N1_11  and  C11_12 
REMARK    5  A    between atoms: C11_12  and  C12_13 
REMARK    6  A    between atoms: N2_14  and  C13_15 
ROOT
HETATM    1  N1  UNL     1      24.280   4.177  49.375  1.00  0.00    -0.416 NA
ENDROOT
BRANCH   1   2
HETATM    2  C10 UNL     1      24.598   5.567  49.634  1.00  0.00     0.144 C 
BRANCH   2   3
HETATM    3  C9  UNL     1      25.828   5.879  48.827  1.00  0.00    -0.039 C 
HETATM    4  C8  UNL     1      26.879   5.075  49.028  1.00  0.00     0.007 C 
HETATM    5  C7  UNL     1      28.199   5.116  48.407  1.00  0.00     0.003 C 
HETATM    6  C6  UNL     1      28.722   6.233  47.875  1.00  0.00     0.037 C 
HETATM    7  C5  UNL     1      28.183   7.580  47.774  1.00  0.00     0.069 C 
HETATM    8  C4  UNL     1      28.969   8.576  47.483  1.00  0.00     0.036 C 
HETATM    9  O2  UNL     1      26.842   7.854  47.979  1.00  0.00    -0.347 OA
HETATM   10  C21 UNL     1      25.684   7.059  47.908  1.00  0.00     0.211 C 
BRANCH   8  11
HETATM   11  C3  UNL     1      30.387   8.483  47.238  1.00  0.00    -0.002 C 
HETATM   12  C2  UNL     1      31.282   8.989  48.082  1.00  0.00    -0.031 C 
HETATM   13  C1  UNL     1      32.743   8.980  47.984  1.00  0.00     0.036 C 
ENDBRANCH   8  11
ENDBRANCH   2   3
ENDBRANCH   1   2
BRANCH   1  14
HETATM   14  C11 UNL     1      24.219   3.284  50.289  1.00  0.00     0.294 C 
BRANCH  14  15
HETATM   15  C12 UNL     1      24.234   2.262  51.325  1.00  0.00     0.138 C 
HETATM   16  N2  UNL     1      25.500   2.160  51.362  1.00  0.00    -0.235 NA
BRANCH  16  17
HETATM   17  C13 UNL     1      26.258   1.308  52.188  1.00  0.00     0.178 C 
HETATM   18  C14 UNL     1      26.987   2.001  53.168  1.00  0.00     0.059 C 
HETATM   19  C15 UNL     1      28.132   1.465  53.734  1.00  0.00     0.001 C 
HETATM   20  C16 UNL     1      29.339   0.980  54.213  1.00  0.00    -0.013 C 
HETATM   21  C17 UNL     1      29.796  -0.236  53.634  1.00  0.00     0.074 A 
HETATM   22  C18 UNL     1      29.384  -1.590  53.541  1.00  0.00     0.006 A 
HETATM   23  C19 UNL     1      28.323  -1.050  53.066  1.00  0.00     0.021 A 
HETATM   24  C20 UNL     1      27.419  -0.569  52.665  1.00  0.00     0.019 C 
HETATM   25  O1  UNL     1      26.417  -0.013  52.222  1.00  0.00    -0.249 OA
ENDBRANCH  16  17
ENDBRANCH  14  15
ENDBRANCH   1  14
TORSDOF 6
ENDMDL
