MODEL 1
REMARK VINA RESULT:      -8.0      0.000      0.000
REMARK  2 active torsions:
REMARK  status: ('A' for Active; 'I' for Inactive)
REMARK    1  A    between atoms: O1_1  and  C1_2 
REMARK    2  A    between atoms: C3_5  and  N1_6 
ROOT
HETATM    1  N1  UNL     1      22.942   2.199  52.005  1.00  0.00    -0.311 N 
HETATM    2  C4  UNL     1      23.889   1.245  52.413  1.00  0.00     0.047 A 
HETATM    3  C5  UNL     1      25.206   1.376  52.037  1.00  0.00     0.072 A 
HETATM    4  C6  UNL     1      26.090   0.393  52.477  1.00  0.00     0.118 A 
HETATM    5  F1  UNL     1      27.390   0.516  52.109  1.00  0.00    -0.206 F 
HETATM    6  C7  UNL     1      25.627  -0.644  53.250  1.00  0.00     0.043 A 
HETATM    7  C8  UNL     1      24.286  -0.767  53.627  1.00  0.00     0.012 A 
HETATM    8  C9  UNL     1      23.397   0.220  53.185  1.00  0.00    -0.031 A 
HETATM    9  C10 UNL     1      21.983   0.069  53.596  1.00  0.00     0.043 C 
HETATM   10  C11 UNL     1      21.163   1.264  53.261  1.00  0.00     0.041 C 
HETATM   11  C12 UNL     1      21.539   1.850  51.915  1.00  0.00     0.061 A 
HETATM   12  C13 UNL     1      20.700   3.057  51.673  1.00  0.00     0.005 A 
HETATM   13  C14 UNL     1      19.883   3.268  50.654  1.00  0.00    -0.002 A 
HETATM   14  C15 UNL     1      19.731   2.263  49.612  1.00  0.00    -0.004 A 
HETATM   15  C16 UNL     1      20.452   1.167  49.773  1.00  0.00    -0.024 A 
HETATM   16  C17 UNL     1      21.409   0.796  50.868  1.00  0.00     0.063 A 
ENDROOT
BRANCH   1  17
HETATM   17  C3  UNL     1      23.355   3.548  51.667  1.00  0.00     0.176 A 
HETATM   18  S1  UNL     1      23.574   3.702  49.790  1.00  0.00    -0.059 SA
HETATM   19  C2  UNL     1      24.061   5.501  50.000  1.00  0.00     0.111 A 
HETATM   20  C1  UNL     1      23.979   5.671  51.381  1.00  0.00     0.171 A 
HETATM   21  N2  UNL     1      23.614   4.604  52.069  1.00  0.00    -0.200 NA
BRANCH  20  22
HETATM   22  O1  UNL     1      24.216   6.790  52.211  1.00  0.00    -0.344 OA
HETATM   23  H1  UNL     1      23.938   7.683  51.793  1.00  0.00     0.219 HD
ENDBRANCH  20  22
ENDBRANCH   1  17
TORSDOF 2
ENDMDL
MODEL 2
REMARK VINA RESULT:      -7.5      2.650      4.849
REMARK  2 active torsions:
REMARK  status: ('A' for Active; 'I' for Inactive)
REMARK    1  A    between atoms: O1_1  and  C1_2 
REMARK    2  A    between atoms: C3_5  and  N1_6 
ROOT
HETATM    1  N1  UNL     1      22.383   2.046  52.068  1.00  0.00    -0.311 N 
HETATM    2  C4  UNL     1      21.655   3.117  51.524  1.00  0.00     0.047 A 
HETATM    3  C5  UNL     1      22.085   4.411  51.714  1.00  0.00     0.072 A 
HETATM    4  C6  UNL     1      21.315   5.423  51.146  1.00  0.00     0.118 A 
HETATM    5  F1  UNL     1      21.733   6.700  51.331  1.00  0.00    -0.206 F 
HETATM    6  C7  UNL     1      20.183   5.102  50.435  1.00  0.00     0.043 A 
HETATM    7  C8  UNL     1      19.756   3.784  50.247  1.00  0.00     0.012 A 
HETATM    8  C9  UNL     1      20.529   2.766  50.818  1.00  0.00    -0.031 A 
HETATM    9  C10 UNL     1      20.059   1.378  50.606  1.00  0.00     0.043 C 
HETATM   10  C11 UNL     1      21.047   0.367  51.063  1.00  0.00     0.041 C 
HETATM   11  C12 UNL     1      21.732   0.783  52.349  1.00  0.00     0.061 A 
HETATM   12  C13 UNL     1      22.727  -0.264  52.717  1.00  0.00     0.005 A 
HETATM   13  C14 UNL     1      22.773  -0.958  53.842  1.00  0.00    -0.002 A 
HETATM   14  C15 UNL     1      21.783  -0.737  54.885  1.00  0.00    -0.004 A 
HETATM   15  C16 UNL     1      20.871   0.182  54.615  1.00  0.00    -0.024 A 
HETATM   16  C17 UNL     1      20.699   1.037  53.394  1.00  0.00     0.063 A 
ENDROOT
BRANCH   1  17
HETATM   17  C3  UNL     1      23.798   2.189  52.358  1.00  0.00     0.176 A 
HETATM   18  S1  UNL     1      24.783   2.251  50.738  1.00  0.00    -0.059 SA
HETATM   19  C2  UNL     1      26.371   2.425  51.719  1.00  0.00     0.111 A 
HETATM   20  C1  UNL     1      25.913   2.408  53.034  1.00  0.00     0.171 A 
HETATM   21  N2  UNL     1      24.606   2.284  53.183  1.00  0.00    -0.200 NA
BRANCH  20  22
HETATM   22  O1  UNL     1      26.587   2.499  54.272  1.00  0.00    -0.344 OA
HETATM   23  H1  UNL     1      26.437   1.692  54.886  1.00  0.00     0.219 HD
ENDBRANCH  20  22
ENDBRANCH   1  17
TORSDOF 2
ENDMDL
MODEL 3
REMARK VINA RESULT:      -7.4      3.327      5.954
REMARK  2 active torsions:
REMARK  status: ('A' for Active; 'I' for Inactive)
REMARK    1  A    between atoms: O1_1  and  C1_2 
REMARK    2  A    between atoms: C3_5  and  N1_6 
ROOT
HETATM    1  N1  UNL     1      23.827   1.198  52.208  1.00  0.00    -0.311 N 
HETATM    2  C4  UNL     1      23.367   1.665  50.966  1.00  0.00     0.047 A 
HETATM    3  C5  UNL     1      22.293   1.059  50.356  1.00  0.00     0.072 A 
HETATM    4  C6  UNL     1      21.890   1.574  49.126  1.00  0.00     0.118 A 
HETATM    5  F1  UNL     1      20.831   0.980  48.519  1.00  0.00    -0.206 F 
HETATM    6  C7  UNL     1      22.563   2.640  48.579  1.00  0.00     0.043 A 
HETATM    7  C8  UNL     1      23.654   3.248  49.208  1.00  0.00     0.012 A 
HETATM    8  C9  UNL     1      24.059   2.732  50.445  1.00  0.00    -0.031 A 
HETATM    9  C10 UNL     1      25.216   3.392  51.092  1.00  0.00     0.043 C 
HETATM   10  C11 UNL     1      25.437   2.915  52.482  1.00  0.00     0.041 C 
HETATM   11  C12 UNL     1      25.199   1.425  52.616  1.00  0.00     0.061 A 
HETATM   12  C13 UNL     1      25.406   1.038  54.040  1.00  0.00     0.005 A 
HETATM   13  C14 UNL     1      26.264   0.145  54.505  1.00  0.00    -0.002 A 
HETATM   14  C15 UNL     1      27.136  -0.583  53.595  1.00  0.00    -0.004 A 
HETATM   15  C16 UNL     1      26.997  -0.281  52.315  1.00  0.00    -0.024 A 
HETATM   16  C17 UNL     1      26.076   0.700  51.652  1.00  0.00     0.063 A 
ENDROOT
BRANCH   1  17
HETATM   17  C3  UNL     1      22.937   0.481  53.101  1.00  0.00     0.176 A 
HETATM   18  S1  UNL     1      21.359   1.494  53.387  1.00  0.00    -0.059 SA
HETATM   19  C2  UNL     1      20.703   0.144  54.510  1.00  0.00     0.111 A 
HETATM   20  C1  UNL     1      21.733  -0.794  54.481  1.00  0.00     0.171 A 
HETATM   21  N2  UNL     1      22.775  -0.478  53.733  1.00  0.00    -0.200 NA
BRANCH  20  22
HETATM   22  O1  UNL     1      21.886  -2.050  55.110  1.00  0.00    -0.344 OA
HETATM   23  H1  UNL     1      21.063  -2.350  55.641  1.00  0.00     0.219 HD
ENDBRANCH  20  22
ENDBRANCH   1  17
TORSDOF 2
ENDMDL
MODEL 4
REMARK VINA RESULT:      -7.1      2.781      4.401
REMARK  2 active torsions:
REMARK  status: ('A' for Active; 'I' for Inactive)
REMARK    1  A    between atoms: O1_1  and  C1_2 
REMARK    2  A    between atoms: C3_5  and  N1_6 
ROOT
HETATM    1  N1  UNL     1      22.485   1.841  51.855  1.00  0.00    -0.311 N 
HETATM    2  C4  UNL     1      22.826   0.860  52.800  1.00  0.00     0.047 A 
HETATM    3  C5  UNL     1      21.846   0.258  53.556  1.00  0.00     0.072 A 
HETATM    4  C6  UNL     1      22.257  -0.707  54.473  1.00  0.00     0.118 A 
HETATM    5  F1  UNL     1      21.296  -1.302  55.222  1.00  0.00    -0.206 F 
HETATM    6  C7  UNL     1      23.592  -1.015  54.587  1.00  0.00     0.043 A 
HETATM    7  C8  UNL     1      24.579  -0.397  53.813  1.00  0.00     0.012 A 
HETATM    8  C9  UNL     1      24.167   0.572  52.891  1.00  0.00    -0.031 A 
HETATM    9  C10 UNL     1      25.230   1.211  52.083  1.00  0.00     0.043 C 
HETATM   10  C11 UNL     1      24.681   2.065  50.996  1.00  0.00     0.041 C 
HETATM   11  C12 UNL     1      23.455   2.834  51.443  1.00  0.00     0.061 A 
HETATM   12  C13 UNL     1      22.950   3.632  50.290  1.00  0.00     0.005 A 
HETATM   13  C14 UNL     1      22.786   4.944  50.242  1.00  0.00    -0.002 A 
HETATM   14  C15 UNL     1      23.108   5.770  51.395  1.00  0.00    -0.004 A 
HETATM   15  C16 UNL     1      23.563   5.116  52.451  1.00  0.00    -0.024 A 
HETATM   16  C17 UNL     1      23.798   3.647  52.645  1.00  0.00     0.063 A 
ENDROOT
BRANCH   1  17
HETATM   17  C3  UNL     1      21.154   1.875  51.278  1.00  0.00     0.176 A 
HETATM   18  S1  UNL     1      20.079   3.126  52.214  1.00  0.00    -0.059 SA
HETATM   19  C2  UNL     1      18.638   2.725  51.084  1.00  0.00     0.111 A 
HETATM   20  C1  UNL     1      19.184   1.764  50.235  1.00  0.00     0.171 A 
HETATM   21  N2  UNL     1      20.447   1.451  50.462  1.00  0.00    -0.200 NA
BRANCH  20  22
HETATM   22  O1  UNL     1      18.639   1.040  49.151  1.00  0.00    -0.344 OA
HETATM   23  H1  UNL     1      17.769   1.437  48.783  1.00  0.00     0.219 HD
ENDBRANCH  20  22
ENDBRANCH   1  17
TORSDOF 2
ENDMDL
MODEL 5
REMARK VINA RESULT:      -7.0      1.926      2.346
REMARK  2 active torsions:
REMARK  status: ('A' for Active; 'I' for Inactive)
REMARK    1  A    between atoms: O1_1  and  C1_2 
REMARK    2  A    between atoms: C3_5  and  N1_6 
ROOT
HETATM    1  N1  UNL     1      22.742   3.089  51.141  1.00  0.00    -0.311 N 
HETATM    2  C4  UNL     1      24.108   2.776  51.059  1.00  0.00     0.047 A 
HETATM    3  C5  UNL     1      24.929   3.484  50.212  1.00  0.00     0.072 A 
HETATM    4  C6  UNL     1      26.273   3.119  50.181  1.00  0.00     0.118 A 
HETATM    5  F1  UNL     1      27.088   3.813  49.347  1.00  0.00    -0.206 F 
HETATM    6  C7  UNL     1      26.720   2.092  50.978  1.00  0.00     0.043 A 
HETATM    7  C8  UNL     1      25.876   1.379  51.836  1.00  0.00     0.012 A 
HETATM    8  C9  UNL     1      24.525   1.745  51.866  1.00  0.00    -0.031 A 
HETATM    9  C10 UNL     1      23.652   0.977  52.783  1.00  0.00     0.043 C 
HETATM   10  C11 UNL     1      22.293   1.569  52.902  1.00  0.00     0.041 C 
HETATM   11  C12 UNL     1      21.784   2.093  51.575  1.00  0.00     0.061 A 
HETATM   12  C13 UNL     1      20.439   2.699  51.790  1.00  0.00     0.005 A 
HETATM   13  C14 UNL     1      19.309   2.358  51.193  1.00  0.00    -0.002 A 
HETATM   14  C15 UNL     1      19.288   1.287  50.209  1.00  0.00    -0.004 A 
HETATM   15  C16 UNL     1      20.455   0.710  49.976  1.00  0.00    -0.024 A 
HETATM   16  C17 UNL     1      21.804   0.990  50.573  1.00  0.00     0.063 A 
ENDROOT
BRANCH   1  17
HETATM   17  C3  UNL     1      22.268   4.416  50.791  1.00  0.00     0.176 A 
HETATM   18  S1  UNL     1      21.674   4.432  48.990  1.00  0.00    -0.059 SA
HETATM   19  C2  UNL     1      21.236   6.247  49.157  1.00  0.00     0.111 A 
HETATM   20  C1  UNL     1      21.594   6.519  50.476  1.00  0.00     0.171 A 
HETATM   21  N2  UNL     1      22.093   5.502  51.155  1.00  0.00    -0.200 NA
BRANCH  20  22
HETATM   22  O1  UNL     1      21.527   7.700  51.250  1.00  0.00    -0.344 OA
HETATM   23  H1  UNL     1      22.075   7.660  52.115  1.00  0.00     0.219 HD
ENDBRANCH  20  22
ENDBRANCH   1  17
TORSDOF 2
ENDMDL
MODEL 6
REMARK VINA RESULT:      -6.9      2.228      4.320
REMARK  2 active torsions:
REMARK  status: ('A' for Active; 'I' for Inactive)
REMARK    1  A    between atoms: O1_1  and  C1_2 
REMARK    2  A    between atoms: C3_5  and  N1_6 
ROOT
HETATM    1  N1  UNL     1      23.430   3.261  50.879  1.00  0.00    -0.311 N 
HETATM    2  C4  UNL     1      24.394   2.434  51.478  1.00  0.00     0.047 A 
HETATM    3  C5  UNL     1      24.050   1.632  52.542  1.00  0.00     0.072 A 
HETATM    4  C6  UNL     1      25.057   0.837  53.086  1.00  0.00     0.118 A 
HETATM    5  F1  UNL     1      24.724   0.045  54.136  1.00  0.00    -0.206 F 
HETATM    6  C7  UNL     1      26.323   0.881  52.554  1.00  0.00     0.043 A 
HETATM    7  C8  UNL     1      26.661   1.699  51.472  1.00  0.00     0.012 A 
HETATM    8  C9  UNL     1      25.650   2.499  50.925  1.00  0.00    -0.031 A 
HETATM    9  C10 UNL     1      26.031   3.356  49.779  1.00  0.00     0.043 C 
HETATM   10  C11 UNL     1      24.856   4.003  49.138  1.00  0.00     0.041 C 
HETATM   11  C12 UNL     1      23.829   4.452  50.157  1.00  0.00     0.061 A 
HETATM   12  C13 UNL     1      22.674   5.054  49.433  1.00  0.00     0.005 A 
HETATM   13  C14 UNL     1      22.196   6.279  49.577  1.00  0.00    -0.002 A 
HETATM   14  C15 UNL     1      22.804   7.202  50.524  1.00  0.00    -0.004 A 
HETATM   15  C16 UNL     1      23.836   6.723  51.198  1.00  0.00    -0.024 A 
HETATM   16  C17 UNL     1      24.480   5.369  51.137  1.00  0.00     0.063 A 
ENDROOT
BRANCH   1  17
HETATM   17  C3  UNL     1      22.019   2.937  50.975  1.00  0.00     0.176 A 
HETATM   18  S1  UNL     1      21.594   1.545  49.758  1.00  0.00    -0.059 SA
HETATM   19  C2  UNL     1      19.809   1.599  50.328  1.00  0.00     0.111 A 
HETATM   20  C1  UNL     1      19.834   2.606  51.291  1.00  0.00     0.171 A 
HETATM   21  N2  UNL     1      21.010   3.173  51.496  1.00  0.00    -0.200 NA
BRANCH  20  22
HETATM   22  O1  UNL     1      18.824   3.155  52.112  1.00  0.00    -0.344 OA
HETATM   23  H1  UNL     1      18.292   2.455  52.637  1.00  0.00     0.219 HD
ENDBRANCH  20  22
ENDBRANCH   1  17
TORSDOF 2
ENDMDL
MODEL 7
REMARK VINA RESULT:      -6.8      2.329      2.738
REMARK  2 active torsions:
REMARK  status: ('A' for Active; 'I' for Inactive)
REMARK    1  A    between atoms: O1_1  and  C1_2 
REMARK    2  A    between atoms: C3_5  and  N1_6 
ROOT
HETATM    1  N1  UNL     1      23.852   3.384  50.273  1.00  0.00    -0.311 N 
HETATM    2  C4  UNL     1      24.306   2.401  51.168  1.00  0.00     0.047 A 
HETATM    3  C5  UNL     1      25.655   2.212  51.360  1.00  0.00     0.072 A 
HETATM    4  C6  UNL     1      26.034   1.220  52.261  1.00  0.00     0.118 A 
HETATM    5  F1  UNL     1      27.363   1.029  52.454  1.00  0.00    -0.206 F 
HETATM    6  C7  UNL     1      25.071   0.485  52.910  1.00  0.00     0.043 A 
HETATM    7  C8  UNL     1      23.702   0.686  52.708  1.00  0.00     0.012 A 
HETATM    8  C9  UNL     1      23.321   1.682  51.801  1.00  0.00    -0.031 A 
HETATM    9  C10 UNL     1      21.866   1.877  51.604  1.00  0.00     0.043 C 
HETATM   10  C11 UNL     1      21.560   3.085  50.793  1.00  0.00     0.041 C 
HETATM   11  C12 UNL     1      22.546   3.272  49.658  1.00  0.00     0.061 A 
HETATM   12  C13 UNL     1      22.190   4.517  48.921  1.00  0.00     0.005 A 
HETATM   13  C14 UNL     1      21.895   4.625  47.636  1.00  0.00    -0.002 A 
HETATM   14  C15 UNL     1      21.896   3.449  46.778  1.00  0.00    -0.004 A 
HETATM   15  C16 UNL     1      22.205   2.312  47.378  1.00  0.00    -0.024 A 
HETATM   16  C17 UNL     1      22.556   2.044  48.812  1.00  0.00     0.063 A 
ENDROOT
BRANCH   1  17
HETATM   17  C3  UNL     1      24.686   4.528  49.951  1.00  0.00     0.176 A 
HETATM   18  S1  UNL     1      24.268   5.974  51.105  1.00  0.00    -0.059 SA
HETATM   19  C2  UNL     1      25.563   7.024  50.248  1.00  0.00     0.111 A 
HETATM   20  C1  UNL     1      26.066   6.150  49.285  1.00  0.00     0.171 A 
HETATM   21  N2  UNL     1      25.524   4.945  49.268  1.00  0.00    -0.200 NA
BRANCH  20  22
HETATM   22  O1  UNL     1      27.066   6.303  48.300  1.00  0.00    -0.344 OA
HETATM   23  H1  UNL     1      26.838   6.998  47.582  1.00  0.00     0.219 HD
ENDBRANCH  20  22
ENDBRANCH   1  17
TORSDOF 2
ENDMDL
MODEL 8
REMARK VINA RESULT:      -6.8      9.174     12.148
REMARK  2 active torsions:
REMARK  status: ('A' for Active; 'I' for Inactive)
REMARK    1  A    between atoms: O1_1  and  C1_2 
REMARK    2  A    between atoms: C3_5  and  N1_6 
ROOT
HETATM    1  N1  UNL     1      32.020   7.483  47.719  1.00  0.00    -0.311 N 
HETATM    2  C4  UNL     1      30.672   7.180  47.973  1.00  0.00     0.047 A 
HETATM    3  C5  UNL     1      30.245   5.872  47.960  1.00  0.00     0.072 A 
HETATM    4  C6  UNL     1      28.895   5.645  48.221  1.00  0.00     0.118 A 
HETATM    5  F1  UNL     1      28.468   4.358  48.208  1.00  0.00    -0.206 F 
HETATM    6  C7  UNL     1      28.062   6.707  48.476  1.00  0.00     0.043 A 
HETATM    7  C8  UNL     1      28.507   8.032  48.489  1.00  0.00     0.012 A 
HETATM    8  C9  UNL     1      29.863   8.262  48.226  1.00  0.00    -0.031 A 
HETATM    9  C10 UNL     1      30.312   9.673  48.245  1.00  0.00     0.043 C 
HETATM   10  C11 UNL     1      31.791   9.799  48.165  1.00  0.00     0.041 C 
HETATM   11  C12 UNL     1      32.397   8.787  47.214  1.00  0.00     0.061 A 
HETATM   12  C13 UNL     1      33.877   8.958  47.220  1.00  0.00     0.005 A 
HETATM   13  C14 UNL     1      34.652   9.224  46.181  1.00  0.00    -0.002 A 
HETATM   14  C15 UNL     1      34.077   9.381  44.853  1.00  0.00    -0.004 A 
HETATM   15  C16 UNL     1      32.764   9.241  44.785  1.00  0.00    -0.024 A 
HETATM   16  C17 UNL     1      31.770   8.943  45.870  1.00  0.00     0.063 A 
ENDROOT
BRANCH   1  17
HETATM   17  C3  UNL     1      33.055   6.495  47.957  1.00  0.00     0.176 A 
HETATM   18  S1  UNL     1      33.345   5.476  46.383  1.00  0.00    -0.059 SA
HETATM   19  C2  UNL     1      34.663   4.485  47.275  1.00  0.00     0.111 A 
HETATM   20  C1  UNL     1      34.661   5.061  48.544  1.00  0.00     0.171 A 
HETATM   21  N2  UNL     1      33.803   6.050  48.722  1.00  0.00    -0.200 NA
BRANCH  20  22
HETATM   22  O1  UNL     1      35.416   4.789  49.707  1.00  0.00    -0.344 OA
HETATM   23  H1  UNL     1      35.734   3.818  49.777  1.00  0.00     0.219 HD
ENDBRANCH  20  22
ENDBRANCH   1  17
TORSDOF 2
ENDMDL
MODEL 9
REMARK VINA RESULT:      -6.6      9.026     11.103
REMARK  2 active torsions:
REMARK  status: ('A' for Active; 'I' for Inactive)
REMARK    1  A    between atoms: O1_1  and  C1_2 
REMARK    2  A    between atoms: C3_5  and  N1_6 
ROOT
HETATM    1  N1  UNL     1      31.463   6.825  46.853  1.00  0.00    -0.311 N 
HETATM    2  C4  UNL     1      32.543   5.967  46.592  1.00  0.00     0.047 A 
HETATM    3  C5  UNL     1      32.924   5.711  45.294  1.00  0.00     0.072 A 
HETATM    4  C6  UNL     1      34.003   4.851  45.109  1.00  0.00     0.118 A 
HETATM    5  F1  UNL     1      34.382   4.594  43.832  1.00  0.00    -0.206 F 
HETATM    6  C7  UNL     1      34.633   4.302  46.200  1.00  0.00     0.043 A 
HETATM    7  C8  UNL     1      34.238   4.569  47.515  1.00  0.00     0.012 A 
HETATM    8  C9  UNL     1      33.153   5.434  47.702  1.00  0.00    -0.031 A 
HETATM    9  C10 UNL     1      32.754   5.703  49.102  1.00  0.00     0.043 C 
HETATM   10  C11 UNL     1      31.740   6.785  49.206  1.00  0.00     0.041 C 
HETATM   11  C12 UNL     1      30.718   6.714  48.090  1.00  0.00     0.061 A 
HETATM   12  C13 UNL     1      29.765   7.849  48.248  1.00  0.00     0.005 A 
HETATM   13  C14 UNL     1      28.452   7.771  48.390  1.00  0.00    -0.002 A 
HETATM   14  C15 UNL     1      27.787   6.477  48.405  1.00  0.00    -0.004 A 
HETATM   15  C16 UNL     1      28.583   5.430  48.269  1.00  0.00    -0.024 A 
HETATM   16  C17 UNL     1      30.073   5.369  48.102  1.00  0.00     0.063 A 
ENDROOT
BRANCH   1  17
HETATM   17  C3  UNL     1      31.076   7.837  45.887  1.00  0.00     0.176 A 
HETATM   18  S1  UNL     1      32.263   9.313  45.991  1.00  0.00    -0.059 SA
HETATM   19  C2  UNL     1      31.306  10.172  44.627  1.00  0.00     0.111 A 
HETATM   20  C1  UNL     1      30.304   9.247  44.340  1.00  0.00     0.171 A 
HETATM   21  N2  UNL     1      30.328   8.136  45.054  1.00  0.00    -0.200 NA
BRANCH  20  22
HETATM   22  O1  UNL     1      29.240   9.264  43.410  1.00  0.00    -0.344 OA
HETATM   23  H1  UNL     1      29.510   8.969  42.466  1.00  0.00     0.219 HD
ENDBRANCH  20  22
ENDBRANCH   1  17
TORSDOF 2
ENDMDL
