MODEL 1
REMARK VINA RESULT:      -7.6      0.000      0.000
REMARK  7 active torsions:
REMARK  status: ('A' for Active; 'I' for Inactive)
REMARK    1  A    between atoms: C2_2  and  N1_3 
REMARK    2  A    between atoms: N1_3  and  S1_4 
REMARK    3  A    between atoms: N1_3  and  N2_5 
REMARK    4  A    between atoms: N2_5  and  N3_6 
REMARK    5  A    between atoms: N3_6  and  C4_8 
REMARK    6  A    between atoms: C4_8  and  C5_9 
REMARK    7  A    between atoms: C10_15  and  C11_16 
ROOT
HETATM    1  C5  UNL     1      23.996  -0.218  53.907  1.00  0.00    -0.033 A 
HETATM    2  C6  UNL     1      23.629  -1.117  54.883  1.00  0.00     0.012 A 
HETATM    3  C7  UNL     1      22.340  -1.588  54.959  1.00  0.00     0.043 A 
HETATM    4  C8  UNL     1      21.405  -1.157  54.048  1.00  0.00     0.117 A 
HETATM    5  F1  UNL     1      20.137  -1.626  54.129  1.00  0.00    -0.206 F 
HETATM    6  C9  UNL     1      21.808  -0.261  53.088  1.00  0.00     0.055 A 
HETATM    7  C10 UNL     1      23.107   0.244  52.974  1.00  0.00    -0.015 A 
ENDROOT
BRANCH   1   8
HETATM    8  C4  UNL     1      25.368   0.271  53.881  1.00  0.00     0.148 C 
BRANCH   8   9
HETATM    9  N3  UNL     1      26.302  -0.849  53.923  1.00  0.00    -0.237 NA
HETATM   10  C3  UNL     1      26.617  -1.320  52.591  1.00  0.00     0.132 C 
BRANCH   9  11
HETATM   11  N2  UNL     1      27.464  -0.548  54.609  1.00  0.00    -0.179 NA
HETATM   12  H7  UNL     1      27.348  -0.054  55.503  1.00  0.00     0.161 HD
BRANCH  11  13
HETATM   13  N1  UNL     1      28.473  -0.018  53.800  1.00  0.00    -0.181 NA
BRANCH  13  14
HETATM   14  C2  UNL     1      28.968   1.246  54.317  1.00  0.00     0.118 C 
HETATM   15  C1  UNL     1      28.350   2.342  53.461  1.00  0.00     0.023 C 
ENDBRANCH  13  14
BRANCH  13  16
HETATM   16  S1  UNL     1      29.800  -1.174  53.603  1.00  0.00    -0.079 SA
HETATM   17  H6  UNL     1      29.481  -2.303  54.408  1.00  0.00     0.121 HD
ENDBRANCH  13  16
ENDBRANCH  11  13
ENDBRANCH   9  11
ENDBRANCH   8   9
ENDBRANCH   1   8
BRANCH   7  18
HETATM   18  C11 UNL     1      23.338   1.162  51.875  1.00  0.00    -0.025 A 
HETATM   19  C12 UNL     1      24.306   2.102  51.602  1.00  0.00     0.012 A 
HETATM   20  C13 UNL     1      24.262   2.876  50.463  1.00  0.00     0.001 A 
HETATM   21  C14 UNL     1      23.249   2.741  49.550  1.00  0.00     0.000 A 
HETATM   22  C15 UNL     1      22.264   1.818  49.780  1.00  0.00     0.001 A 
HETATM   23  C16 UNL     1      22.312   1.044  50.927  1.00  0.00     0.012 A 
ENDBRANCH   7  18
TORSDOF 7
ENDMDL
MODEL 2
REMARK VINA RESULT:      -7.4      1.933      4.306
REMARK  7 active torsions:
REMARK  status: ('A' for Active; 'I' for Inactive)
REMARK    1  A    between atoms: C2_2  and  N1_3 
REMARK    2  A    between atoms: N1_3  and  S1_4 
REMARK    3  A    between atoms: N1_3  and  N2_5 
REMARK    4  A    between atoms: N2_5  and  N3_6 
REMARK    5  A    between atoms: N3_6  and  C4_8 
REMARK    6  A    between atoms: C4_8  and  C5_9 
REMARK    7  A    between atoms: C10_15  and  C11_16 
ROOT
HETATM    1  C5  UNL     1      24.938   2.308  52.360  1.00  0.00    -0.033 A 
HETATM    2  C6  UNL     1      25.396   3.141  51.363  1.00  0.00     0.012 A 
HETATM    3  C7  UNL     1      24.751   3.211  50.151  1.00  0.00     0.043 A 
HETATM    4  C8  UNL     1      23.633   2.440  49.931  1.00  0.00     0.117 A 
HETATM    5  F1  UNL     1      23.003   2.515  48.734  1.00  0.00    -0.206 F 
HETATM    6  C9  UNL     1      23.206   1.623  50.949  1.00  0.00     0.055 A 
HETATM    7  C10 UNL     1      23.831   1.520  52.196  1.00  0.00    -0.015 A 
ENDROOT
BRANCH   1   8
HETATM    8  C4  UNL     1      25.669   2.250  53.619  1.00  0.00     0.148 C 
BRANCH   8   9
HETATM    9  N3  UNL     1      26.928   1.538  53.437  1.00  0.00    -0.237 NA
HETATM   10  C3  UNL     1      28.055   2.446  53.478  1.00  0.00     0.132 C 
BRANCH   9  11
HETATM   11  N2  UNL     1      27.103   0.520  54.356  1.00  0.00    -0.179 NA
HETATM   12  H7  UNL     1      27.603   0.770  55.219  1.00  0.00     0.161 HD
BRANCH  11  13
HETATM   13  N1  UNL     1      27.528  -0.683  53.788  1.00  0.00    -0.181 NA
BRANCH  13  14
HETATM   14  C2  UNL     1      27.011  -0.853  52.440  1.00  0.00     0.118 C 
HETATM   15  C1  UNL     1      26.798  -2.347  52.237  1.00  0.00     0.023 C 
ENDBRANCH  13  14
BRANCH  13  16
HETATM   16  S1  UNL     1      29.295  -0.799  53.798  1.00  0.00    -0.079 SA
HETATM   17  H6  UNL     1      29.696  -0.805  55.163  1.00  0.00     0.121 HD
ENDBRANCH  13  16
ENDBRANCH  11  13
ENDBRANCH   9  11
ENDBRANCH   8   9
ENDBRANCH   1   8
BRANCH   7  18
HETATM   18  C11 UNL     1      23.209   0.617  53.145  1.00  0.00    -0.025 A 
HETATM   19  C12 UNL     1      23.648  -0.483  53.846  1.00  0.00     0.012 A 
HETATM   20  C13 UNL     1      22.811  -1.190  54.683  1.00  0.00     0.001 A 
HETATM   21  C14 UNL     1      21.502  -0.823  54.854  1.00  0.00     0.000 A 
HETATM   22  C15 UNL     1      21.021   0.266  54.177  1.00  0.00     0.001 A 
HETATM   23  C16 UNL     1      21.866   0.971  53.336  1.00  0.00     0.012 A 
ENDBRANCH   7  18
TORSDOF 7
ENDMDL
MODEL 3
REMARK VINA RESULT:      -7.4      3.090      5.146
REMARK  7 active torsions:
REMARK  status: ('A' for Active; 'I' for Inactive)
REMARK    1  A    between atoms: C2_2  and  N1_3 
REMARK    2  A    between atoms: N1_3  and  S1_4 
REMARK    3  A    between atoms: N1_3  and  N2_5 
REMARK    4  A    between atoms: N2_5  and  N3_6 
REMARK    5  A    between atoms: N3_6  and  C4_8 
REMARK    6  A    between atoms: C4_8  and  C5_9 
REMARK    7  A    between atoms: C10_15  and  C11_16 
ROOT
HETATM    1  C5  UNL     1      24.020   0.703  52.572  1.00  0.00    -0.033 A 
HETATM    2  C6  UNL     1      22.655   0.866  52.659  1.00  0.00     0.012 A 
HETATM    3  C7  UNL     1      21.923   0.187  53.603  1.00  0.00     0.043 A 
HETATM    4  C8  UNL     1      22.562  -0.665  54.474  1.00  0.00     0.117 A 
HETATM    5  F1  UNL     1      21.833  -1.330  55.402  1.00  0.00    -0.206 F 
HETATM    6  C9  UNL     1      23.923  -0.800  54.357  1.00  0.00     0.055 A 
HETATM    7  C10 UNL     1      24.707  -0.130  53.413  1.00  0.00    -0.015 A 
ENDROOT
BRANCH   1   8
HETATM    8  C4  UNL     1      24.750   1.426  51.539  1.00  0.00     0.148 C 
BRANCH   8   9
HETATM    9  N3  UNL     1      25.464   2.555  52.124  1.00  0.00    -0.237 NA
HETATM   10  C3  UNL     1      26.816   2.644  51.614  1.00  0.00     0.132 C 
BRANCH   9  11
HETATM   11  N2  UNL     1      24.805   3.757  51.939  1.00  0.00    -0.179 NA
HETATM   12  H7  UNL     1      24.297   4.125  52.755  1.00  0.00     0.161 HD
BRANCH  11  13
HETATM   13  N1  UNL     1      24.079   3.822  50.747  1.00  0.00    -0.181 NA
BRANCH  13  14
HETATM   14  C2  UNL     1      22.688   4.167  50.983  1.00  0.00     0.118 C 
HETATM   15  C1  UNL     1      22.614   4.759  52.383  1.00  0.00     0.023 C 
ENDBRANCH  13  14
BRANCH  13  16
HETATM   16  S1  UNL     1      24.822   4.963  49.615  1.00  0.00    -0.079 SA
HETATM   17  H6  UNL     1      26.204   4.630  49.547  1.00  0.00     0.121 HD
ENDBRANCH  13  16
ENDBRANCH  11  13
ENDBRANCH   9  11
ENDBRANCH   8   9
ENDBRANCH   1   8
BRANCH   7  18
HETATM   18  C11 UNL     1      26.132  -0.391  53.469  1.00  0.00    -0.025 A 
HETATM   19  C12 UNL     1      26.992  -1.169  52.726  1.00  0.00     0.012 A 
HETATM   20  C13 UNL     1      28.334  -1.254  53.028  1.00  0.00     0.001 A 
HETATM   21  C14 UNL     1      28.871  -0.565  54.084  1.00  0.00     0.000 A 
HETATM   22  C15 UNL     1      28.053   0.221  54.851  1.00  0.00     0.001 A 
HETATM   23  C16 UNL     1      26.706   0.303  54.544  1.00  0.00     0.012 A 
ENDBRANCH   7  18
TORSDOF 7
ENDMDL
MODEL 4
REMARK VINA RESULT:      -7.4      3.597      5.396
REMARK  7 active torsions:
REMARK  status: ('A' for Active; 'I' for Inactive)
REMARK    1  A    between atoms: C2_2  and  N1_3 
REMARK    2  A    between atoms: N1_3  and  S1_4 
REMARK    3  A    between atoms: N1_3  and  N2_5 
REMARK    4  A    between atoms: N2_5  and  N3_6 
REMARK    5  A    between atoms: N3_6  and  C4_8 
REMARK    6  A    between atoms: C4_8  and  C5_9 
REMARK    7  A    between atoms: C10_15  and  C11_16 
ROOT
HETATM    1  C5  UNL     1      25.294   1.532  52.979  1.00  0.00    -0.033 A 
HETATM    2  C6  UNL     1      26.648   1.733  52.829  1.00  0.00     0.012 A 
HETATM    3  C7  UNL     1      27.519   0.671  52.798  1.00  0.00     0.043 A 
HETATM    4  C8  UNL     1      27.032  -0.610  52.918  1.00  0.00     0.117 A 
HETATM    5  F1  UNL     1      27.897  -1.652  52.887  1.00  0.00    -0.206 F 
HETATM    6  C9  UNL     1      25.676  -0.771  53.066  1.00  0.00     0.055 A 
HETATM    7  C10 UNL     1      24.755   0.280  53.102  1.00  0.00    -0.015 A 
ENDROOT
BRANCH   1   8
HETATM    8  C4  UNL     1      24.412   2.692  53.030  1.00  0.00     0.148 C 
BRANCH   8   9
HETATM    9  N3  UNL     1      24.218   3.234  51.690  1.00  0.00    -0.237 NA
HETATM   10  C3  UNL     1      22.812   3.374  51.378  1.00  0.00     0.132 C 
BRANCH   9  11
HETATM   11  N2  UNL     1      24.870   4.440  51.504  1.00  0.00    -0.179 NA
HETATM   12  H7  UNL     1      24.472   5.250  51.998  1.00  0.00     0.161 HD
BRANCH  11  13
HETATM   13  N1  UNL     1      25.201   4.700  50.171  1.00  0.00    -0.181 NA
BRANCH  13  14
HETATM   14  C2  UNL     1      25.580   6.088  49.973  1.00  0.00     0.118 C 
HETATM   15  C1  UNL     1      26.406   6.138  48.694  1.00  0.00     0.023 C 
ENDBRANCH  13  14
BRANCH  13  16
HETATM   16  S1  UNL     1      26.485   3.615  49.615  1.00  0.00    -0.079 SA
HETATM   17  H6  UNL     1      26.214   3.327  48.249  1.00  0.00     0.121 HD
ENDBRANCH  13  16
ENDBRANCH  11  13
ENDBRANCH   9  11
ENDBRANCH   8   9
ENDBRANCH   1   8
BRANCH   7  18
HETATM   18  C11 UNL     1      23.362  -0.100  53.240  1.00  0.00    -0.025 A 
HETATM   19  C12 UNL     1      22.238   0.095  52.470  1.00  0.00     0.012 A 
HETATM   20  C13 UNL     1      21.000  -0.365  52.867  1.00  0.00     0.001 A 
HETATM   21  C14 UNL     1      20.838  -1.040  54.049  1.00  0.00     0.000 A 
HETATM   22  C15 UNL     1      21.929  -1.256  54.848  1.00  0.00     0.001 A 
HETATM   23  C16 UNL     1      23.169  -0.791  54.445  1.00  0.00     0.012 A 
ENDBRANCH   7  18
TORSDOF 7
ENDMDL
MODEL 5
REMARK VINA RESULT:      -7.4      3.264      4.967
REMARK  7 active torsions:
REMARK  status: ('A' for Active; 'I' for Inactive)
REMARK    1  A    between atoms: C2_2  and  N1_3 
REMARK    2  A    between atoms: N1_3  and  S1_4 
REMARK    3  A    between atoms: N1_3  and  N2_5 
REMARK    4  A    between atoms: N2_5  and  N3_6 
REMARK    5  A    between atoms: N3_6  and  C4_8 
REMARK    6  A    between atoms: C4_8  and  C5_9 
REMARK    7  A    between atoms: C10_15  and  C11_16 
ROOT
HETATM    1  C5  UNL     1      23.645   0.687  52.472  1.00  0.00    -0.033 A 
HETATM    2  C6  UNL     1      22.278   0.647  52.311  1.00  0.00     0.012 A 
HETATM    3  C7  UNL     1      21.499  -0.168  53.097  1.00  0.00     0.043 A 
HETATM    4  C8  UNL     1      22.092  -0.953  54.058  1.00  0.00     0.117 A 
HETATM    5  F1  UNL     1      21.317  -1.753  54.830  1.00  0.00    -0.206 F 
HETATM    6  C9  UNL     1      23.457  -0.884  54.190  1.00  0.00     0.055 A 
HETATM    7  C10 UNL     1      24.287  -0.071  53.413  1.00  0.00    -0.015 A 
ENDROOT
BRANCH   1   8
HETATM    8  C4  UNL     1      24.431   1.549  51.599  1.00  0.00     0.148 C 
BRANCH   8   9
HETATM    9  N3  UNL     1      23.797   2.857  51.481  1.00  0.00    -0.237 NA
HETATM   10  C3  UNL     1      24.064   3.677  52.644  1.00  0.00     0.132 C 
BRANCH   9  11
HETATM   11  N2  UNL     1      24.169   3.528  50.330  1.00  0.00    -0.179 NA
HETATM   12  H7  UNL     1      24.050   3.014  49.448  1.00  0.00     0.161 HD
BRANCH  11  13
HETATM   13  N1  UNL     1      25.397   4.187  50.436  1.00  0.00    -0.181 NA
BRANCH  13  14
HETATM   14  C2  UNL     1      26.433   3.520  49.668  1.00  0.00     0.118 C 
HETATM   15  C1  UNL     1      27.194   4.607  48.920  1.00  0.00     0.023 C 
ENDBRANCH  13  14
BRANCH  13  16
HETATM   16  S1  UNL     1      25.249   5.882  49.947  1.00  0.00    -0.079 SA
HETATM   17  H6  UNL     1      25.146   6.646  51.143  1.00  0.00     0.121 HD
ENDBRANCH  13  16
ENDBRANCH  11  13
ENDBRANCH   9  11
ENDBRANCH   8   9
ENDBRANCH   1   8
BRANCH   7  18
HETATM   18  C11 UNL     1      25.703  -0.125  53.726  1.00  0.00    -0.025 A 
HETATM   19  C12 UNL     1      26.506   0.528  54.633  1.00  0.00     0.012 A 
HETATM   20  C13 UNL     1      27.863   0.296  54.696  1.00  0.00     0.001 A 
HETATM   21  C14 UNL     1      28.471  -0.598  53.854  1.00  0.00     0.000 A 
HETATM   22  C15 UNL     1      27.711  -1.271  52.935  1.00  0.00     0.001 A 
HETATM   23  C16 UNL     1      26.349  -1.033  52.875  1.00  0.00     0.012 A 
ENDBRANCH   7  18
TORSDOF 7
ENDMDL
MODEL 6
REMARK VINA RESULT:      -7.2      3.968      5.799
REMARK  7 active torsions:
REMARK  status: ('A' for Active; 'I' for Inactive)
REMARK    1  A    between atoms: C2_2  and  N1_3 
REMARK    2  A    between atoms: N1_3  and  S1_4 
REMARK    3  A    between atoms: N1_3  and  N2_5 
REMARK    4  A    between atoms: N2_5  and  N3_6 
REMARK    5  A    between atoms: N3_6  and  C4_8 
REMARK    6  A    between atoms: C4_8  and  C5_9 
REMARK    7  A    between atoms: C10_15  and  C11_16 
ROOT
HETATM    1  C5  UNL     1      25.291   1.542  52.891  1.00  0.00    -0.033 A 
HETATM    2  C6  UNL     1      26.639   1.754  52.706  1.00  0.00     0.012 A 
HETATM    3  C7  UNL     1      27.523   0.702  52.692  1.00  0.00     0.043 A 
HETATM    4  C8  UNL     1      27.055  -0.580  52.865  1.00  0.00     0.117 A 
HETATM    5  F1  UNL     1      27.932  -1.612  52.849  1.00  0.00    -0.206 F 
HETATM    6  C9  UNL     1      25.705  -0.752  53.045  1.00  0.00     0.055 A 
HETATM    7  C10 UNL     1      24.771   0.288  53.066  1.00  0.00    -0.015 A 
ENDROOT
BRANCH   1   8
HETATM    8  C4  UNL     1      24.396   2.691  52.921  1.00  0.00     0.148 C 
BRANCH   8   9
HETATM    9  N3  UNL     1      24.519   3.457  51.686  1.00  0.00    -0.237 NA
HETATM   10  C3  UNL     1      23.656   2.927  50.652  1.00  0.00     0.132 C 
BRANCH   9  11
HETATM   11  N2  UNL     1      24.272   4.806  51.868  1.00  0.00    -0.179 NA
HETATM   12  H7  UNL     1      23.659   5.052  52.657  1.00  0.00     0.161 HD
BRANCH  11  13
HETATM   13  N1  UNL     1      23.968   5.485  50.685  1.00  0.00    -0.181 NA
BRANCH  13  14
HETATM   14  C2  UNL     1      22.975   6.523  50.902  1.00  0.00     0.118 C 
HETATM   15  C1  UNL     1      23.677   7.856  50.680  1.00  0.00     0.023 C 
ENDBRANCH  13  14
BRANCH  13  16
HETATM   16  S1  UNL     1      25.429   6.163  49.951  1.00  0.00    -0.079 SA
HETATM   17  H6  UNL     1      26.536   5.593  50.641  1.00  0.00     0.121 HD
ENDBRANCH  13  16
ENDBRANCH  11  13
ENDBRANCH   9  11
ENDBRANCH   8   9
ENDBRANCH   1   8
BRANCH   7  18
HETATM   18  C11 UNL     1      23.386  -0.104  53.245  1.00  0.00    -0.025 A 
HETATM   19  C12 UNL     1      22.237   0.081  52.509  1.00  0.00     0.012 A 
HETATM   20  C13 UNL     1      21.017  -0.390  52.943  1.00  0.00     0.001 A 
HETATM   21  C14 UNL     1      20.896  -1.066  54.129  1.00  0.00     0.000 A 
HETATM   22  C15 UNL     1      22.012  -1.273  54.894  1.00  0.00     0.001 A 
HETATM   23  C16 UNL     1      23.235  -0.797  54.455  1.00  0.00     0.012 A 
ENDBRANCH   7  18
TORSDOF 7
ENDMDL
MODEL 7
REMARK VINA RESULT:      -7.1      3.969      6.671
REMARK  7 active torsions:
REMARK  status: ('A' for Active; 'I' for Inactive)
REMARK    1  A    between atoms: C2_2  and  N1_3 
REMARK    2  A    between atoms: N1_3  and  S1_4 
REMARK    3  A    between atoms: N1_3  and  N2_5 
REMARK    4  A    between atoms: N2_5  and  N3_6 
REMARK    5  A    between atoms: N3_6  and  C4_8 
REMARK    6  A    between atoms: C4_8  and  C5_9 
REMARK    7  A    between atoms: C10_15  and  C11_16 
ROOT
HETATM    1  C5  UNL     1      24.813   2.576  51.909  1.00  0.00    -0.033 A 
HETATM    2  C6  UNL     1      24.129   3.510  51.164  1.00  0.00     0.012 A 
HETATM    3  C7  UNL     1      24.721   4.122  50.085  1.00  0.00     0.043 A 
HETATM    4  C8  UNL     1      26.014   3.796  49.745  1.00  0.00     0.117 A 
HETATM    5  F1  UNL     1      26.590   4.403  48.680  1.00  0.00    -0.206 F 
HETATM    6  C9  UNL     1      26.662   2.860  50.511  1.00  0.00     0.055 A 
HETATM    7  C10 UNL     1      26.099   2.213  51.615  1.00  0.00    -0.015 A 
ENDROOT
BRANCH   1   8
HETATM    8  C4  UNL     1      24.151   1.972  53.058  1.00  0.00     0.148 C 
BRANCH   8   9
HETATM    9  N3  UNL     1      23.279   0.887  52.623  1.00  0.00    -0.237 NA
HETATM   10  C3  UNL     1      23.602  -0.351  53.301  1.00  0.00     0.132 C 
BRANCH   9  11
HETATM   11  N2  UNL     1      21.938   1.182  52.785  1.00  0.00    -0.179 NA
HETATM   12  H7  UNL     1      21.369   0.465  53.254  1.00  0.00     0.161 HD
BRANCH  11  13
HETATM   13  N1  UNL     1      21.338   1.717  51.642  1.00  0.00    -0.181 NA
BRANCH  13  14
HETATM   14  C2  UNL     1      20.795   0.678  50.784  1.00  0.00     0.118 C 
HETATM   15  C1  UNL     1      21.404   0.885  49.404  1.00  0.00     0.023 C 
ENDBRANCH  13  14
BRANCH  13  16
HETATM   16  S1  UNL     1      20.084   2.890  52.074  1.00  0.00    -0.079 SA
HETATM   17  H6  UNL     1      19.963   3.782  50.972  1.00  0.00     0.121 HD
ENDBRANCH  13  16
ENDBRANCH  11  13
ENDBRANCH   9  11
ENDBRANCH   8   9
ENDBRANCH   1   8
BRANCH   7  18
HETATM   18  C11 UNL     1      26.942   1.236  52.278  1.00  0.00    -0.025 A 
HETATM   19  C12 UNL     1      26.989  -0.140  52.281  1.00  0.00     0.012 A 
HETATM   20  C13 UNL     1      27.903  -0.830  53.047  1.00  0.00     0.001 A 
HETATM   21  C14 UNL     1      28.807  -0.173  53.840  1.00  0.00     0.000 A 
HETATM   22  C15 UNL     1      28.797   1.195  53.869  1.00  0.00     0.001 A 
HETATM   23  C16 UNL     1      27.876   1.884  53.098  1.00  0.00     0.012 A 
ENDBRANCH   7  18
TORSDOF 7
ENDMDL
MODEL 8
REMARK VINA RESULT:      -6.7      4.139      6.291
REMARK  7 active torsions:
REMARK  status: ('A' for Active; 'I' for Inactive)
REMARK    1  A    between atoms: C2_2  and  N1_3 
REMARK    2  A    between atoms: N1_3  and  S1_4 
REMARK    3  A    between atoms: N1_3  and  N2_5 
REMARK    4  A    between atoms: N2_5  and  N3_6 
REMARK    5  A    between atoms: N3_6  and  C4_8 
REMARK    6  A    between atoms: C4_8  and  C5_9 
REMARK    7  A    between atoms: C10_15  and  C11_16 
ROOT
HETATM    1  C5  UNL     1      24.417   1.890  51.983  1.00  0.00    -0.033 A 
HETATM    2  C6  UNL     1      25.641   2.348  51.548  1.00  0.00     0.012 A 
HETATM    3  C7  UNL     1      26.776   1.589  51.711  1.00  0.00     0.043 A 
HETATM    4  C8  UNL     1      26.687   0.357  52.315  1.00  0.00     0.117 A 
HETATM    5  F1  UNL     1      27.810  -0.385  52.471  1.00  0.00    -0.206 F 
HETATM    6  C9  UNL     1      25.450  -0.066  52.734  1.00  0.00     0.055 A 
HETATM    7  C10 UNL     1      24.271   0.672  52.590  1.00  0.00    -0.015 A 
ENDROOT
BRANCH   1   8
HETATM    8  C4  UNL     1      23.247   2.741  51.810  1.00  0.00     0.148 C 
BRANCH   8   9
HETATM    9  N3  UNL     1      23.142   3.175  50.422  1.00  0.00    -0.237 NA
HETATM   10  C3  UNL     1      22.403   2.217  49.626  1.00  0.00     0.132 C 
BRANCH   9  11
HETATM   11  N2  UNL     1      22.580   4.432  50.297  1.00  0.00    -0.179 NA
HETATM   12  H7  UNL     1      21.620   4.465  49.927  1.00  0.00     0.161 HD
BRANCH  11  13
HETATM   13  N1  UNL     1      23.436   5.376  49.725  1.00  0.00    -0.181 NA
BRANCH  13  14
HETATM   14  C2  UNL     1      22.756   6.185  48.729  1.00  0.00     0.118 C 
HETATM   15  C1  UNL     1      22.649   5.334  47.471  1.00  0.00     0.023 C 
ENDBRANCH  13  14
BRANCH  13  16
HETATM   16  S1  UNL     1      24.169   6.402  50.969  1.00  0.00    -0.079 SA
HETATM   17  H6  UNL     1      25.552   6.073  51.007  1.00  0.00     0.121 HD
ENDBRANCH  13  16
ENDBRANCH  11  13
ENDBRANCH   9  11
ENDBRANCH   8   9
ENDBRANCH   1   8
BRANCH   7  18
HETATM   18  C11 UNL     1      23.061   0.038  53.077  1.00  0.00    -0.025 A 
HETATM   19  C12 UNL     1      21.750   0.035  52.659  1.00  0.00     0.012 A 
HETATM   20  C13 UNL     1      20.773  -0.653  53.347  1.00  0.00     0.001 A 
HETATM   21  C14 UNL     1      21.069  -1.365  54.479  1.00  0.00     0.000 A 
HETATM   22  C15 UNL     1      22.360  -1.389  54.933  1.00  0.00     0.001 A 
HETATM   23  C16 UNL     1      23.337  -0.696  54.239  1.00  0.00     0.012 A 
ENDBRANCH   7  18
TORSDOF 7
ENDMDL
MODEL 9
REMARK VINA RESULT:      -6.7      4.093      5.548
REMARK  7 active torsions:
REMARK  status: ('A' for Active; 'I' for Inactive)
REMARK    1  A    between atoms: C2_2  and  N1_3 
REMARK    2  A    between atoms: N1_3  and  S1_4 
REMARK    3  A    between atoms: N1_3  and  N2_5 
REMARK    4  A    between atoms: N2_5  and  N3_6 
REMARK    5  A    between atoms: N3_6  and  C4_8 
REMARK    6  A    between atoms: C4_8  and  C5_9 
REMARK    7  A    between atoms: C10_15  and  C11_16 
ROOT
HETATM    1  C5  UNL     1      24.471   1.933  51.647  1.00  0.00    -0.033 A 
HETATM    2  C6  UNL     1      25.824   2.005  51.400  1.00  0.00     0.012 A 
HETATM    3  C7  UNL     1      26.675   1.018  51.836  1.00  0.00     0.043 A 
HETATM    4  C8  UNL     1      26.168  -0.057  52.529  1.00  0.00     0.117 A 
HETATM    5  F1  UNL     1      27.013  -1.027  52.955  1.00  0.00    -0.206 F 
HETATM    6  C9  UNL     1      24.815  -0.095  52.755  1.00  0.00     0.055 A 
HETATM    7  C10 UNL     1      23.914   0.886  52.330  1.00  0.00    -0.015 A 
ENDROOT
BRANCH   1   8
HETATM    8  C4  UNL     1      23.613   3.016  51.185  1.00  0.00     0.148 C 
BRANCH   8   9
HETATM    9  N3  UNL     1      23.903   3.326  49.790  1.00  0.00    -0.237 NA
HETATM   10  C3  UNL     1      22.972   2.665  48.900  1.00  0.00     0.132 C 
BRANCH   9  11
HETATM   11  N2  UNL     1      23.919   4.686  49.538  1.00  0.00    -0.179 NA
HETATM   12  H7  UNL     1      23.622   4.976  48.597  1.00  0.00     0.161 HD
BRANCH  11  13
HETATM   13  N1  UNL     1      25.077   5.327  49.986  1.00  0.00    -0.181 NA
BRANCH  13  14
HETATM   14  C2  UNL     1      26.011   5.570  48.899  1.00  0.00     0.118 C 
HETATM   15  C1  UNL     1      27.110   4.524  49.024  1.00  0.00     0.023 C 
ENDBRANCH  13  14
BRANCH  13  16
HETATM   16  S1  UNL     1      24.683   6.838  50.820  1.00  0.00    -0.079 SA
HETATM   17  H6  UNL     1      25.604   7.815  50.352  1.00  0.00     0.121 HD
ENDBRANCH  13  16
ENDBRANCH  11  13
ENDBRANCH   9  11
ENDBRANCH   8   9
ENDBRANCH   1   8
BRANCH   7  18
HETATM   18  C11 UNL     1      22.519   0.648  52.647  1.00  0.00    -0.025 A 
HETATM   19  C12 UNL     1      21.810   0.547  53.824  1.00  0.00     0.012 A 
HETATM   20  C13 UNL     1      20.458   0.281  53.833  1.00  0.00     0.001 A 
HETATM   21  C14 UNL     1      19.760   0.106  52.667  1.00  0.00     0.000 A 
HETATM   22  C15 UNL     1      20.423   0.198  51.473  1.00  0.00     0.001 A 
HETATM   23  C16 UNL     1      21.782   0.464  51.469  1.00  0.00     0.012 A 
ENDBRANCH   7  18
TORSDOF 7
ENDMDL
