MODEL 1
REMARK VINA RESULT:      -7.9      0.000      0.000
REMARK  3 active torsions:
REMARK  status: ('A' for Active; 'I' for Inactive)
REMARK    1  A    between atoms: C6_10  and  N3_11 
REMARK    2  A    between atoms: N3_11  and  C7_12 
REMARK    3  A    between atoms: C13_20  and  C14_21 
ROOT
HETATM    1  C1  UNL     1      21.701   4.872  52.460  1.00  0.00     0.046 C 
HETATM    2  C2  UNL     1      21.284   3.603  51.799  1.00  0.00     0.175 C 
HETATM    3  O1  UNL     1      20.129   3.061  52.519  1.00  0.00    -0.300 OA
HETATM    4  C3  UNL     1      20.332   1.929  52.990  1.00  0.00     0.005 C 
HETATM    5  P1  UNL     1      20.566   0.770  53.467  1.00  0.00     0.005 P 
HETATM    6  C4  UNL     1      21.063  -1.461  54.374  1.00  0.00     0.068 C 
HETATM    7  N1  UNL     1      22.225  -1.705  53.698  1.00  0.00    -0.292 NA
HETATM    8  C5  UNL     1      22.688  -0.666  52.775  1.00  0.00     0.378 C 
HETATM    9  N2  UNL     1      22.728   0.609  53.159  1.00  0.00    -0.246 NA
HETATM   10  C6  UNL     1      23.167   1.586  52.208  1.00  0.00     0.136 C 
HETATM   11  C13 UNL     1      22.465   2.669  51.815  1.00  0.00     0.052 C 
HETATM   12  H5  UNL     1      20.647   0.318  53.657  1.00  0.00     0.077 HD
ENDROOT
BRANCH  10  13
HETATM   13  N3  UNL     1      24.417   1.140  51.797  1.00  0.00    -0.341 N 
HETATM   14  H8  UNL     1      24.215   1.056  50.760  1.00  0.00     0.167 HD
BRANCH  13  15
HETATM   15  C7  UNL     1      25.600   0.842  52.481  1.00  0.00     0.035 A 
HETATM   16  C8  UNL     1      25.887   1.903  53.366  1.00  0.00     0.032 A 
HETATM   17  C9  UNL     1      27.034   1.810  54.168  1.00  0.00     0.046 A 
HETATM   18  C10 UNL     1      27.879   0.744  54.127  1.00  0.00     0.138 A 
HETATM   19  F1  UNL     1      29.001   0.593  54.877  1.00  0.00    -0.204 F 
HETATM   20  C11 UNL     1      27.607  -0.306  53.258  1.00  0.00     0.074 A 
HETATM   21 CL1  UNL     1      28.590  -1.741  53.086  1.00  0.00    -0.081 Cl
HETATM   22  C12 UNL     1      26.496  -0.200  52.492  1.00  0.00     0.056 A 
ENDBRANCH  13  15
ENDBRANCH  10  13
BRANCH  11  23
HETATM   23  C14 UNL     1      23.444   3.338  50.858  1.00  0.00     0.103 C 
HETATM   24  C15 UNL     1      23.373   3.537  49.559  1.00  0.00     0.172 C 
HETATM   25  O2  UNL     1      24.199   4.137  48.578  1.00  0.00    -0.358 OA
HETATM   26  C16 UNL     1      25.010   5.230  49.014  1.00  0.00     0.201 C 
HETATM   27  C17 UNL     1      24.899   5.271  50.519  1.00  0.00     0.202 C 
HETATM   28  O3  UNL     1      24.711   3.957  50.989  1.00  0.00    -0.346 OA
ENDBRANCH  11  23
TORSDOF 3
ENDMDL
MODEL 2
REMARK VINA RESULT:      -7.7      2.345      4.774
REMARK  3 active torsions:
REMARK  status: ('A' for Active; 'I' for Inactive)
REMARK    1  A    between atoms: C6_10  and  N3_11 
REMARK    2  A    between atoms: N3_11  and  C7_12 
REMARK    3  A    between atoms: C13_20  and  C14_21 
ROOT
HETATM    1  C1  UNL     1      21.061   0.269  50.012  1.00  0.00     0.046 C 
HETATM    2  C2  UNL     1      21.154   1.675  50.497  1.00  0.00     0.175 C 
HETATM    3  O1  UNL     1      21.063   2.573  49.342  1.00  0.00    -0.300 OA
HETATM    4  C3  UNL     1      22.065   3.294  49.204  1.00  0.00     0.005 C 
HETATM    5  P1  UNL     1      23.106   4.022  49.080  1.00  0.00     0.005 P 
HETATM    6  C4  UNL     1      25.132   5.399  48.877  1.00  0.00     0.068 C 
HETATM    7  N1  UNL     1      25.685   5.135  50.099  1.00  0.00    -0.292 NA
HETATM    8  C5  UNL     1      24.941   4.236  50.985  1.00  0.00     0.378 C 
HETATM    9  N2  UNL     1      24.457   3.083  50.526  1.00  0.00    -0.246 NA
HETATM   10  C6  UNL     1      23.717   2.256  51.431  1.00  0.00     0.136 C 
HETATM   11  C13 UNL     1      22.454   1.819  51.241  1.00  0.00     0.052 C 
HETATM   12  H5  UNL     1      23.506   4.309  49.024  1.00  0.00     0.077 HD
ENDROOT
BRANCH  10  13
HETATM   13  N3  UNL     1      24.575   2.053  52.505  1.00  0.00    -0.341 N 
HETATM   14  H8  UNL     1      24.141   2.747  53.178  1.00  0.00     0.167 HD
BRANCH  13  15
HETATM   15  C7  UNL     1      25.695   1.239  52.696  1.00  0.00     0.035 A 
HETATM   16  C8  UNL     1      26.746   2.033  53.205  1.00  0.00     0.032 A 
HETATM   17  C9  UNL     1      27.973   1.414  53.483  1.00  0.00     0.046 A 
HETATM   18  C10 UNL     1      28.193   0.086  53.283  1.00  0.00     0.138 A 
HETATM   19  F1  UNL     1      29.354  -0.571  53.534  1.00  0.00    -0.204 F 
HETATM   20  C11 UNL     1      27.166  -0.705  52.782  1.00  0.00     0.074 A 
HETATM   21 CL1  UNL     1      27.288  -2.420  52.469  1.00  0.00    -0.081 Cl
HETATM   22  C12 UNL     1      25.988  -0.091  52.519  1.00  0.00     0.056 A 
ENDBRANCH  13  15
ENDBRANCH  10  13
BRANCH  11  23
HETATM   23  C14 UNL     1      22.237   0.961  52.482  1.00  0.00     0.103 C 
HETATM   24  C15 UNL     1      21.366   1.077  53.462  1.00  0.00     0.172 C 
HETATM   25  O2  UNL     1      21.068   0.356  54.643  1.00  0.00    -0.358 OA
HETATM   26  C16 UNL     1      21.304  -1.053  54.603  1.00  0.00     0.201 C 
HETATM   27  C17 UNL     1      22.049  -1.326  53.319  1.00  0.00     0.202 C 
HETATM   28  O3  UNL     1      22.842  -0.202  53.015  1.00  0.00    -0.346 OA
ENDBRANCH  11  23
TORSDOF 3
ENDMDL
MODEL 3
REMARK VINA RESULT:      -7.6      3.782      5.528
REMARK  3 active torsions:
REMARK  status: ('A' for Active; 'I' for Inactive)
REMARK    1  A    between atoms: C6_10  and  N3_11 
REMARK    2  A    between atoms: N3_11  and  C7_12 
REMARK    3  A    between atoms: C13_20  and  C14_21 
ROOT
HETATM    1  C1  UNL     1      21.217   1.593  52.760  1.00  0.00     0.046 C 
HETATM    2  C2  UNL     1      22.309   0.722  52.239  1.00  0.00     0.175 C 
HETATM    3  O1  UNL     1      22.953   0.054  53.373  1.00  0.00    -0.300 OA
HETATM    4  C3  UNL     1      24.163   0.317  53.473  1.00  0.00     0.005 C 
HETATM    5  P1  UNL     1      25.403   0.605  53.557  1.00  0.00     0.005 P 
HETATM    6  C4  UNL     1      27.787   1.193  53.684  1.00  0.00     0.068 C 
HETATM    7  N1  UNL     1      27.921   1.782  52.459  1.00  0.00    -0.292 NA
HETATM    8  C5  UNL     1      26.728   1.830  51.610  1.00  0.00     0.378 C 
HETATM    9  N2  UNL     1      25.561   2.239  52.107  1.00  0.00    -0.246 NA
HETATM   10  C6  UNL     1      24.423   2.243  51.238  1.00  0.00     0.136 C 
HETATM   11  C13 UNL     1      23.261   1.595  51.465  1.00  0.00     0.052 C 
HETATM   12  H5  UNL     1      25.886   0.711  53.598  1.00  0.00     0.077 HD
ENDROOT
BRANCH  10  13
HETATM   13  N3  UNL     1      24.811   3.017  50.152  1.00  0.00    -0.341 N 
HETATM   14  H8  UNL     1      24.856   2.247  49.426  1.00  0.00     0.167 HD
BRANCH  13  15
HETATM   15  C7  UNL     1      25.103   4.377  50.000  1.00  0.00     0.035 A 
HETATM   16  C8  UNL     1      26.253   4.501  49.191  1.00  0.00     0.032 A 
HETATM   17  C9  UNL     1      26.723   5.788  48.897  1.00  0.00     0.046 A 
HETATM   18  C10 UNL     1      26.121   6.918  49.357  1.00  0.00     0.138 A 
HETATM   19  F1  UNL     1      26.525   8.190  49.106  1.00  0.00    -0.204 F 
HETATM   20  C11 UNL     1      24.989   6.808  50.155  1.00  0.00     0.074 A 
HETATM   21 CL1  UNL     1      24.102   8.157  50.824  1.00  0.00    -0.081 Cl
HETATM   22  C12 UNL     1      24.548   5.557  50.429  1.00  0.00     0.056 A 
ENDBRANCH  13  15
ENDBRANCH  10  13
BRANCH  11  23
HETATM   23  C14 UNL     1      22.438   2.008  50.250  1.00  0.00     0.103 C 
HETATM   24  C15 UNL     1      21.942   1.288  49.267  1.00  0.00     0.172 C 
HETATM   25  O2  UNL     1      21.174   1.549  48.107  1.00  0.00    -0.358 OA
HETATM   26  C16 UNL     1      20.251   2.638  48.189  1.00  0.00     0.201 C 
HETATM   27  C17 UNL     1      20.552   3.357  49.482  1.00  0.00     0.202 C 
HETATM   28  O3  UNL     1      21.929   3.231  49.753  1.00  0.00    -0.346 OA
ENDBRANCH  11  23
TORSDOF 3
ENDMDL
MODEL 4
REMARK VINA RESULT:      -7.6      3.887      5.624
REMARK  3 active torsions:
REMARK  status: ('A' for Active; 'I' for Inactive)
REMARK    1  A    between atoms: C6_10  and  N3_11 
REMARK    2  A    between atoms: N3_11  and  C7_12 
REMARK    3  A    between atoms: C13_20  and  C14_21 
ROOT
HETATM    1  C1  UNL     1      21.267   3.196  51.303  1.00  0.00     0.046 C 
HETATM    2  C2  UNL     1      22.251   2.099  51.074  1.00  0.00     0.175 C 
HETATM    3  O1  UNL     1      22.502   1.426  52.351  1.00  0.00    -0.300 OA
HETATM    4  C3  UNL     1      23.693   1.471  52.703  1.00  0.00     0.005 C 
HETATM    5  P1  UNL     1      24.920   1.535  53.044  1.00  0.00     0.005 P 
HETATM    6  C4  UNL     1      27.294   1.687  53.665  1.00  0.00     0.068 C 
HETATM    7  N1  UNL     1      27.792   2.133  52.473  1.00  0.00    -0.292 NA
HETATM    8  C5  UNL     1      26.833   2.324  51.382  1.00  0.00     0.378 C 
HETATM    9  N2  UNL     1      25.693   2.980  51.591  1.00  0.00    -0.246 NA
HETATM   10  C6  UNL     1      24.783   3.116  50.495  1.00  0.00     0.136 C 
HETATM   11  C13 UNL     1      23.495   2.713  50.490  1.00  0.00     0.052 C 
HETATM   12  H5  UNL     1      25.396   1.554  53.185  1.00  0.00     0.077 HD
ENDROOT
BRANCH  10  13
HETATM   13  N3  UNL     1      25.532   3.710  49.486  1.00  0.00    -0.341 N 
HETATM   14  H8  UNL     1      25.600   2.875  48.837  1.00  0.00     0.167 HD
BRANCH  13  15
HETATM   15  C7  UNL     1      26.085   4.984  49.327  1.00  0.00     0.035 A 
HETATM   16  C8  UNL     1      27.324   4.856  48.662  1.00  0.00     0.032 A 
HETATM   17  C9  UNL     1      28.054   6.021  48.387  1.00  0.00     0.046 A 
HETATM   18  C10 UNL     1      27.622   7.263  48.732  1.00  0.00     0.138 A 
HETATM   19  F1  UNL     1      28.280   8.427  48.492  1.00  0.00    -0.204 F 
HETATM   20  C11 UNL     1      26.404   7.401  49.388  1.00  0.00     0.074 A 
HETATM   21 CL1  UNL     1      25.711   8.922  49.898  1.00  0.00    -0.081 Cl
HETATM   22  C12 UNL     1      25.712   6.267  49.646  1.00  0.00     0.056 A 
ENDBRANCH  13  15
ENDBRANCH  10  13
BRANCH  11  23
HETATM   23  C14 UNL     1      23.039   3.162  49.106  1.00  0.00     0.103 C 
HETATM   24  C15 UNL     1      22.642   2.461  48.066  1.00  0.00     0.172 C 
HETATM   25  O2  UNL     1      22.199   2.756  46.754  1.00  0.00    -0.358 OA
HETATM   26  C16 UNL     1      21.493   3.988  46.585  1.00  0.00     0.201 C 
HETATM   27  C17 UNL     1      21.637   4.745  47.882  1.00  0.00     0.202 C 
HETATM   28  O3  UNL     1      22.879   4.411  48.459  1.00  0.00    -0.346 OA
ENDBRANCH  11  23
TORSDOF 3
ENDMDL
MODEL 5
REMARK VINA RESULT:      -7.4      3.385      5.433
REMARK  3 active torsions:
REMARK  status: ('A' for Active; 'I' for Inactive)
REMARK    1  A    between atoms: C6_10  and  N3_11 
REMARK    2  A    between atoms: N3_11  and  C7_12 
REMARK    3  A    between atoms: C13_20  and  C14_21 
ROOT
HETATM    1  C1  UNL     1      21.041   0.309  54.577  1.00  0.00     0.046 C 
HETATM    2  C2  UNL     1      21.976  -0.481  53.727  1.00  0.00     0.175 C 
HETATM    3  O1  UNL     1      22.924  -1.177  54.602  1.00  0.00    -0.300 OA
HETATM    4  C3  UNL     1      24.107  -0.864  54.388  1.00  0.00     0.005 C 
HETATM    5  P1  UNL     1      25.314  -0.524  54.153  1.00  0.00     0.005 P 
HETATM    6  C4  UNL     1      27.624   0.167  53.669  1.00  0.00     0.068 C 
HETATM    7  N1  UNL     1      27.401   0.825  52.493  1.00  0.00    -0.292 NA
HETATM    8  C5  UNL     1      26.021   0.861  52.002  1.00  0.00     0.378 C 
HETATM    9  N2  UNL     1      25.022   1.189  52.819  1.00  0.00    -0.246 NA
HETATM   10  C6  UNL     1      23.691   1.186  52.292  1.00  0.00     0.136 C 
HETATM   11  C13 UNL     1      22.655   0.473  52.782  1.00  0.00     0.052 C 
HETATM   12  H5  UNL     1      25.787  -0.397  54.069  1.00  0.00     0.077 HD
ENDROOT
BRANCH  10  13
HETATM   13  N3  UNL     1      23.746   2.033  51.192  1.00  0.00    -0.341 N 
HETATM   14  H8  UNL     1      23.533   1.318  50.440  1.00  0.00     0.167 HD
BRANCH  13  15
HETATM   15  C7  UNL     1      24.023   3.396  51.045  1.00  0.00     0.035 A 
HETATM   16  C8  UNL     1      23.303   4.108  52.029  1.00  0.00     0.032 A 
HETATM   17  C9  UNL     1      23.440   5.503  52.074  1.00  0.00     0.046 A 
HETATM   18  C10 UNL     1      24.234   6.196  51.213  1.00  0.00     0.138 A 
HETATM   19  F1  UNL     1      24.411   7.542  51.206  1.00  0.00    -0.204 F 
HETATM   20  C11 UNL     1      24.947   5.504  50.240  1.00  0.00     0.074 A 
HETATM   21 CL1  UNL     1      26.006   6.243  49.063  1.00  0.00    -0.081 Cl
HETATM   22  C12 UNL     1      24.803   4.158  50.211  1.00  0.00     0.056 A 
ENDBRANCH  13  15
ENDBRANCH  10  13
BRANCH  11  23
HETATM   23  C14 UNL     1      21.520   0.911  51.862  1.00  0.00     0.103 C 
HETATM   24  C15 UNL     1      20.947   0.289  50.854  1.00  0.00     0.172 C 
HETATM   25  O2  UNL     1      19.903   0.582  49.944  1.00  0.00    -0.358 OA
HETATM   26  C16 UNL     1      18.850   1.416  50.434  1.00  0.00     0.201 C 
HETATM   27  C17 UNL     1      19.307   1.940  51.773  1.00  0.00     0.202 C 
HETATM   28  O3  UNL     1      20.710   2.065  51.749  1.00  0.00    -0.346 OA
ENDBRANCH  11  23
TORSDOF 3
ENDMDL
MODEL 6
REMARK VINA RESULT:      -7.3      3.790      5.631
REMARK  3 active torsions:
REMARK  status: ('A' for Active; 'I' for Inactive)
REMARK    1  A    between atoms: C6_10  and  N3_11 
REMARK    2  A    between atoms: N3_11  and  C7_12 
REMARK    3  A    between atoms: C13_20  and  C14_21 
ROOT
HETATM    1  C1  UNL     1      24.946   3.569  49.113  1.00  0.00     0.046 C 
HETATM    2  C2  UNL     1      25.456   3.572  50.513  1.00  0.00     0.175 C 
HETATM    3  O1  UNL     1      26.746   2.877  50.540  1.00  0.00    -0.300 OA
HETATM    4  C3  UNL     1      26.751   1.882  51.283  1.00  0.00     0.005 C 
HETATM    5  P1  UNL     1      26.729   0.862  52.049  1.00  0.00     0.005 P 
HETATM    6  C4  UNL     1      26.640  -1.098  53.532  1.00  0.00     0.068 C 
HETATM    7  N1  UNL     1      25.455  -0.831  54.157  1.00  0.00    -0.292 NA
HETATM    8  C5  UNL     1      24.758   0.396  53.765  1.00  0.00     0.378 C 
HETATM    9  N2  UNL     1      24.587   0.694  52.478  1.00  0.00    -0.246 NA
HETATM   10  C6  UNL     1      23.920   1.918  52.152  1.00  0.00     0.136 C 
HETATM   11  C13 UNL     1      24.422   2.905  51.380  1.00  0.00     0.052 C 
HETATM   12  H5  UNL     1      26.731   0.463  52.345  1.00  0.00     0.077 HD
ENDROOT
BRANCH  10  13
HETATM   13  N3  UNL     1      22.704   1.845  52.820  1.00  0.00    -0.341 N 
HETATM   14  H8  UNL     1      22.935   2.493  53.626  1.00  0.00     0.167 HD
BRANCH  13  15
HETATM   15  C7  UNL     1      21.522   1.136  52.584  1.00  0.00     0.035 A 
HETATM   16  C8  UNL     1      21.255   0.322  53.707  1.00  0.00     0.032 A 
HETATM   17  C9  UNL     1      20.102  -0.475  53.691  1.00  0.00     0.046 A 
HETATM   18  C10 UNL     1      19.233  -0.498  52.644  1.00  0.00     0.138 A 
HETATM   19  F1  UNL     1      18.101  -1.244  52.569  1.00  0.00    -0.204 F 
HETATM   20  C11 UNL     1      19.486   0.299  51.534  1.00  0.00     0.074 A 
HETATM   21 CL1  UNL     1      18.473   0.383  50.113  1.00  0.00    -0.081 Cl
HETATM   22  C12 UNL     1      20.604   1.063  51.566  1.00  0.00     0.056 A 
ENDBRANCH  13  15
ENDBRANCH  10  13
BRANCH  11  23
HETATM   23  C14 UNL     1      23.263   3.894  51.354  1.00  0.00     0.103 C 
HETATM   24  C15 UNL     1      23.149   5.094  51.881  1.00  0.00     0.172 C 
HETATM   25  O2  UNL     1      22.146   6.092  51.922  1.00  0.00    -0.358 OA
HETATM   26  C16 UNL     1      21.280   6.169  50.787  1.00  0.00     0.201 C 
HETATM   27  C17 UNL     1      21.573   4.953  49.943  1.00  0.00     0.202 C 
HETATM   28  O3  UNL     1      21.962   3.901  50.795  1.00  0.00    -0.346 OA
ENDBRANCH  11  23
TORSDOF 3
ENDMDL
MODEL 7
REMARK VINA RESULT:      -7.2      3.494      5.395
REMARK  3 active torsions:
REMARK  status: ('A' for Active; 'I' for Inactive)
REMARK    1  A    between atoms: C6_10  and  N3_11 
REMARK    2  A    between atoms: N3_11  and  C7_12 
REMARK    3  A    between atoms: C13_20  and  C14_21 
ROOT
HETATM    1  C1  UNL     1      23.293  -0.785  53.529  1.00  0.00     0.046 C 
HETATM    2  C2  UNL     1      22.676   0.569  53.435  1.00  0.00     0.175 C 
HETATM    3  O1  UNL     1      21.219   0.415  53.402  1.00  0.00    -0.300 OA
HETATM    4  C3  UNL     1      20.702   0.877  52.372  1.00  0.00     0.005 C 
HETATM    5  P1  UNL     1      20.194   1.354  51.303  1.00  0.00     0.005 P 
HETATM    6  C4  UNL     1      19.260   2.282  49.226  1.00  0.00     0.068 C 
HETATM    7  N1  UNL     1      20.364   2.955  48.785  1.00  0.00    -0.292 NA
HETATM    8  C5  UNL     1      21.562   2.893  49.627  1.00  0.00     0.378 C 
HETATM    9  N2  UNL     1      21.990   1.726  50.106  1.00  0.00    -0.246 NA
HETATM   10  C6  UNL     1      23.152   1.727  50.942  1.00  0.00     0.136 C 
HETATM   11  C13 UNL     1      23.215   1.235  52.198  1.00  0.00     0.052 C 
HETATM   12  H5  UNL     1      19.987   1.537  50.890  1.00  0.00     0.077 HD
ENDROOT
BRANCH  10  13
HETATM   13  N3  UNL     1      24.132   2.354  50.184  1.00  0.00    -0.341 N 
HETATM   14  H8  UNL     1      24.473   1.507  49.647  1.00  0.00     0.167 HD
BRANCH  13  15
HETATM   15  C7  UNL     1      24.600   3.671  50.122  1.00  0.00     0.035 A 
HETATM   16  C8  UNL     1      25.818   3.681  49.408  1.00  0.00     0.032 A 
HETATM   17  C9  UNL     1      26.464   4.910  49.214  1.00  0.00     0.046 A 
HETATM   18  C10 UNL     1      25.970   6.088  49.684  1.00  0.00     0.138 A 
HETATM   19  F1  UNL     1      26.546   7.308  49.528  1.00  0.00    -0.204 F 
HETATM   20  C11 UNL     1      24.772   6.089  50.389  1.00  0.00     0.074 A 
HETATM   21 CL1  UNL     1      24.007   7.511  51.056  1.00  0.00    -0.081 Cl
HETATM   22  C12 UNL     1      24.161   4.894  50.566  1.00  0.00     0.056 A 
ENDBRANCH  13  15
ENDBRANCH  10  13
BRANCH  11  23
HETATM   23  C14 UNL     1      24.682   1.465  52.543  1.00  0.00     0.103 C 
HETATM   24  C15 UNL     1      25.235   2.169  53.508  1.00  0.00     0.172 C 
HETATM   25  O2  UNL     1      26.557   2.452  53.927  1.00  0.00    -0.358 OA
HETATM   26  C16 UNL     1      27.528   1.429  53.695  1.00  0.00     0.201 C 
HETATM   27  C17 UNL     1      26.859   0.393  52.826  1.00  0.00     0.202 C 
HETATM   28  O3  UNL     1      25.919   1.041  52.001  1.00  0.00    -0.346 OA
ENDBRANCH  11  23
TORSDOF 3
ENDMDL
MODEL 8
REMARK VINA RESULT:      -6.7      4.180      6.049
REMARK  3 active torsions:
REMARK  status: ('A' for Active; 'I' for Inactive)
REMARK    1  A    between atoms: C6_10  and  N3_11 
REMARK    2  A    between atoms: N3_11  and  C7_12 
REMARK    3  A    between atoms: C13_20  and  C14_21 
ROOT
HETATM    1  C1  UNL     1      25.047   2.483  50.728  1.00  0.00     0.046 C 
HETATM    2  C2  UNL     1      24.722   2.512  52.182  1.00  0.00     0.175 C 
HETATM    3  O1  UNL     1      25.579   1.542  52.869  1.00  0.00    -0.300 OA
HETATM    4  C3  UNL     1      24.939   0.655  53.459  1.00  0.00     0.005 C 
HETATM    5  P1  UNL     1      24.260  -0.246  54.054  1.00  0.00     0.005 P 
HETATM    6  C4  UNL     1      22.911  -1.967  55.179  1.00  0.00     0.068 C 
HETATM    7  N1  UNL     1      21.687  -1.367  55.081  1.00  0.00    -0.292 NA
HETATM    8  C5  UNL     1      21.638  -0.058  54.424  1.00  0.00     0.378 C 
HETATM    9  N2  UNL     1      22.255   0.136  53.260  1.00  0.00    -0.246 NA
HETATM   10  C6  UNL     1      22.194   1.441  52.675  1.00  0.00     0.136 C 
HETATM   11  C13 UNL     1      23.257   2.198  52.332  1.00  0.00     0.052 C 
HETATM   12  H5  UNL     1      24.005  -0.602  54.288  1.00  0.00     0.077 HD
ENDROOT
BRANCH  10  13
HETATM   13  N3  UNL     1      20.836   1.723  52.583  1.00  0.00    -0.341 N 
HETATM   14  H8  UNL     1      20.838   2.645  53.107  1.00  0.00     0.167 HD
BRANCH  13  15
HETATM   15  C7  UNL     1      19.751   1.040  52.026  1.00  0.00     0.035 A 
HETATM   16  C8  UNL     1      19.604   1.450  50.683  1.00  0.00     0.032 A 
HETATM   17  C9  UNL     1      18.574   0.879  49.923  1.00  0.00     0.046 A 
HETATM   18  C10 UNL     1      17.713  -0.048  50.422  1.00  0.00     0.138 A 
HETATM   19  F1  UNL     1      16.699  -0.639  49.739  1.00  0.00    -0.204 F 
HETATM   20  C11 UNL     1      17.848  -0.459  51.744  1.00  0.00     0.074 A 
HETATM   21 CL1  UNL     1      16.827  -1.636  52.534  1.00  0.00    -0.081 Cl
HETATM   22  C12 UNL     1      18.848   0.102  52.464  1.00  0.00     0.056 A 
ENDBRANCH  13  15
ENDBRANCH  10  13
BRANCH  11  23
HETATM   23  C14 UNL     1      22.580   3.422  51.726  1.00  0.00     0.103 C 
HETATM   24  C15 UNL     1      22.457   4.648  52.188  1.00  0.00     0.172 C 
HETATM   25  O2  UNL     1      21.866   5.850  51.728  1.00  0.00    -0.358 OA
HETATM   26  C16 UNL     1      21.853   6.048  50.312  1.00  0.00     0.201 C 
HETATM   27  C17 UNL     1      22.296   4.746  49.693  1.00  0.00     0.202 C 
HETATM   28  O3  UNL     1      21.878   3.690  50.527  1.00  0.00    -0.346 OA
ENDBRANCH  11  23
TORSDOF 3
ENDMDL
MODEL 9
REMARK VINA RESULT:      -6.5      4.572      6.375
REMARK  3 active torsions:
REMARK  status: ('A' for Active; 'I' for Inactive)
REMARK    1  A    between atoms: C6_10  and  N3_11 
REMARK    2  A    between atoms: N3_11  and  C7_12 
REMARK    3  A    between atoms: C13_20  and  C14_21 
ROOT
HETATM    1  C1  UNL     1      22.002   7.006  50.720  1.00  0.00     0.046 C 
HETATM    2  C2  UNL     1      22.248   5.624  50.220  1.00  0.00     0.175 C 
HETATM    3  O1  UNL     1      22.072   4.688  51.333  1.00  0.00    -0.300 OA
HETATM    4  C3  UNL     1      23.093   4.027  51.584  1.00  0.00     0.005 C 
HETATM    5  P1  UNL     1      24.156   3.363  51.824  1.00  0.00     0.005 P 
HETATM    6  C4  UNL     1      26.228   2.111  52.255  1.00  0.00     0.068 C 
HETATM    7  N1  UNL     1      26.912   2.446  51.122  1.00  0.00    -0.292 NA
HETATM    8  C5  UNL     1      26.229   3.323  50.167  1.00  0.00     0.378 C 
HETATM    9  N2  UNL     1      25.615   4.428  50.585  1.00  0.00    -0.246 NA
HETATM   10  C6  UNL     1      24.943   5.235  49.611  1.00  0.00     0.136 C 
HETATM   11  C13 UNL     1      23.640   5.585  49.647  1.00  0.00     0.052 C 
HETATM   12  H5  UNL     1      24.564   3.100  51.925  1.00  0.00     0.077 HD
ENDROOT
BRANCH  10  13
HETATM   13  N3  UNL     1      25.915   5.523  48.662  1.00  0.00    -0.341 N 
HETATM   14  H8  UNL     1      25.566   4.887  47.890  1.00  0.00     0.167 HD
BRANCH  13  15
HETATM   15  C7  UNL     1      27.042   6.351  48.665  1.00  0.00     0.035 A 
HETATM   16  C8  UNL     1      28.164   5.581  48.288  1.00  0.00     0.032 A 
HETATM   17  C9  UNL     1      29.412   6.217  48.214  1.00  0.00     0.046 A 
HETATM   18  C10 UNL     1      29.586   7.537  48.491  1.00  0.00     0.138 A 
HETATM   19  F1  UNL     1      30.764   8.210  48.436  1.00  0.00    -0.204 F 
HETATM   20  C11 UNL     1      28.489   8.304  48.864  1.00  0.00     0.074 A 
HETATM   21 CL1  UNL     1      28.545  10.007  49.252  1.00  0.00    -0.081 Cl
HETATM   22  C12 UNL     1      27.292   7.675  48.930  1.00  0.00     0.056 A 
ENDBRANCH  13  15
ENDBRANCH  10  13
BRANCH  11  23
HETATM   23  C14 UNL     1      23.525   6.465  48.408  1.00  0.00     0.103 C 
HETATM   24  C15 UNL     1      22.925   6.250  47.256  1.00  0.00     0.172 C 
HETATM   25  O2  UNL     1      22.748   6.976  46.054  1.00  0.00    -0.358 OA
HETATM   26  C16 UNL     1      22.684   8.399  46.176  1.00  0.00     0.201 C 
HETATM   27  C17 UNL     1      23.067   8.724  47.599  1.00  0.00     0.202 C 
HETATM   28  O3  UNL     1      23.985   7.754  48.047  1.00  0.00    -0.346 OA
ENDBRANCH  11  23
TORSDOF 3
ENDMDL
