MODEL 1
REMARK VINA RESULT:      -8.5      0.000      0.000
REMARK  8 active torsions:
REMARK  status: ('A' for Active; 'I' for Inactive)
REMARK    1  A    between atoms: C3_3  and  C4_4 
REMARK    2  A    between atoms: C3_3  and  N3_18 
REMARK    3  A    between atoms: C5_5  and  C6_6 
REMARK    4  A    between atoms: C6_6  and  O1_7 
REMARK    5  A    between atoms: O1_7  and  C7_8 
REMARK    6  A    between atoms: C10_12  and  C11_13 
REMARK       I    between atoms: C11_13  and  N2_15 
REMARK       I    between atoms: N3_18  and  C14_19 
REMARK       I    between atoms: C14_19  and  N4_21 
REMARK    7  A    between atoms: N4_21  and  C15_22 
REMARK    8  A    between atoms: C19_27  and  C20_28 
ROOT
HETATM    1  C1  UNL     1      25.483   6.789  48.335  1.00  0.00     0.038 C 
HETATM    2  C2  UNL     1      25.393   5.955  49.574  1.00  0.00    -0.002 C 
HETATM    3  C3  UNL     1      24.352   5.105  49.652  1.00  0.00     0.032 C 
ENDROOT
BRANCH   3   4
HETATM    4  C4  UNL     1      23.401   5.044  48.563  1.00  0.00     0.027 C 
HETATM    5  C5  UNL     1      22.816   3.969  48.053  1.00  0.00     0.002 C 
BRANCH   5   6
HETATM    6  C6  UNL     1      22.671   2.512  48.111  1.00  0.00     0.203 C 
BRANCH   6   7
HETATM    7  O1  UNL     1      22.724   2.011  49.426  1.00  0.00    -0.347 OA
BRANCH   7   8
HETATM    8  C7  UNL     1      21.638   1.507  50.079  1.00  0.00     0.072 A 
HETATM    9  C8  UNL     1      20.310   1.353  49.743  1.00  0.00     0.056 A 
HETATM   10  C9  UNL     1      19.396   0.798  50.609  1.00  0.00     0.120 A 
HETATM   11  N1  UNL     1      19.783   0.385  51.828  1.00  0.00    -0.255 NA
HETATM   12  C10 UNL     1      21.079   0.499  52.242  1.00  0.00     0.126 A 
HETATM   13  C13 UNL     1      22.005   1.063  51.359  1.00  0.00     0.074 A 
BRANCH  12  14
HETATM   14  C11 UNL     1      21.456   0.038  53.572  1.00  0.00     0.269 C 
HETATM   15  O2  UNL     1      20.826   0.423  54.606  1.00  0.00    -0.266 OA
HETATM   16  N2  UNL     1      22.538  -0.851  53.724  1.00  0.00    -0.360 N 
HETATM   17  C12 UNL     1      22.848  -1.260  55.072  1.00  0.00     0.149 C 
HETATM   18  H11 UNL     1      23.051  -1.161  52.847  1.00  0.00     0.162 HD
ENDBRANCH  12  14
ENDBRANCH   7   8
ENDBRANCH   6   7
ENDBRANCH   5   6
ENDBRANCH   3   4
BRANCH   3  19
HETATM   19  N3  UNL     1      24.414   4.391  50.882  1.00  0.00    -0.309 N 
HETATM   20  C14 UNL     1      25.189   3.294  51.285  1.00  0.00     0.325 C 
HETATM   21  O3  UNL     1      26.002   2.794  50.464  1.00  0.00    -0.247 OA
HETATM   22  N4  UNL     1      25.100   2.718  52.579  1.00  0.00    -0.309 N 
HETATM   23  H17 UNL     1      24.430   3.128  53.259  1.00  0.00     0.170 HD
HETATM   24  H16 UNL     1      23.759   4.741  51.636  1.00  0.00     0.170 HD
BRANCH  22  25
HETATM   25  C15 UNL     1      26.002   1.605  52.734  1.00  0.00     0.037 A 
HETATM   26  C16 UNL     1      25.589   0.379  52.227  1.00  0.00     0.031 A 
HETATM   27  C17 UNL     1      26.415  -0.740  52.343  1.00  0.00     0.027 A 
HETATM   28  C18 UNL     1      27.640  -0.661  52.953  1.00  0.00     0.049 A 
HETATM   29 CL1  UNL     1      28.697  -2.058  53.110  1.00  0.00    -0.083 Cl
HETATM   30  C19 UNL     1      28.046   0.576  53.460  1.00  0.00     0.071 A 
HETATM   31  C21 UNL     1      27.232   1.693  53.349  1.00  0.00     0.047 A 
BRANCH  30  32
HETATM   32  C20 UNL     1      29.369   0.644  54.113  1.00  0.00     0.419 C 
HETATM   33  F1  UNL     1      29.329  -0.197  55.231  1.00  0.00    -0.166 F 
HETATM   34  F2  UNL     1      29.661   1.912  54.610  1.00  0.00    -0.166 F 
HETATM   35  F3  UNL     1      30.318   0.225  53.210  1.00  0.00    -0.166 F 
ENDBRANCH  30  32
ENDBRANCH  22  25
ENDBRANCH   3  19
TORSDOF 8
ENDMDL
MODEL 2
REMARK VINA RESULT:      -8.2      4.018      7.512
REMARK  8 active torsions:
REMARK  status: ('A' for Active; 'I' for Inactive)
REMARK    1  A    between atoms: C3_3  and  C4_4 
REMARK    2  A    between atoms: C3_3  and  N3_18 
REMARK    3  A    between atoms: C5_5  and  C6_6 
REMARK    4  A    between atoms: C6_6  and  O1_7 
REMARK    5  A    between atoms: O1_7  and  C7_8 
REMARK    6  A    between atoms: C10_12  and  C11_13 
REMARK       I    between atoms: C11_13  and  N2_15 
REMARK       I    between atoms: N3_18  and  C14_19 
REMARK       I    between atoms: C14_19  and  N4_21 
REMARK    7  A    between atoms: N4_21  and  C15_22 
REMARK    8  A    between atoms: C19_27  and  C20_28 
ROOT
HETATM    1  C1  UNL     1      22.787   5.720  47.661  1.00  0.00     0.038 C 
HETATM    2  C2  UNL     1      22.997   5.055  48.985  1.00  0.00    -0.002 C 
HETATM    3  C3  UNL     1      24.030   5.503  49.724  1.00  0.00     0.032 C 
ENDROOT
BRANCH   3   4
HETATM    4  C4  UNL     1      24.859   6.574  49.213  1.00  0.00     0.027 C 
HETATM    5  C5  UNL     1      26.113   6.502  48.791  1.00  0.00     0.002 C 
BRANCH   5   6
HETATM    6  C6  UNL     1      27.279   5.642  48.562  1.00  0.00     0.203 C 
BRANCH   6   7
HETATM    7  O1  UNL     1      28.251   6.249  47.744  1.00  0.00    -0.347 OA
BRANCH   7   8
HETATM    8  C7  UNL     1      29.401   6.798  48.230  1.00  0.00     0.072 A 
HETATM    9  C8  UNL     1      29.710   8.014  48.802  1.00  0.00     0.056 A 
HETATM   10  C9  UNL     1      30.985   8.323  49.219  1.00  0.00     0.120 A 
HETATM   11  N1  UNL     1      31.979   7.430  49.075  1.00  0.00    -0.255 NA
HETATM   12  C10 UNL     1      31.761   6.203  48.519  1.00  0.00     0.126 A 
HETATM   13  C13 UNL     1      30.464   5.891  48.097  1.00  0.00     0.074 A 
BRANCH  12  14
HETATM   14  C11 UNL     1      32.868   5.264  48.381  1.00  0.00     0.269 C 
HETATM   15  O2  UNL     1      34.035   5.559  48.786  1.00  0.00    -0.266 OA
HETATM   16  N2  UNL     1      32.648   4.005  47.789  1.00  0.00    -0.360 N 
HETATM   17  C12 UNL     1      33.793   3.134  47.690  1.00  0.00     0.149 C 
HETATM   18  H11 UNL     1      31.664   3.779  47.458  1.00  0.00     0.162 HD
ENDBRANCH  12  14
ENDBRANCH   7   8
ENDBRANCH   6   7
ENDBRANCH   5   6
ENDBRANCH   3   4
BRANCH   3  19
HETATM   19  N3  UNL     1      24.091   4.773  50.945  1.00  0.00    -0.309 N 
HETATM   20  C14 UNL     1      24.882   3.685  51.341  1.00  0.00     0.325 C 
HETATM   21  O3  UNL     1      25.714   3.211  50.522  1.00  0.00    -0.247 OA
HETATM   22  N4  UNL     1      24.790   3.089  52.626  1.00  0.00    -0.309 N 
HETATM   23  H17 UNL     1      24.106   3.477  53.304  1.00  0.00     0.170 HD
HETATM   24  H16 UNL     1      23.422   5.100  51.696  1.00  0.00     0.170 HD
BRANCH  22  25
HETATM   25  C15 UNL     1      25.711   1.991  52.776  1.00  0.00     0.037 A 
HETATM   26  C16 UNL     1      25.318   0.760  52.265  1.00  0.00     0.031 A 
HETATM   27  C17 UNL     1      26.163  -0.345  52.375  1.00  0.00     0.027 A 
HETATM   28  C18 UNL     1      27.388  -0.248  52.983  1.00  0.00     0.049 A 
HETATM   29 CL1  UNL     1      28.468  -1.628  53.134  1.00  0.00    -0.083 Cl
HETATM   30  C19 UNL     1      27.774   0.994  53.493  1.00  0.00     0.071 A 
HETATM   31  C21 UNL     1      26.940   2.098  53.388  1.00  0.00     0.047 A 
BRANCH  30  32
HETATM   32  C20 UNL     1      29.097   1.082  54.145  1.00  0.00     0.419 C 
HETATM   33  F1  UNL     1      29.389   2.441  54.319  1.00  0.00    -0.166 F 
HETATM   34  F2  UNL     1      30.123   0.578  53.351  1.00  0.00    -0.166 F 
HETATM   35  F3  UNL     1      29.026   0.431  55.354  1.00  0.00    -0.166 F 
ENDBRANCH  30  32
ENDBRANCH  22  25
ENDBRANCH   3  19
TORSDOF 8
ENDMDL
MODEL 3
REMARK VINA RESULT:      -7.7      1.811      2.570
REMARK  8 active torsions:
REMARK  status: ('A' for Active; 'I' for Inactive)
REMARK    1  A    between atoms: C3_3  and  C4_4 
REMARK    2  A    between atoms: C3_3  and  N3_18 
REMARK    3  A    between atoms: C5_5  and  C6_6 
REMARK    4  A    between atoms: C6_6  and  O1_7 
REMARK    5  A    between atoms: O1_7  and  C7_8 
REMARK    6  A    between atoms: C10_12  and  C11_13 
REMARK       I    between atoms: C11_13  and  N2_15 
REMARK       I    between atoms: N3_18  and  C14_19 
REMARK       I    between atoms: C14_19  and  N4_21 
REMARK    7  A    between atoms: N4_21  and  C15_22 
REMARK    8  A    between atoms: C19_27  and  C20_28 
ROOT
HETATM    1  C1  UNL     1      24.129   6.419  48.208  1.00  0.00     0.038 C 
HETATM    2  C2  UNL     1      24.368   5.768  49.534  1.00  0.00    -0.002 C 
HETATM    3  C3  UNL     1      23.313   5.155  50.101  1.00  0.00     0.032 C 
ENDROOT
BRANCH   3   4
HETATM    4  C4  UNL     1      22.036   5.158  49.418  1.00  0.00     0.027 C 
HETATM    5  C5  UNL     1      21.039   4.295  49.552  1.00  0.00     0.002 C 
BRANCH   5   6
HETATM    6  C6  UNL     1      20.549   3.088  50.225  1.00  0.00     0.203 C 
BRANCH   6   7
HETATM    7  O1  UNL     1      21.114   2.908  51.502  1.00  0.00    -0.347 OA
BRANCH   7   8
HETATM    8  C7  UNL     1      20.954   1.770  52.237  1.00  0.00     0.072 A 
HETATM    9  C8  UNL     1      21.722   1.134  53.188  1.00  0.00     0.056 A 
HETATM   10  C9  UNL     1      21.317  -0.034  53.793  1.00  0.00     0.120 A 
HETATM   11  N1  UNL     1      20.140  -0.594  53.464  1.00  0.00    -0.255 NA
HETATM   12  C10 UNL     1      19.318  -0.031  52.532  1.00  0.00     0.126 A 
HETATM   13  C13 UNL     1      19.732   1.157  51.919  1.00  0.00     0.074 A 
BRANCH  12  14
HETATM   14  C11 UNL     1      18.051  -0.671  52.204  1.00  0.00     0.269 C 
HETATM   15  O2  UNL     1      17.412  -0.367  51.149  1.00  0.00    -0.266 OA
HETATM   16  N2  UNL     1      17.515  -1.646  53.068  1.00  0.00    -0.360 N 
HETATM   17  C12 UNL     1      16.258  -2.233  52.674  1.00  0.00     0.149 C 
HETATM   18  H11 UNL     1      18.065  -1.886  53.945  1.00  0.00     0.162 HD
ENDBRANCH  12  14
ENDBRANCH   7   8
ENDBRANCH   6   7
ENDBRANCH   5   6
ENDBRANCH   3   4
BRANCH   3  19
HETATM   19  N3  UNL     1      23.705   4.590  51.347  1.00  0.00    -0.309 N 
HETATM   20  C14 UNL     1      24.540   3.506  51.656  1.00  0.00     0.325 C 
HETATM   21  O3  UNL     1      25.076   2.866  50.713  1.00  0.00    -0.247 OA
HETATM   22  N4  UNL     1      24.809   3.093  52.988  1.00  0.00    -0.309 N 
HETATM   23  H17 UNL     1      24.369   3.618  53.768  1.00  0.00     0.170 HD
HETATM   24  H16 UNL     1      23.299   5.063  52.202  1.00  0.00     0.170 HD
BRANCH  22  25
HETATM   25  C15 UNL     1      25.695   1.957  53.028  1.00  0.00     0.037 A 
HETATM   26  C16 UNL     1      25.232   0.773  52.466  1.00  0.00     0.031 A 
HETATM   27  C17 UNL     1      26.040  -0.365  52.471  1.00  0.00     0.027 A 
HETATM   28  C18 UNL     1      27.295  -0.346  53.023  1.00  0.00     0.049 A 
HETATM   29 CL1  UNL     1      28.329  -1.769  53.040  1.00  0.00    -0.083 Cl
HETATM   30  C19 UNL     1      27.750   0.848  53.585  1.00  0.00     0.071 A 
HETATM   31  C21 UNL     1      26.955   1.985  53.585  1.00  0.00     0.047 A 
BRANCH  30  32
HETATM   32  C20 UNL     1      29.105   0.853  54.175  1.00  0.00     0.419 C 
HETATM   33  F1  UNL     1      29.425   2.180  54.483  1.00  0.00    -0.166 F 
HETATM   34  F2  UNL     1      30.084   0.430  53.280  1.00  0.00    -0.166 F 
HETATM   35  F3  UNL     1      29.085   0.072  55.307  1.00  0.00    -0.166 F 
ENDBRANCH  30  32
ENDBRANCH  22  25
ENDBRANCH   3  19
TORSDOF 8
ENDMDL
MODEL 4
REMARK VINA RESULT:      -7.7      5.391      7.070
REMARK  8 active torsions:
REMARK  status: ('A' for Active; 'I' for Inactive)
REMARK    1  A    between atoms: C3_3  and  C4_4 
REMARK    2  A    between atoms: C3_3  and  N3_18 
REMARK    3  A    between atoms: C5_5  and  C6_6 
REMARK    4  A    between atoms: C6_6  and  O1_7 
REMARK    5  A    between atoms: O1_7  and  C7_8 
REMARK    6  A    between atoms: C10_12  and  C11_13 
REMARK       I    between atoms: C11_13  and  N2_15 
REMARK       I    between atoms: N3_18  and  C14_19 
REMARK       I    between atoms: C14_19  and  N4_21 
REMARK    7  A    between atoms: N4_21  and  C15_22 
REMARK    8  A    between atoms: C19_27  and  C20_28 
ROOT
HETATM    1  C1  UNL     1      25.920   9.946  48.481  1.00  0.00     0.038 C 
HETATM    2  C2  UNL     1      27.261   9.429  48.896  1.00  0.00    -0.002 C 
HETATM    3  C3  UNL     1      27.471   8.109  48.737  1.00  0.00     0.032 C 
ENDROOT
BRANCH   3   4
HETATM    4  C4  UNL     1      26.418   7.281  48.188  1.00  0.00     0.027 C 
HETATM    5  C5  UNL     1      25.909   6.167  48.696  1.00  0.00     0.002 C 
BRANCH   5   6
HETATM    6  C6  UNL     1      25.945   5.197  49.794  1.00  0.00     0.203 C 
BRANCH   6   7
HETATM    7  O1  UNL     1      25.044   4.130  49.608  1.00  0.00    -0.347 OA
BRANCH   7   8
HETATM    8  C7  UNL     1      24.934   3.084  50.476  1.00  0.00     0.072 A 
HETATM    9  C8  UNL     1      23.897   2.253  50.841  1.00  0.00     0.056 A 
HETATM   10  C9  UNL     1      24.056   1.247  51.766  1.00  0.00     0.120 A 
HETATM   11  N1  UNL     1      25.251   1.046  52.348  1.00  0.00    -0.255 NA
HETATM   12  C10 UNL     1      26.332   1.822  52.045  1.00  0.00     0.126 A 
HETATM   13  C13 UNL     1      26.166   2.844  51.104  1.00  0.00     0.074 A 
BRANCH  12  14
HETATM   14  C11 UNL     1      27.609   1.571  52.700  1.00  0.00     0.269 C 
HETATM   15  O2  UNL     1      28.504   2.471  52.767  1.00  0.00    -0.266 OA
HETATM   16  N2  UNL     1      27.866   0.309  53.271  1.00  0.00    -0.360 N 
HETATM   17  C12 UNL     1      29.153   0.140  53.900  1.00  0.00     0.149 C 
HETATM   18  H11 UNL     1      27.105  -0.429  53.205  1.00  0.00     0.162 HD
ENDBRANCH  12  14
ENDBRANCH   7   8
ENDBRANCH   6   7
ENDBRANCH   5   6
ENDBRANCH   3   4
BRANCH   3  19
HETATM   19  N3  UNL     1      28.786   7.781  49.175  1.00  0.00    -0.309 N 
HETATM   20  C14 UNL     1      29.851   7.141  48.526  1.00  0.00     0.325 C 
HETATM   21  O3  UNL     1      29.692   6.756  47.337  1.00  0.00    -0.247 OA
HETATM   22  N4  UNL     1      31.105   6.905  49.148  1.00  0.00    -0.309 N 
HETATM   23  H17 UNL     1      31.239   7.220  50.127  1.00  0.00     0.170 HD
HETATM   24  H16 UNL     1      29.010   8.066  50.169  1.00  0.00     0.170 HD
BRANCH  22  25
HETATM   25  C15 UNL     1      32.023   6.231  48.264  1.00  0.00     0.037 A 
HETATM   26  C16 UNL     1      32.592   6.987  47.246  1.00  0.00     0.031 A 
HETATM   27  C17 UNL     1      33.490   6.397  46.355  1.00  0.00     0.027 A 
HETATM   28  C18 UNL     1      33.831   5.072  46.459  1.00  0.00     0.049 A 
HETATM   29 CL1  UNL     1      34.960   4.309  45.348  1.00  0.00    -0.083 Cl
HETATM   30  C19 UNL     1      33.253   4.322  47.486  1.00  0.00     0.071 A 
HETATM   31  C21 UNL     1      32.360   4.900  48.376  1.00  0.00     0.047 A 
BRANCH  30  32
HETATM   32  C20 UNL     1      33.631   2.897  47.585  1.00  0.00     0.419 C 
HETATM   33  F1  UNL     1      34.982   2.846  47.949  1.00  0.00    -0.166 F 
HETATM   34  F2  UNL     1      33.547   2.230  46.366  1.00  0.00    -0.166 F 
HETATM   35  F3  UNL     1      32.838   2.306  48.540  1.00  0.00    -0.166 F 
ENDBRANCH  30  32
ENDBRANCH  22  25
ENDBRANCH   3  19
TORSDOF 8
ENDMDL
MODEL 5
REMARK VINA RESULT:      -7.7      6.046      8.196
REMARK  8 active torsions:
REMARK  status: ('A' for Active; 'I' for Inactive)
REMARK    1  A    between atoms: C3_3  and  C4_4 
REMARK    2  A    between atoms: C3_3  and  N3_18 
REMARK    3  A    between atoms: C5_5  and  C6_6 
REMARK    4  A    between atoms: C6_6  and  O1_7 
REMARK    5  A    between atoms: O1_7  and  C7_8 
REMARK    6  A    between atoms: C10_12  and  C11_13 
REMARK       I    between atoms: C11_13  and  N2_15 
REMARK       I    between atoms: N3_18  and  C14_19 
REMARK       I    between atoms: C14_19  and  N4_21 
REMARK    7  A    between atoms: N4_21  and  C15_22 
REMARK    8  A    between atoms: C19_27  and  C20_28 
ROOT
HETATM    1  C1  UNL     1      29.886  12.676  48.550  1.00  0.00     0.038 C 
HETATM    2  C2  UNL     1      30.236  11.332  49.106  1.00  0.00    -0.002 C 
HETATM    3  C3  UNL     1      29.630  10.271  48.540  1.00  0.00     0.032 C 
ENDROOT
BRANCH   3   4
HETATM    4  C4  UNL     1      28.698  10.481  47.453  1.00  0.00     0.027 C 
HETATM    5  C5  UNL     1      28.034   9.565  46.762  1.00  0.00     0.002 C 
BRANCH   5   6
HETATM    6  C6  UNL     1      27.766   8.137  46.567  1.00  0.00     0.203 C 
BRANCH   6   7
HETATM    7  O1  UNL     1      27.918   7.387  47.750  1.00  0.00    -0.347 OA
BRANCH   7   8
HETATM    8  C7  UNL     1      26.930   7.245  48.679  1.00  0.00     0.072 A 
HETATM    9  C8  UNL     1      26.157   8.136  49.391  1.00  0.00     0.056 A 
HETATM   10  C9  UNL     1      25.202   7.719  50.291  1.00  0.00     0.120 A 
HETATM   11  N1  UNL     1      24.997   6.408  50.501  1.00  0.00    -0.255 NA
HETATM   12  C10 UNL     1      25.719   5.457  49.838  1.00  0.00     0.126 A 
HETATM   13  C13 UNL     1      26.688   5.885  48.924  1.00  0.00     0.074 A 
BRANCH  12  14
HETATM   14  C11 UNL     1      25.465   4.046  50.096  1.00  0.00     0.269 C 
HETATM   15  O2  UNL     1      24.970   3.291  49.202  1.00  0.00    -0.266 OA
HETATM   16  N2  UNL     1      25.772   3.499  51.357  1.00  0.00    -0.360 N 
HETATM   17  C12 UNL     1      25.491   2.095  51.533  1.00  0.00     0.149 C 
HETATM   18  H11 UNL     1      26.186   4.147  52.091  1.00  0.00     0.162 HD
ENDBRANCH  12  14
ENDBRANCH   7   8
ENDBRANCH   6   7
ENDBRANCH   5   6
ENDBRANCH   3   4
BRANCH   3  19
HETATM   19  N3  UNL     1      30.070   9.077  49.179  1.00  0.00    -0.309 N 
HETATM   20  C14 UNL     1      30.934   8.058  48.754  1.00  0.00     0.325 C 
HETATM   21  O3  UNL     1      31.455   8.143  47.610  1.00  0.00    -0.247 OA
HETATM   22  N4  UNL     1      31.250   6.929  49.554  1.00  0.00    -0.309 N 
HETATM   23  H17 UNL     1      30.822   6.855  50.497  1.00  0.00     0.170 HD
HETATM   24  H16 UNL     1      29.680   8.919  50.149  1.00  0.00     0.170 HD
BRANCH  22  25
HETATM   25  C15 UNL     1      32.158   6.033  48.884  1.00  0.00     0.037 A 
HETATM   26  C16 UNL     1      33.518   6.244  49.081  1.00  0.00     0.031 A 
HETATM   27  C17 UNL     1      34.452   5.413  48.462  1.00  0.00     0.027 A 
HETATM   28  C18 UNL     1      34.059   4.379  47.651  1.00  0.00     0.049 A 
HETATM   29 CL1  UNL     1      35.218   3.319  46.861  1.00  0.00    -0.083 Cl
HETATM   30  C19 UNL     1      32.690   4.175  47.460  1.00  0.00     0.071 A 
HETATM   31  C21 UNL     1      31.755   4.996  48.072  1.00  0.00     0.047 A 
BRANCH  30  32
HETATM   32  C20 UNL     1      32.283   3.056  46.585  1.00  0.00     0.419 C 
HETATM   33  F1  UNL     1      32.669   3.382  45.279  1.00  0.00    -0.166 F 
HETATM   34  F2  UNL     1      30.902   2.885  46.536  1.00  0.00    -0.166 F 
HETATM   35  F3  UNL     1      32.918   1.916  47.020  1.00  0.00    -0.166 F 
ENDBRANCH  30  32
ENDBRANCH  22  25
ENDBRANCH   3  19
TORSDOF 8
ENDMDL
MODEL 6
REMARK VINA RESULT:      -7.5      4.784      6.657
REMARK  8 active torsions:
REMARK  status: ('A' for Active; 'I' for Inactive)
REMARK    1  A    between atoms: C3_3  and  C4_4 
REMARK    2  A    between atoms: C3_3  and  N3_18 
REMARK    3  A    between atoms: C5_5  and  C6_6 
REMARK    4  A    between atoms: C6_6  and  O1_7 
REMARK    5  A    between atoms: O1_7  and  C7_8 
REMARK    6  A    between atoms: C10_12  and  C11_13 
REMARK       I    between atoms: C11_13  and  N2_15 
REMARK       I    between atoms: N3_18  and  C14_19 
REMARK       I    between atoms: C14_19  and  N4_21 
REMARK    7  A    between atoms: N4_21  and  C15_22 
REMARK    8  A    between atoms: C19_27  and  C20_28 
ROOT
HETATM    1  C1  UNL     1      23.373   6.963  50.566  1.00  0.00     0.038 C 
HETATM    2  C2  UNL     1      24.809   7.366  50.449  1.00  0.00    -0.002 C 
HETATM    3  C3  UNL     1      25.609   6.539  49.750  1.00  0.00     0.032 C 
ENDROOT
BRANCH   3   4
HETATM    4  C4  UNL     1      25.054   5.337  49.165  1.00  0.00     0.027 C 
HETATM    5  C5  UNL     1      25.484   4.091  49.302  1.00  0.00     0.002 C 
BRANCH   5   6
HETATM    6  C6  UNL     1      26.478   3.201  49.909  1.00  0.00     0.203 C 
BRANCH   6   7
HETATM    7  O1  UNL     1      26.266   3.007  51.288  1.00  0.00    -0.347 OA
BRANCH   7   8
HETATM    8  C7  UNL     1      26.124   1.776  51.857  1.00  0.00     0.072 A 
HETATM    9  C8  UNL     1      26.986   0.723  52.079  1.00  0.00     0.056 A 
HETATM   10  C9  UNL     1      26.578  -0.440  52.692  1.00  0.00     0.120 A 
HETATM   11  N1  UNL     1      25.304  -0.580  53.097  1.00  0.00    -0.255 NA
HETATM   12  C10 UNL     1      24.384   0.413  52.917  1.00  0.00     0.126 A 
HETATM   13  C13 UNL     1      24.803   1.594  52.294  1.00  0.00     0.074 A 
BRANCH  12  14
HETATM   14  C11 UNL     1      23.013   0.220  53.370  1.00  0.00     0.269 C 
HETATM   15  O2  UNL     1      22.104   1.064  53.098  1.00  0.00    -0.266 OA
HETATM   16  N2  UNL     1      22.680  -0.922  54.125  1.00  0.00    -0.360 N 
HETATM   17  C12 UNL     1      21.303  -1.041  54.536  1.00  0.00     0.149 C 
HETATM   18  H11 UNL     1      23.455  -1.616  54.342  1.00  0.00     0.162 HD
ENDBRANCH  12  14
ENDBRANCH   7   8
ENDBRANCH   6   7
ENDBRANCH   5   6
ENDBRANCH   3   4
BRANCH   3  19
HETATM   19  N3  UNL     1      26.933   7.063  49.732  1.00  0.00    -0.309 N 
HETATM   20  C14 UNL     1      28.002   6.862  48.848  1.00  0.00     0.325 C 
HETATM   21  O3  UNL     1      27.839   6.091  47.865  1.00  0.00    -0.247 OA
HETATM   22  N4  UNL     1      29.266   7.489  49.008  1.00  0.00    -0.309 N 
HETATM   23  H17 UNL     1      29.404   8.125  49.816  1.00  0.00     0.170 HD
HETATM   24  H16 UNL     1      27.164   7.724  50.526  1.00  0.00     0.170 HD
BRANCH  22  25
HETATM   25  C15 UNL     1      30.186   7.114  47.965  1.00  0.00     0.037 A 
HETATM   26  C16 UNL     1      30.312   7.982  46.887  1.00  0.00     0.031 A 
HETATM   27  C17 UNL     1      31.187   7.680  45.843  1.00  0.00     0.027 A 
HETATM   28  C18 UNL     1      31.936   6.531  45.851  1.00  0.00     0.049 A 
HETATM   29 CL1  UNL     1      33.044   6.130  44.546  1.00  0.00    -0.083 Cl
HETATM   30  C19 UNL     1      31.802   5.665  46.938  1.00  0.00     0.071 A 
HETATM   31  C21 UNL     1      30.936   5.958  47.981  1.00  0.00     0.047 A 
BRANCH  30  32
HETATM   32  C20 UNL     1      32.617   4.432  46.933  1.00  0.00     0.419 C 
HETATM   33  F1  UNL     1      32.347   3.745  48.122  1.00  0.00    -0.166 F 
HETATM   34  F2  UNL     1      33.985   4.690  46.952  1.00  0.00    -0.166 F 
HETATM   35  F3  UNL     1      32.260   3.684  45.836  1.00  0.00    -0.166 F 
ENDBRANCH  30  32
ENDBRANCH  22  25
ENDBRANCH   3  19
TORSDOF 8
ENDMDL
MODEL 7
REMARK VINA RESULT:      -7.5      3.207      6.991
REMARK  8 active torsions:
REMARK  status: ('A' for Active; 'I' for Inactive)
REMARK    1  A    between atoms: C3_3  and  C4_4 
REMARK    2  A    between atoms: C3_3  and  N3_18 
REMARK    3  A    between atoms: C5_5  and  C6_6 
REMARK    4  A    between atoms: C6_6  and  O1_7 
REMARK    5  A    between atoms: O1_7  and  C7_8 
REMARK    6  A    between atoms: C10_12  and  C11_13 
REMARK       I    between atoms: C11_13  and  N2_15 
REMARK       I    between atoms: N3_18  and  C14_19 
REMARK       I    between atoms: C14_19  and  N4_21 
REMARK    7  A    between atoms: N4_21  and  C15_22 
REMARK    8  A    between atoms: C19_27  and  C20_28 
ROOT
HETATM    1  C1  UNL     1      21.033   6.907  49.950  1.00  0.00     0.038 C 
HETATM    2  C2  UNL     1      21.720   6.216  51.085  1.00  0.00    -0.002 C 
HETATM    3  C3  UNL     1      22.668   5.319  50.757  1.00  0.00     0.032 C 
ENDROOT
BRANCH   3   4
HETATM    4  C4  UNL     1      22.965   5.076  49.361  1.00  0.00     0.027 C 
HETATM    5  C5  UNL     1      24.019   5.486  48.670  1.00  0.00     0.002 C 
BRANCH   5   6
HETATM    6  C6  UNL     1      25.283   6.230  48.693  1.00  0.00     0.203 C 
BRANCH   6   7
HETATM    7  O1  UNL     1      26.411   5.388  48.663  1.00  0.00    -0.347 OA
BRANCH   7   8
HETATM    8  C7  UNL     1      27.684   5.849  48.493  1.00  0.00     0.072 A 
HETATM    9  C8  UNL     1      28.885   5.243  48.194  1.00  0.00     0.056 A 
HETATM   10  C9  UNL     1      30.055   5.958  48.076  1.00  0.00     0.120 A 
HETATM   11  N1  UNL     1      30.055   7.290  48.253  1.00  0.00    -0.255 NA
HETATM   12  C10 UNL     1      28.910   7.971  48.552  1.00  0.00     0.126 A 
HETATM   13  C13 UNL     1      27.722   7.241  48.671  1.00  0.00     0.074 A 
BRANCH  12  14
HETATM   14  C11 UNL     1      28.954   9.415  48.737  1.00  0.00     0.269 C 
HETATM   15  O2  UNL     1      30.003   9.994  49.160  1.00  0.00    -0.266 OA
HETATM   16  N2  UNL     1      27.817  10.193  48.443  1.00  0.00    -0.360 N 
HETATM   17  C12 UNL     1      27.941  11.615  48.651  1.00  0.00     0.149 C 
HETATM   18  H11 UNL     1      26.950   9.690  48.090  1.00  0.00     0.162 HD
ENDBRANCH  12  14
ENDBRANCH   7   8
ENDBRANCH   6   7
ENDBRANCH   5   6
ENDBRANCH   3   4
BRANCH   3  19
HETATM   19  N3  UNL     1      23.220   4.756  51.942  1.00  0.00    -0.309 N 
HETATM   20  C14 UNL     1      24.093   3.677  52.142  1.00  0.00     0.325 C 
HETATM   21  O3  UNL     1      24.507   3.039  51.138  1.00  0.00    -0.247 OA
HETATM   22  N4  UNL     1      24.533   3.267  53.428  1.00  0.00    -0.309 N 
HETATM   23  H17 UNL     1      24.193   3.789  54.258  1.00  0.00     0.170 HD
HETATM   24  H16 UNL     1      22.924   5.228  52.842  1.00  0.00     0.170 HD
BRANCH  22  25
HETATM   25  C15 UNL     1      25.422   2.135  53.355  1.00  0.00     0.037 A 
HETATM   26  C16 UNL     1      24.897   0.947  52.861  1.00  0.00     0.031 A 
HETATM   27  C17 UNL     1      25.704  -0.187  52.762  1.00  0.00     0.027 A 
HETATM   28  C18 UNL     1      27.020  -0.160  53.145  1.00  0.00     0.049 A 
HETATM   29 CL1  UNL     1      28.055  -1.578  53.030  1.00  0.00    -0.083 Cl
HETATM   30  C19 UNL     1      27.538   1.038  53.641  1.00  0.00     0.071 A 
HETATM   31  C21 UNL     1      26.744   2.171  53.742  1.00  0.00     0.047 A 
BRANCH  30  32
HETATM   32  C20 UNL     1      28.959   1.051  54.048  1.00  0.00     0.419 C 
HETATM   33  F1  UNL     1      29.090   0.183  55.139  1.00  0.00    -0.166 F 
HETATM   34  F2  UNL     1      29.376   2.296  54.509  1.00  0.00    -0.166 F 
HETATM   35  F3  UNL     1      29.717   0.627  52.983  1.00  0.00    -0.166 F 
ENDBRANCH  30  32
ENDBRANCH  22  25
ENDBRANCH   3  19
TORSDOF 8
ENDMDL
MODEL 8
REMARK VINA RESULT:      -7.5      4.468      8.687
REMARK  8 active torsions:
REMARK  status: ('A' for Active; 'I' for Inactive)
REMARK    1  A    between atoms: C3_3  and  C4_4 
REMARK    2  A    between atoms: C3_3  and  N3_18 
REMARK    3  A    between atoms: C5_5  and  C6_6 
REMARK    4  A    between atoms: C6_6  and  O1_7 
REMARK    5  A    between atoms: O1_7  and  C7_8 
REMARK    6  A    between atoms: C10_12  and  C11_13 
REMARK       I    between atoms: C11_13  and  N2_15 
REMARK       I    between atoms: N3_18  and  C14_19 
REMARK       I    between atoms: C14_19  and  N4_21 
REMARK    7  A    between atoms: N4_21  and  C15_22 
REMARK    8  A    between atoms: C19_27  and  C20_28 
ROOT
HETATM    1  C1  UNL     1      23.720   6.285  47.648  1.00  0.00     0.038 C 
HETATM    2  C2  UNL     1      23.826   5.539  48.940  1.00  0.00    -0.002 C 
HETATM    3  C3  UNL     1      25.033   5.538  49.536  1.00  0.00     0.032 C 
ENDROOT
BRANCH   3   4
HETATM    4  C4  UNL     1      26.134   6.241  48.912  1.00  0.00     0.027 C 
HETATM    5  C5  UNL     1      26.578   7.460  49.180  1.00  0.00     0.002 C 
BRANCH   5   6
HETATM    6  C6  UNL     1      26.419   8.668  49.997  1.00  0.00     0.203 C 
BRANCH   6   7
HETATM    7  O1  UNL     1      27.651   9.239  50.371  1.00  0.00    -0.347 OA
BRANCH   7   8
HETATM    8  C7  UNL     1      28.666   9.471  49.490  1.00  0.00     0.072 A 
HETATM    9  C8  UNL     1      29.778   8.754  49.107  1.00  0.00     0.056 A 
HETATM   10  C9  UNL     1      30.668   9.228  48.170  1.00  0.00     0.120 A 
HETATM   11  N1  UNL     1      30.471  10.427  47.596  1.00  0.00    -0.255 NA
HETATM   12  C10 UNL     1      29.395  11.204  47.916  1.00  0.00     0.126 A 
HETATM   13  C13 UNL     1      28.492  10.717  48.868  1.00  0.00     0.074 A 
BRANCH  12  14
HETATM   14  C11 UNL     1      29.218  12.497  47.270  1.00  0.00     0.269 C 
HETATM   15  O2  UNL     1      29.731  12.741  46.133  1.00  0.00    -0.266 OA
HETATM   16  N2  UNL     1      28.468  13.503  47.910  1.00  0.00    -0.360 N 
HETATM   17  C12 UNL     1      28.339  14.755  47.205  1.00  0.00     0.149 C 
HETATM   18  H11 UNL     1      28.048  13.279  48.860  1.00  0.00     0.162 HD
ENDBRANCH  12  14
ENDBRANCH   7   8
ENDBRANCH   6   7
ENDBRANCH   5   6
ENDBRANCH   3   4
BRANCH   3  19
HETATM   19  N3  UNL     1      24.965   4.791  50.746  1.00  0.00    -0.309 N 
HETATM   20  C14 UNL     1      25.619   3.621  51.156  1.00  0.00     0.325 C 
HETATM   21  O3  UNL     1      26.430   3.072  50.365  1.00  0.00    -0.247 OA
HETATM   22  N4  UNL     1      25.409   3.023  52.426  1.00  0.00    -0.309 N 
HETATM   23  H17 UNL     1      24.741   3.472  53.081  1.00  0.00     0.170 HD
HETATM   24  H16 UNL     1      24.302   5.179  51.474  1.00  0.00     0.170 HD
BRANCH  22  25
HETATM   25  C15 UNL     1      26.202   1.832  52.596  1.00  0.00     0.037 A 
HETATM   26  C16 UNL     1      25.741   0.671  51.986  1.00  0.00     0.031 A 
HETATM   27  C17 UNL     1      26.461  -0.518  52.110  1.00  0.00     0.027 A 
HETATM   28  C18 UNL     1      27.629  -0.572  52.827  1.00  0.00     0.049 A 
HETATM   29 CL1  UNL     1      28.553  -2.059  52.995  1.00  0.00    -0.083 Cl
HETATM   30  C19 UNL     1      28.084   0.600  53.435  1.00  0.00     0.071 A 
HETATM   31  C21 UNL     1      27.375   1.786  53.318  1.00  0.00     0.047 A 
BRANCH  30  32
HETATM   32  C20 UNL     1      29.344   0.525  54.203  1.00  0.00     0.419 C 
HETATM   33  F1  UNL     1      29.626   1.813  54.674  1.00  0.00    -0.166 F 
HETATM   34  F2  UNL     1      30.435   0.167  53.416  1.00  0.00    -0.166 F 
HETATM   35  F3  UNL     1      29.162  -0.355  55.244  1.00  0.00    -0.166 F 
ENDBRANCH  30  32
ENDBRANCH  22  25
ENDBRANCH   3  19
TORSDOF 8
ENDMDL
MODEL 9
REMARK VINA RESULT:      -7.5      2.720      3.756
REMARK  8 active torsions:
REMARK  status: ('A' for Active; 'I' for Inactive)
REMARK    1  A    between atoms: C3_3  and  C4_4 
REMARK    2  A    between atoms: C3_3  and  N3_18 
REMARK    3  A    between atoms: C5_5  and  C6_6 
REMARK    4  A    between atoms: C6_6  and  O1_7 
REMARK    5  A    between atoms: O1_7  and  C7_8 
REMARK    6  A    between atoms: C10_12  and  C11_13 
REMARK       I    between atoms: C11_13  and  N2_15 
REMARK       I    between atoms: N3_18  and  C14_19 
REMARK       I    between atoms: C14_19  and  N4_21 
REMARK    7  A    between atoms: N4_21  and  C15_22 
REMARK    8  A    between atoms: C19_27  and  C20_28 
ROOT
HETATM    1  C1  UNL     1      23.796   7.371  46.857  1.00  0.00     0.038 C 
HETATM    2  C2  UNL     1      24.138   6.849  48.217  1.00  0.00    -0.002 C 
HETATM    3  C3  UNL     1      23.220   6.062  48.807  1.00  0.00     0.032 C 
ENDROOT
BRANCH   3   4
HETATM    4  C4  UNL     1      21.983   5.768  48.114  1.00  0.00     0.027 C 
HETATM    5  C5  UNL     1      21.601   4.616  47.583  1.00  0.00     0.002 C 
BRANCH   5   6
HETATM    6  C6  UNL     1      21.943   3.213  47.332  1.00  0.00     0.203 C 
BRANCH   6   7
HETATM    7  O1  UNL     1      20.898   2.329  47.665  1.00  0.00    -0.347 OA
BRANCH   7   8
HETATM    8  C7  UNL     1      20.729   1.808  48.914  1.00  0.00     0.072 A 
HETATM    9  C8  UNL     1      21.430   0.891  49.668  1.00  0.00     0.056 A 
HETATM   10  C9  UNL     1      21.034   0.532  50.936  1.00  0.00     0.120 A 
HETATM   11  N1  UNL     1      19.933   1.075  51.481  1.00  0.00    -0.255 NA
HETATM   12  C10 UNL     1      19.179   1.991  50.804  1.00  0.00     0.126 A 
HETATM   13  C13 UNL     1      19.585   2.355  49.516  1.00  0.00     0.074 A 
BRANCH  12  14
HETATM   14  C11 UNL     1      17.992   2.556  51.432  1.00  0.00     0.269 C 
HETATM   15  O2  UNL     1      18.037   3.668  52.046  1.00  0.00    -0.266 OA
HETATM   16  N2  UNL     1      16.767   1.864  51.362  1.00  0.00    -0.360 N 
HETATM   17  C12 UNL     1      15.639   2.489  52.008  1.00  0.00     0.149 C 
HETATM   18  H11 UNL     1      16.751   0.936  50.844  1.00  0.00     0.162 HD
ENDBRANCH  12  14
ENDBRANCH   7   8
ENDBRANCH   6   7
ENDBRANCH   5   6
ENDBRANCH   3   4
BRANCH   3  19
HETATM   19  N3  UNL     1      23.697   5.652  50.085  1.00  0.00    -0.309 N 
HETATM   20  C14 UNL     1      24.101   4.400  50.570  1.00  0.00     0.325 C 
HETATM   21  O3  UNL     1      24.065   3.409  49.794  1.00  0.00    -0.247 OA
HETATM   22  N4  UNL     1      24.552   4.196  51.901  1.00  0.00    -0.309 N 
HETATM   23  H17 UNL     1      24.583   5.010  52.543  1.00  0.00     0.170 HD
HETATM   24  H16 UNL     1      23.759   6.422  50.807  1.00  0.00     0.170 HD
BRANCH  22  25
HETATM   25  C15 UNL     1      24.907   2.820  52.141  1.00  0.00     0.037 A 
HETATM   26  C16 UNL     1      26.156   2.401  51.700  1.00  0.00     0.031 A 
HETATM   27  C17 UNL     1      26.563   1.081  51.902  1.00  0.00     0.027 A 
HETATM   28  C18 UNL     1      25.751   0.174  52.533  1.00  0.00     0.049 A 
HETATM   29 CL1  UNL     1      26.243  -1.493  52.797  1.00  0.00    -0.083 Cl
HETATM   30  C19 UNL     1      24.497   0.605  52.972  1.00  0.00     0.071 A 
HETATM   31  C21 UNL     1      24.085   1.915  52.776  1.00  0.00     0.047 A 
BRANCH  30  32
HETATM   32  C20 UNL     1      23.635  -0.384  53.651  1.00  0.00     0.419 C 
HETATM   33  F1  UNL     1      22.519   0.301  54.146  1.00  0.00    -0.166 F 
HETATM   34  F2  UNL     1      24.245  -0.958  54.763  1.00  0.00    -0.166 F 
HETATM   35  F3  UNL     1      23.264  -1.336  52.731  1.00  0.00    -0.166 F 
ENDBRANCH  30  32
ENDBRANCH  22  25
ENDBRANCH   3  19
TORSDOF 8
ENDMDL
