MODEL 1
REMARK VINA RESULT:      -9.4      0.000      0.000
REMARK  5 active torsions:
REMARK  status: ('A' for Active; 'I' for Inactive)
REMARK    1  A    between atoms: N1_2  and  C3_4 
REMARK    2  A    between atoms: C3_4  and  C4_5 
REMARK    3  A    between atoms: C5_6  and  C6_7 
REMARK       I    between atoms: C6_7  and  N2_9 
REMARK    4  A    between atoms: N2_9  and  C7_10 
REMARK    5  A    between atoms: C14_19  and  N5_20 
ROOT
HETATM    1  C7  UNL     1      25.969   3.175  49.915  1.00  0.00     0.035 A 
HETATM    2  C8  UNL     1      24.631   3.340  49.695  1.00  0.00     0.032 A 
HETATM    3  C9  UNL     1      23.611   2.747  50.404  1.00  0.00     0.035 A 
HETATM    4  C10 UNL     1      23.922   1.906  51.435  1.00  0.00     0.069 A 
HETATM    5  N3  UNL     1      22.948   1.312  52.145  1.00  0.00    -0.259 NA
HETATM    6  C11 UNL     1      23.256   0.476  53.170  1.00  0.00     0.142 A 
HETATM    7  C12 UNL     1      24.611   0.263  53.449  1.00  0.00     0.089 A 
HETATM    8  C13 UNL     1      24.886  -0.638  54.553  1.00  0.00     0.103 C 
HETATM    9  N4  UNL     1      25.112  -1.363  55.429  1.00  0.00    -0.191 NA
HETATM   10  C14 UNL     1      25.645   0.862  52.735  1.00  0.00     0.069 A 
HETATM   11  C20 UNL     1      25.262   1.703  51.703  1.00  0.00     0.023 A 
HETATM   12  C21 UNL     1      26.248   2.324  50.959  1.00  0.00     0.045 A 
ENDROOT
BRANCH  10  13
HETATM   13  N5  UNL     1      26.985   0.603  53.070  1.00  0.00    -0.348 N 
HETATM   14  C15 UNL     1      27.680   1.680  53.698  1.00  0.00     0.133 A 
HETATM   15  C16 UNL     1      28.950   1.532  54.055  1.00  0.00     0.131 A 
HETATM   16  F1  UNL     1      29.645   2.516  54.647  1.00  0.00    -0.205 F 
HETATM   17  C17 UNL     1      29.611   0.261  53.792  1.00  0.00     0.041 A 
HETATM   18  C18 UNL     1      29.004  -0.739  53.221  1.00  0.00    -0.004 A 
HETATM   19  C19 UNL     1      27.586  -0.690  52.780  1.00  0.00     0.156 A 
ENDBRANCH  10  13
BRANCH   1  20
HETATM   20  N2  UNL     1      27.026   3.757  49.218  1.00  0.00    -0.324 N 
HETATM   21  C6  UNL     1      27.265   5.103  48.879  1.00  0.00     0.245 C 
HETATM   22  O1  UNL     1      26.423   5.960  49.239  1.00  0.00    -0.268 OA
HETATM   23  H11 UNL     1      27.804   3.135  48.862  1.00  0.00     0.169 HD
BRANCH  21  24
HETATM   24  C5  UNL     1      28.412   5.568  48.148  1.00  0.00     0.072 C 
HETATM   25  C4  UNL     1      28.657   6.834  47.893  1.00  0.00     0.008 C 
BRANCH  25  26
HETATM   26  C3  UNL     1      28.055   8.149  48.149  1.00  0.00     0.299 C 
BRANCH  26  27
HETATM   27  N1  UNL     1      28.542   8.758  49.376  1.00  0.00     0.083 N 
HETATM   28  C1  UNL     1      27.446   9.250  50.146  1.00  0.00     0.309 C 
HETATM   29  C2  UNL     1      29.444   9.837  49.090  1.00  0.00     0.309 C 
ENDBRANCH  26  27
ENDBRANCH  25  26
ENDBRANCH  21  24
ENDBRANCH   1  20
TORSDOF 5
ENDMDL
MODEL 2
REMARK VINA RESULT:      -8.9      1.797      2.329
REMARK  5 active torsions:
REMARK  status: ('A' for Active; 'I' for Inactive)
REMARK    1  A    between atoms: N1_2  and  C3_4 
REMARK    2  A    between atoms: C3_4  and  C4_5 
REMARK    3  A    between atoms: C5_6  and  C6_7 
REMARK       I    between atoms: C6_7  and  N2_9 
REMARK    4  A    between atoms: N2_9  and  C7_10 
REMARK    5  A    between atoms: C14_19  and  N5_20 
ROOT
HETATM    1  C7  UNL     1      24.341   2.936  50.097  1.00  0.00     0.035 A 
HETATM    2  C8  UNL     1      23.024   3.196  49.844  1.00  0.00     0.032 A 
HETATM    3  C9  UNL     1      21.947   2.673  50.522  1.00  0.00     0.035 A 
HETATM    4  C10 UNL     1      22.171   1.808  51.555  1.00  0.00     0.069 A 
HETATM    5  N3  UNL     1      21.139   1.281  52.237  1.00  0.00    -0.259 NA
HETATM    6  C11 UNL     1      21.362   0.421  53.264  1.00  0.00     0.142 A 
HETATM    7  C12 UNL     1      22.690   0.113  53.577  1.00  0.00     0.089 A 
HETATM    8  C13 UNL     1      22.872  -0.811  54.682  1.00  0.00     0.103 C 
HETATM    9  N4  UNL     1      23.024  -1.553  55.559  1.00  0.00    -0.191 NA
HETATM   10  C14 UNL     1      23.782   0.640  52.893  1.00  0.00     0.069 A 
HETATM   11  C20 UNL     1      23.486   1.510  51.857  1.00  0.00     0.023 A 
HETATM   12  C21 UNL     1      24.532   2.064  51.143  1.00  0.00     0.045 A 
ENDROOT
BRANCH  10  13
HETATM   13  N5  UNL     1      25.092   0.286  53.262  1.00  0.00    -0.348 N 
HETATM   14  C15 UNL     1      25.584  -0.926  52.689  1.00  0.00     0.133 A 
HETATM   15  C16 UNL     1      26.811  -1.343  52.975  1.00  0.00     0.131 A 
HETATM   16  F1  UNL     1      27.318  -2.475  52.461  1.00  0.00    -0.205 F 
HETATM   17  C17 UNL     1      27.633  -0.547  53.876  1.00  0.00     0.041 A 
HETATM   18  C18 UNL     1      27.211   0.561  54.414  1.00  0.00    -0.004 A 
HETATM   19  C19 UNL     1      25.860   1.126  54.167  1.00  0.00     0.156 A 
ENDBRANCH  10  13
BRANCH   1  20
HETATM   20  N2  UNL     1      25.454   3.446  49.431  1.00  0.00    -0.324 N 
HETATM   21  C6  UNL     1      26.064   4.713  49.509  1.00  0.00     0.245 C 
HETATM   22  O1  UNL     1      25.566   5.560  50.289  1.00  0.00    -0.268 OA
HETATM   23  H11 UNL     1      25.964   2.824  48.743  1.00  0.00     0.169 HD
BRANCH  21  24
HETATM   24  C5  UNL     1      27.223   5.108  48.755  1.00  0.00     0.072 C 
HETATM   25  C4  UNL     1      27.379   6.297  48.218  1.00  0.00     0.008 C 
BRANCH  25  26
HETATM   26  C3  UNL     1      26.649   7.567  48.114  1.00  0.00     0.299 C 
BRANCH  26  27
HETATM   27  N1  UNL     1      27.347   8.668  48.757  1.00  0.00     0.083 N 
HETATM   28  C1  UNL     1      28.757   8.455  48.700  1.00  0.00     0.309 C 
HETATM   29  C2  UNL     1      26.942   8.802  50.127  1.00  0.00     0.309 C 
ENDBRANCH  26  27
ENDBRANCH  25  26
ENDBRANCH  21  24
ENDBRANCH   1  20
TORSDOF 5
ENDMDL
MODEL 3
REMARK VINA RESULT:      -8.8      4.770      7.514
REMARK  5 active torsions:
REMARK  status: ('A' for Active; 'I' for Inactive)
REMARK    1  A    between atoms: N1_2  and  C3_4 
REMARK    2  A    between atoms: C3_4  and  C4_5 
REMARK    3  A    between atoms: C5_6  and  C6_7 
REMARK       I    between atoms: C6_7  and  N2_9 
REMARK    4  A    between atoms: N2_9  and  C7_10 
REMARK    5  A    between atoms: C14_19  and  N5_20 
ROOT
HETATM    1  C7  UNL     1      23.773   0.224  53.224  1.00  0.00     0.035 A 
HETATM    2  C8  UNL     1      23.242  -0.535  54.228  1.00  0.00     0.032 A 
HETATM    3  C9  UNL     1      21.922  -0.903  54.358  1.00  0.00     0.035 A 
HETATM    4  C10 UNL     1      21.024  -0.493  53.414  1.00  0.00     0.069 A 
HETATM    5  N3  UNL     1      19.728  -0.837  53.514  1.00  0.00    -0.259 NA
HETATM    6  C11 UNL     1      18.835  -0.430  52.576  1.00  0.00     0.142 A 
HETATM    7  C12 UNL     1      19.314   0.351  51.518  1.00  0.00     0.089 A 
HETATM    8  C13 UNL     1      18.319   0.759  50.544  1.00  0.00     0.103 C 
HETATM    9  N4  UNL     1      17.528   1.095  49.766  1.00  0.00    -0.191 NA
HETATM   10  C14 UNL     1      20.648   0.725  51.383  1.00  0.00     0.069 A 
HETATM   11  C20 UNL     1      21.507   0.277  52.374  1.00  0.00     0.023 A 
HETATM   12  C21 UNL     1      22.843   0.619  52.291  1.00  0.00     0.045 A 
ENDROOT
BRANCH  10  13
HETATM   13  N5  UNL     1      21.061   1.512  50.294  1.00  0.00    -0.348 N 
HETATM   14  C15 UNL     1      21.030   2.923  50.510  1.00  0.00     0.133 A 
HETATM   15  C16 UNL     1      21.403   3.750  49.541  1.00  0.00     0.131 A 
HETATM   16  F1  UNL     1      21.391   5.083  49.696  1.00  0.00    -0.205 F 
HETATM   17  C17 UNL     1      21.838   3.192  48.268  1.00  0.00     0.041 A 
HETATM   18  C18 UNL     1      21.877   1.910  48.042  1.00  0.00    -0.004 A 
HETATM   19  C19 UNL     1      21.484   0.891  49.048  1.00  0.00     0.156 A 
ENDBRANCH  10  13
BRANCH   1  20
HETATM   20  N2  UNL     1      25.101   0.616  53.063  1.00  0.00    -0.324 N 
HETATM   21  C6  UNL     1      25.719   1.862  53.286  1.00  0.00     0.245 C 
HETATM   22  O1  UNL     1      25.006   2.807  53.699  1.00  0.00    -0.268 OA
HETATM   23  H11 UNL     1      25.803  -0.097  52.718  1.00  0.00     0.169 HD
BRANCH  21  24
HETATM   24  C5  UNL     1      27.116   2.128  53.076  1.00  0.00     0.072 C 
HETATM   25  C4  UNL     1      28.086   1.483  53.683  1.00  0.00     0.008 C 
BRANCH  25  26
HETATM   26  C3  UNL     1      28.250   0.403  54.664  1.00  0.00     0.299 C 
BRANCH  26  27
HETATM   27  N1  UNL     1      28.931  -0.757  54.112  1.00  0.00     0.083 N 
HETATM   28  C1  UNL     1      30.162  -0.361  53.509  1.00  0.00     0.309 C 
HETATM   29  C2  UNL     1      28.113  -1.415  53.135  1.00  0.00     0.309 C 
ENDBRANCH  26  27
ENDBRANCH  25  26
ENDBRANCH  21  24
ENDBRANCH   1  20
TORSDOF 5
ENDMDL
MODEL 4
REMARK VINA RESULT:      -8.8      3.085      5.134
REMARK  5 active torsions:
REMARK  status: ('A' for Active; 'I' for Inactive)
REMARK    1  A    between atoms: N1_2  and  C3_4 
REMARK    2  A    between atoms: C3_4  and  C4_5 
REMARK    3  A    between atoms: C5_6  and  C6_7 
REMARK       I    between atoms: C6_7  and  N2_9 
REMARK    4  A    between atoms: N2_9  and  C7_10 
REMARK    5  A    between atoms: C14_19  and  N5_20 
ROOT
HETATM    1  C7  UNL     1      26.250   2.517  52.100  1.00  0.00     0.035 A 
HETATM    2  C8  UNL     1      27.233   1.924  52.841  1.00  0.00     0.032 A 
HETATM    3  C9  UNL     1      27.072   0.870  53.710  1.00  0.00     0.035 A 
HETATM    4  C10 UNL     1      25.827   0.333  53.879  1.00  0.00     0.069 A 
HETATM    5  N3  UNL     1      25.639  -0.697  54.721  1.00  0.00    -0.259 NA
HETATM    6  C11 UNL     1      24.401  -1.230  54.888  1.00  0.00     0.142 A 
HETATM    7  C12 UNL     1      23.348  -0.669  54.157  1.00  0.00     0.089 A 
HETATM    8  C13 UNL     1      22.047  -1.276  54.373  1.00  0.00     0.103 C 
HETATM    9  N4  UNL     1      21.004  -1.751  54.546  1.00  0.00    -0.191 NA
HETATM   10  C14 UNL     1      23.507   0.397  53.277  1.00  0.00     0.069 A 
HETATM   11  C20 UNL     1      24.794   0.894  53.153  1.00  0.00     0.023 A 
HETATM   12  C21 UNL     1      25.011   1.954  52.292  1.00  0.00     0.045 A 
ENDROOT
BRANCH  10  13
HETATM   13  N5  UNL     1      22.403   0.912  52.574  1.00  0.00    -0.348 N 
HETATM   14  C15 UNL     1      22.281   0.476  51.220  1.00  0.00     0.133 A 
HETATM   15  C16 UNL     1      21.269   0.905  50.475  1.00  0.00     0.131 A 
HETATM   16  F1  UNL     1      21.112   0.523  49.198  1.00  0.00    -0.205 F 
HETATM   17  C17 UNL     1      20.301   1.821  51.062  1.00  0.00     0.041 A 
HETATM   18  C18 UNL     1      20.387   2.236  52.294  1.00  0.00    -0.004 A 
HETATM   19  C19 UNL     1      21.472   1.824  53.220  1.00  0.00     0.156 A 
ENDBRANCH  10  13
BRANCH   1  20
HETATM   20  N2  UNL     1      26.377   3.585  51.213  1.00  0.00    -0.324 N 
HETATM   21  C6  UNL     1      26.602   3.595  49.823  1.00  0.00     0.245 C 
HETATM   22  O1  UNL     1      26.713   2.492  49.236  1.00  0.00    -0.268 OA
HETATM   23  H11 UNL     1      26.301   4.570  51.590  1.00  0.00     0.169 HD
BRANCH  21  24
HETATM   24  C5  UNL     1      26.713   4.785  49.024  1.00  0.00     0.072 C 
HETATM   25  C4  UNL     1      25.756   5.678  48.899  1.00  0.00     0.008 C 
BRANCH  25  26
HETATM   26  C3  UNL     1      24.389   5.906  49.383  1.00  0.00     0.299 C 
BRANCH  26  27
HETATM   27  N1  UNL     1      24.354   6.414  50.744  1.00  0.00     0.083 N 
HETATM   28  C1  UNL     1      23.470   5.625  51.539  1.00  0.00     0.309 C 
HETATM   29  C2  UNL     1      23.922   7.783  50.769  1.00  0.00     0.309 C 
ENDBRANCH  26  27
ENDBRANCH  25  26
ENDBRANCH  21  24
ENDBRANCH   1  20
TORSDOF 5
ENDMDL
MODEL 5
REMARK VINA RESULT:      -8.6      2.824      4.867
REMARK  5 active torsions:
REMARK  status: ('A' for Active; 'I' for Inactive)
REMARK    1  A    between atoms: N1_2  and  C3_4 
REMARK    2  A    between atoms: C3_4  and  C4_5 
REMARK    3  A    between atoms: C5_6  and  C6_7 
REMARK       I    between atoms: C6_7  and  N2_9 
REMARK    4  A    between atoms: N2_9  and  C7_10 
REMARK    5  A    between atoms: C14_19  and  N5_20 
ROOT
HETATM    1  C7  UNL     1      25.978   2.713  51.955  1.00  0.00     0.035 A 
HETATM    2  C8  UNL     1      27.023   2.156  52.635  1.00  0.00     0.032 A 
HETATM    3  C9  UNL     1      26.955   1.081  53.493  1.00  0.00     0.035 A 
HETATM    4  C10 UNL     1      25.747   0.484  53.712  1.00  0.00     0.069 A 
HETATM    5  N3  UNL     1      25.649  -0.567  54.543  1.00  0.00    -0.259 NA
HETATM    6  C11 UNL     1      24.448  -1.162  54.762  1.00  0.00     0.142 A 
HETATM    7  C12 UNL     1      23.334  -0.641  54.093  1.00  0.00     0.089 A 
HETATM    8  C13 UNL     1      22.076  -1.313  54.361  1.00  0.00     0.103 C 
HETATM    9  N4  UNL     1      21.066  -1.840  54.577  1.00  0.00    -0.191 NA
HETATM   10  C14 UNL     1      23.399   0.446  53.225  1.00  0.00     0.069 A 
HETATM   11  C20 UNL     1      24.653   1.006  53.047  1.00  0.00     0.023 A 
HETATM   12  C21 UNL     1      24.777   2.088  52.196  1.00  0.00     0.045 A 
ENDROOT
BRANCH  10  13
HETATM   13  N5  UNL     1      22.239   0.918  52.587  1.00  0.00    -0.348 N 
HETATM   14  C15 UNL     1      22.086   0.525  51.223  1.00  0.00     0.133 A 
HETATM   15  C16 UNL     1      21.021   0.918  50.535  1.00  0.00     0.131 A 
HETATM   16  F1  UNL     1      20.834   0.575  49.251  1.00  0.00    -0.205 F 
HETATM   17  C17 UNL     1      20.026   1.752  51.195  1.00  0.00     0.041 A 
HETATM   18  C18 UNL     1      20.138   2.127  52.437  1.00  0.00    -0.004 A 
HETATM   19  C19 UNL     1      21.283   1.747  53.303  1.00  0.00     0.156 A 
ENDBRANCH  10  13
BRANCH   1  20
HETATM   20  N2  UNL     1      26.010   3.799  51.082  1.00  0.00    -0.324 N 
HETATM   21  C6  UNL     1      26.490   3.895  49.761  1.00  0.00     0.245 C 
HETATM   22  O1  UNL     1      26.978   2.866  49.235  1.00  0.00    -0.268 OA
HETATM   23  H11 UNL     1      25.625   4.727  51.412  1.00  0.00     0.169 HD
BRANCH  21  24
HETATM   24  C5  UNL     1      26.460   5.094  48.968  1.00  0.00     0.072 C 
HETATM   25  C4  UNL     1      27.525   5.644  48.428  1.00  0.00     0.008 C 
BRANCH  25  26
HETATM   26  C3  UNL     1      28.971   5.405  48.348  1.00  0.00     0.299 C 
BRANCH  26  27
HETATM   27  N1  UNL     1      29.748   6.629  48.449  1.00  0.00     0.083 N 
HETATM   28  C1  UNL     1      28.925   7.757  48.151  1.00  0.00     0.309 C 
HETATM   29  C2  UNL     1      30.865   6.604  47.550  1.00  0.00     0.309 C 
ENDBRANCH  26  27
ENDBRANCH  25  26
ENDBRANCH  21  24
ENDBRANCH   1  20
TORSDOF 5
ENDMDL
MODEL 6
REMARK VINA RESULT:      -8.6      3.683      6.746
REMARK  5 active torsions:
REMARK  status: ('A' for Active; 'I' for Inactive)
REMARK    1  A    between atoms: N1_2  and  C3_4 
REMARK    2  A    between atoms: C3_4  and  C4_5 
REMARK    3  A    between atoms: C5_6  and  C6_7 
REMARK       I    between atoms: C6_7  and  N2_9 
REMARK    4  A    between atoms: N2_9  and  C7_10 
REMARK    5  A    between atoms: C14_19  and  N5_20 
ROOT
HETATM    1  C7  UNL     1      22.305  -0.187  52.845  1.00  0.00     0.035 A 
HETATM    2  C8  UNL     1      22.489  -1.050  53.888  1.00  0.00     0.032 A 
HETATM    3  C9  UNL     1      23.630  -1.175  54.648  1.00  0.00     0.035 A 
HETATM    4  C10 UNL     1      24.704  -0.379  54.367  1.00  0.00     0.069 A 
HETATM    5  N3  UNL     1      25.832  -0.478  55.091  1.00  0.00    -0.259 NA
HETATM    6  C11 UNL     1      26.900   0.312  54.812  1.00  0.00     0.142 A 
HETATM    7  C12 UNL     1      26.777   1.220  53.754  1.00  0.00     0.089 A 
HETATM    8  C13 UNL     1      27.947   2.040  53.498  1.00  0.00     0.103 C 
HETATM    9  N4  UNL     1      28.880   2.693  53.283  1.00  0.00    -0.191 NA
HETATM   10  C14 UNL     1      25.625   1.349  52.983  1.00  0.00     0.069 A 
HETATM   11  C20 UNL     1      24.573   0.514  53.320  1.00  0.00     0.023 A 
HETATM   12  C21 UNL     1      23.404   0.599  52.588  1.00  0.00     0.045 A 
ENDROOT
BRANCH  10  13
HETATM   13  N5  UNL     1      25.571   2.283  51.934  1.00  0.00    -0.348 N 
HETATM   14  C15 UNL     1      24.656   3.363  52.121  1.00  0.00     0.133 A 
HETATM   15  C16 UNL     1      24.535   4.299  51.186  1.00  0.00     0.131 A 
HETATM   16  F1  UNL     1      23.689   5.333  51.317  1.00  0.00    -0.205 F 
HETATM   17  C17 UNL     1      25.345   4.197  49.980  1.00  0.00     0.041 A 
HETATM   18  C18 UNL     1      26.187   3.224  49.782  1.00  0.00    -0.004 A 
HETATM   19  C19 UNL     1      26.407   2.124  50.755  1.00  0.00     0.156 A 
ENDBRANCH  10  13
BRANCH   1  20
HETATM   20  N2  UNL     1      21.167  -0.035  52.055  1.00  0.00    -0.324 N 
HETATM   21  C6  UNL     1      20.132   0.918  52.118  1.00  0.00     0.245 C 
HETATM   22  O1  UNL     1      20.195   1.798  53.010  1.00  0.00    -0.268 OA
HETATM   23  H11 UNL     1      21.002  -0.719  51.265  1.00  0.00     0.169 HD
BRANCH  21  24
HETATM   24  C5  UNL     1      19.004   0.957  51.228  1.00  0.00     0.072 C 
HETATM   25  C4  UNL     1      19.078   1.305  49.962  1.00  0.00     0.008 C 
BRANCH  25  26
HETATM   26  C3  UNL     1      20.094   1.737  48.994  1.00  0.00     0.299 C 
BRANCH  26  27
HETATM   27  N1  UNL     1      21.161   2.509  49.608  1.00  0.00     0.083 N 
HETATM   28  C1  UNL     1      20.994   3.895  49.314  1.00  0.00     0.309 C 
HETATM   29  C2  UNL     1      22.445   2.074  49.138  1.00  0.00     0.309 C 
ENDBRANCH  26  27
ENDBRANCH  25  26
ENDBRANCH  21  24
ENDBRANCH   1  20
TORSDOF 5
ENDMDL
MODEL 7
REMARK VINA RESULT:      -8.6      2.837      4.998
REMARK  5 active torsions:
REMARK  status: ('A' for Active; 'I' for Inactive)
REMARK    1  A    between atoms: N1_2  and  C3_4 
REMARK    2  A    between atoms: C3_4  and  C4_5 
REMARK    3  A    between atoms: C5_6  and  C6_7 
REMARK       I    between atoms: C6_7  and  N2_9 
REMARK    4  A    between atoms: N2_9  and  C7_10 
REMARK    5  A    between atoms: C14_19  and  N5_20 
ROOT
HETATM    1  C7  UNL     1      26.323   2.202  51.815  1.00  0.00     0.035 A 
HETATM    2  C8  UNL     1      26.930   1.406  52.746  1.00  0.00     0.032 A 
HETATM    3  C9  UNL     1      26.309   0.479  53.552  1.00  0.00     0.035 A 
HETATM    4  C10 UNL     1      24.958   0.305  53.443  1.00  0.00     0.069 A 
HETATM    5  N3  UNL     1      24.324  -0.593  54.216  1.00  0.00    -0.259 NA
HETATM    6  C11 UNL     1      22.981  -0.766  54.108  1.00  0.00     0.142 A 
HETATM    7  C12 UNL     1      22.298   0.017  53.171  1.00  0.00     0.089 A 
HETATM    8  C13 UNL     1      20.866  -0.208  53.096  1.00  0.00     0.103 C 
HETATM    9  N4  UNL     1      19.722  -0.377  53.035  1.00  0.00    -0.191 NA
HETATM   10  C14 UNL     1      22.923   0.956  52.354  1.00  0.00     0.069 A 
HETATM   11  C20 UNL     1      24.293   1.084  52.515  1.00  0.00     0.023 A 
HETATM   12  C21 UNL     1      24.966   2.001  51.730  1.00  0.00     0.045 A 
ENDROOT
BRANCH  10  13
HETATM   13  N5  UNL     1      22.175   1.710  51.434  1.00  0.00    -0.348 N 
HETATM   14  C15 UNL     1      21.712   2.974  51.909  1.00  0.00     0.133 A 
HETATM   15  C16 UNL     1      20.998   3.761  51.113  1.00  0.00     0.131 A 
HETATM   16  F1  UNL     1      20.541   4.957  51.515  1.00  0.00    -0.205 F 
HETATM   17  C17 UNL     1      20.700   3.309  49.761  1.00  0.00     0.041 A 
HETATM   18  C18 UNL     1      21.108   2.161  49.300  1.00  0.00    -0.004 A 
HETATM   19  C19 UNL     1      21.912   1.201  50.097  1.00  0.00     0.156 A 
ENDBRANCH  10  13
BRANCH   1  20
HETATM   20  N2  UNL     1      26.920   3.149  50.985  1.00  0.00    -0.324 N 
HETATM   21  C6  UNL     1      26.525   3.636  49.724  1.00  0.00     0.245 C 
HETATM   22  O1  UNL     1      25.473   3.177  49.218  1.00  0.00    -0.268 OA
HETATM   23  H11 UNL     1      27.817   3.611  51.303  1.00  0.00     0.169 HD
BRANCH  21  24
HETATM   24  C5  UNL     1      27.244   4.627  48.971  1.00  0.00     0.072 C 
HETATM   25  C4  UNL     1      26.758   5.806  48.655  1.00  0.00     0.008 C 
BRANCH  25  26
HETATM   26  C3  UNL     1      25.524   6.579  48.847  1.00  0.00     0.299 C 
BRANCH  26  27
HETATM   27  N1  UNL     1      25.416   7.139  50.184  1.00  0.00     0.083 N 
HETATM   28  C1  UNL     1      24.393   6.465  50.916  1.00  0.00     0.309 C 
HETATM   29  C2  UNL     1      25.116   8.541  50.130  1.00  0.00     0.309 C 
ENDBRANCH  26  27
ENDBRANCH  25  26
ENDBRANCH  21  24
ENDBRANCH   1  20
TORSDOF 5
ENDMDL
MODEL 8
REMARK VINA RESULT:      -8.5      3.987      6.671
REMARK  5 active torsions:
REMARK  status: ('A' for Active; 'I' for Inactive)
REMARK    1  A    between atoms: N1_2  and  C3_4 
REMARK    2  A    between atoms: C3_4  and  C4_5 
REMARK    3  A    between atoms: C5_6  and  C6_7 
REMARK       I    between atoms: C6_7  and  N2_9 
REMARK    4  A    between atoms: N2_9  and  C7_10 
REMARK    5  A    between atoms: C14_19  and  N5_20 
ROOT
HETATM    1  C7  UNL     1      24.661   2.939  51.103  1.00  0.00     0.035 A 
HETATM    2  C8  UNL     1      24.446   3.576  49.914  1.00  0.00     0.032 A 
HETATM    3  C9  UNL     1      23.315   3.485  49.136  1.00  0.00     0.035 A 
HETATM    4  C10 UNL     1      22.283   2.694  49.556  1.00  0.00     0.069 A 
HETATM    5  N3  UNL     1      21.165   2.585  48.818  1.00  0.00    -0.259 NA
HETATM    6  C11 UNL     1      20.140   1.800  49.236  1.00  0.00     0.142 A 
HETATM    7  C12 UNL     1      20.295   1.119  50.449  1.00  0.00     0.089 A 
HETATM    8  C13 UNL     1      19.170   0.294  50.849  1.00  0.00     0.103 C 
HETATM    9  N4  UNL     1      18.278  -0.372  51.171  1.00  0.00    -0.191 NA
HETATM   10  C14 UNL     1      21.438   1.209  51.239  1.00  0.00     0.069 A 
HETATM   11  C20 UNL     1      22.446   2.027  50.755  1.00  0.00     0.023 A 
HETATM   12  C21 UNL     1      23.604   2.153  51.498  1.00  0.00     0.045 A 
ENDROOT
BRANCH  10  13
HETATM   13  N5  UNL     1      21.526   0.497  52.447  1.00  0.00    -0.348 N 
HETATM   14  C15 UNL     1      20.856   1.091  53.559  1.00  0.00     0.133 A 
HETATM   15  C16 UNL     1      20.880   0.493  54.744  1.00  0.00     0.131 A 
HETATM   16  F1  UNL     1      20.265   1.012  55.819  1.00  0.00    -0.205 F 
HETATM   17  C17 UNL     1      21.598  -0.767  54.882  1.00  0.00     0.041 A 
HETATM   18  C18 UNL     1      22.219  -1.332  53.886  1.00  0.00    -0.004 A 
HETATM   19  C19 UNL     1      22.260  -0.757  52.518  1.00  0.00     0.156 A 
ENDBRANCH  10  13
BRANCH   1  20
HETATM   20  N2  UNL     1      25.792   3.008  51.915  1.00  0.00    -0.324 N 
HETATM   21  C6  UNL     1      26.866   2.108  52.063  1.00  0.00     0.245 C 
HETATM   22  O1  UNL     1      26.853   1.058  51.376  1.00  0.00    -0.268 OA
HETATM   23  H11 UNL     1      25.918   3.850  52.542  1.00  0.00     0.169 HD
BRANCH  21  24
HETATM   24  C5  UNL     1      27.981   2.307  52.948  1.00  0.00     0.072 C 
HETATM   25  C4  UNL     1      28.329   1.463  53.893  1.00  0.00     0.008 C 
BRANCH  25  26
HETATM   26  C3  UNL     1      27.890   0.172  54.436  1.00  0.00     0.299 C 
BRANCH  26  27
HETATM   27  N1  UNL     1      28.736  -0.932  54.010  1.00  0.00     0.083 N 
HETATM   28  C1  UNL     1      29.995  -0.436  53.556  1.00  0.00     0.309 C 
HETATM   29  C2  UNL     1      28.111  -1.680  52.958  1.00  0.00     0.309 C 
ENDBRANCH  26  27
ENDBRANCH  25  26
ENDBRANCH  21  24
ENDBRANCH   1  20
TORSDOF 5
ENDMDL
MODEL 9
REMARK VINA RESULT:      -8.3      2.816      4.755
REMARK  5 active torsions:
REMARK  status: ('A' for Active; 'I' for Inactive)
REMARK    1  A    between atoms: N1_2  and  C3_4 
REMARK    2  A    between atoms: C3_4  and  C4_5 
REMARK    3  A    between atoms: C5_6  and  C6_7 
REMARK       I    between atoms: C6_7  and  N2_9 
REMARK    4  A    between atoms: N2_9  and  C7_10 
REMARK    5  A    between atoms: C14_19  and  N5_20 
ROOT
HETATM    1  C7  UNL     1      25.652   3.091  50.589  1.00  0.00     0.035 A 
HETATM    2  C8  UNL     1      26.755   2.641  51.259  1.00  0.00     0.032 A 
HETATM    3  C9  UNL     1      26.775   1.663  52.227  1.00  0.00     0.035 A 
HETATM    4  C10 UNL     1      25.603   1.057  52.582  1.00  0.00     0.069 A 
HETATM    5  N3  UNL     1      25.591   0.099  53.524  1.00  0.00    -0.259 NA
HETATM    6  C11 UNL     1      24.427  -0.503  53.877  1.00  0.00     0.142 A 
HETATM    7  C12 UNL     1      23.258  -0.089  53.228  1.00  0.00     0.089 A 
HETATM    8  C13 UNL     1      22.042  -0.764  53.643  1.00  0.00     0.103 C 
HETATM    9  N4  UNL     1      21.066  -1.294  53.974  1.00  0.00    -0.191 NA
HETATM   10  C14 UNL     1      23.234   0.900  52.248  1.00  0.00     0.069 A 
HETATM   11  C20 UNL     1      24.455   1.473  51.935  1.00  0.00     0.023 A 
HETATM   12  C21 UNL     1      24.491   2.461  50.969  1.00  0.00     0.045 A 
ENDROOT
BRANCH  10  13
HETATM   13  N5  UNL     1      22.023   1.267  51.637  1.00  0.00    -0.348 N 
HETATM   14  C15 UNL     1      21.375   2.410  52.197  1.00  0.00     0.133 A 
HETATM   15  C16 UNL     1      20.226   2.837  51.686  1.00  0.00     0.131 A 
HETATM   16  F1  UNL     1      19.580   3.906  52.178  1.00  0.00    -0.205 F 
HETATM   17  C17 UNL     1      19.648   2.120  50.558  1.00  0.00     0.041 A 
HETATM   18  C18 UNL     1      20.215   1.075  50.027  1.00  0.00    -0.004 A 
HETATM   19  C19 UNL     1      21.499   0.508  50.512  1.00  0.00     0.156 A 
ENDBRANCH  10  13
BRANCH   1  20
HETATM   20  N2  UNL     1      25.595   4.078  49.607  1.00  0.00    -0.324 N 
HETATM   21  C6  UNL     1      25.173   5.420  49.684  1.00  0.00     0.245 C 
HETATM   22  O1  UNL     1      24.774   5.849  50.792  1.00  0.00    -0.268 OA
HETATM   23  H11 UNL     1      25.908   3.837  48.625  1.00  0.00     0.169 HD
BRANCH  21  24
HETATM   24  C5  UNL     1      25.168   6.337  48.577  1.00  0.00     0.072 C 
HETATM   25  C4  UNL     1      26.210   7.047  48.206  1.00  0.00     0.008 C 
BRANCH  25  26
HETATM   26  C3  UNL     1      27.608   7.250  48.609  1.00  0.00     0.299 C 
BRANCH  26  27
HETATM   27  N1  UNL     1      27.904   8.639  48.920  1.00  0.00     0.083 N 
HETATM   28  C1  UNL     1      29.312   8.817  49.069  1.00  0.00     0.309 C 
HETATM   29  C2  UNL     1      27.243   9.047  50.126  1.00  0.00     0.309 C 
ENDBRANCH  26  27
ENDBRANCH  25  26
ENDBRANCH  21  24
ENDBRANCH   1  20
TORSDOF 5
ENDMDL
