MODEL 1
REMARK VINA RESULT:      -8.8      0.000      0.000
REMARK  8 active torsions:
REMARK  status: ('A' for Active; 'I' for Inactive)
REMARK    1  A    between atoms: C2_2  and  N1_3 
REMARK    2  A    between atoms: N1_3  and  C4_5 
REMARK    3  A    between atoms: C4_5  and  C5_6 
REMARK    4  A    between atoms: C4_5  and  O1_16 
REMARK    5  A    between atoms: C5_6  and  C6_7 
REMARK    6  A    between atoms: O1_16  and  C14_17 
REMARK    7  A    between atoms: C14_17  and  C15_18 
REMARK    8  A    between atoms: C15_18  and  N3_19 
ROOT
HETATM    1  C4  UNL     1      27.178   0.977  53.072  1.00  0.00     0.360 C 
ENDROOT
BRANCH   1   2
HETATM    2  N1  UNL     1      28.067   1.152  54.179  1.00  0.00     0.112 N 
HETATM    3  C3  UNL     1      29.011   2.233  53.979  1.00  0.00     0.313 C 
BRANCH   2   4
HETATM    4  C2  UNL     1      28.745  -0.099  54.454  1.00  0.00     0.270 C 
HETATM    5  C1  UNL     1      29.925  -0.264  53.525  1.00  0.00     0.037 C 
ENDBRANCH   2   4
ENDBRANCH   1   2
BRANCH   1   6
HETATM    6  C5  UNL     1      25.724   1.061  53.410  1.00  0.00     0.094 C 
BRANCH   6   7
HETATM    7  C6  UNL     1      25.069  -0.266  53.329  1.00  0.00     0.119 A 
HETATM    8  N2  UNL     1      25.256  -0.905  54.659  1.00  0.00    -0.389 N 
HETATM    9  C7  UNL     1      24.051  -1.233  55.305  1.00  0.00     0.095 A 
HETATM   10  H13 UNL     1      26.274  -1.019  54.933  1.00  0.00     0.159 HD
HETATM   11  C8  UNL     1      23.081  -0.858  54.509  1.00  0.00    -0.013 A 
HETATM   12  C9  UNL     1      21.694  -1.034  54.831  1.00  0.00     0.009 A 
HETATM   13  C13 UNL     1      23.605  -0.257  53.265  1.00  0.00    -0.027 A 
HETATM   14  C10 UNL     1      20.747  -0.639  53.974  1.00  0.00    -0.022 A 
HETATM   15  C11 UNL     1      21.083  -0.010  52.664  1.00  0.00     0.055 A 
HETATM   16  C12 UNL     1      22.560   0.086  52.504  1.00  0.00    -0.013 A 
ENDBRANCH   6   7
ENDBRANCH   1   6
BRANCH   1  17
HETATM   17  O1  UNL     1      27.488   1.887  52.018  1.00  0.00    -0.355 OA
BRANCH  17  18
HETATM   18  C14 UNL     1      26.309   2.385  51.519  1.00  0.00     0.190 C 
BRANCH  18  19
HETATM   19  C15 UNL     1      26.503   2.678  50.026  1.00  0.00     0.149 C 
BRANCH  19  20
HETATM   20  N3  UNL     1      25.726   3.769  49.544  1.00  0.00    -0.378 N 
HETATM   21  C16 UNL     1      24.278   3.738  49.393  1.00  0.00     0.123 C 
HETATM   22  C17 UNL     1      23.631   5.074  49.492  1.00  0.00     0.024 C 
HETATM   23  C18 UNL     1      24.517   6.172  50.014  1.00  0.00     0.042 C 
HETATM   24  C19 UNL     1      25.841   6.242  49.377  1.00  0.00    -0.032 A 
HETATM   25  C20 UNL     1      26.569   7.354  48.981  1.00  0.00     0.009 A 
HETATM   26  C24 UNL     1      26.412   4.989  49.179  1.00  0.00     0.036 A 
HETATM   27  C21 UNL     1      27.813   7.181  48.416  1.00  0.00     0.001 A 
HETATM   28  C22 UNL     1      28.409   5.956  48.205  1.00  0.00     0.002 A 
HETATM   29  C23 UNL     1      27.665   4.845  48.607  1.00  0.00     0.030 A 
ENDBRANCH  19  20
ENDBRANCH  18  19
ENDBRANCH  17  18
ENDBRANCH   1  17
TORSDOF 8
ENDMDL
MODEL 2
REMARK VINA RESULT:      -8.7      1.800      4.666
REMARK  8 active torsions:
REMARK  status: ('A' for Active; 'I' for Inactive)
REMARK    1  A    between atoms: C2_2  and  N1_3 
REMARK    2  A    between atoms: N1_3  and  C4_5 
REMARK    3  A    between atoms: C4_5  and  C5_6 
REMARK    4  A    between atoms: C4_5  and  O1_16 
REMARK    5  A    between atoms: C5_6  and  C6_7 
REMARK    6  A    between atoms: O1_16  and  C14_17 
REMARK    7  A    between atoms: C14_17  and  C15_18 
REMARK    8  A    between atoms: C15_18  and  N3_19 
ROOT
HETATM    1  C4  UNL     1      23.501   0.996  52.838  1.00  0.00     0.360 C 
ENDROOT
BRANCH   1   2
HETATM    2  N1  UNL     1      22.301   0.217  52.841  1.00  0.00     0.112 N 
HETATM    3  C3  UNL     1      21.223   0.843  53.579  1.00  0.00     0.313 C 
BRANCH   2   4
HETATM    4  C2  UNL     1      22.591  -1.109  53.348  1.00  0.00     0.270 C 
HETATM    5  C1  UNL     1      21.656  -1.444  54.488  1.00  0.00     0.037 C 
ENDBRANCH   2   4
ENDBRANCH   1   2
BRANCH   1   6
HETATM    6  C5  UNL     1      24.705   0.305  53.393  1.00  0.00     0.094 C 
BRANCH   6   7
HETATM    7  C6  UNL     1      25.877   0.453  52.498  1.00  0.00     0.119 A 
HETATM    8  N2  UNL     1      26.532   1.734  52.874  1.00  0.00    -0.389 N 
HETATM    9  C7  UNL     1      27.867   1.588  53.290  1.00  0.00     0.095 A 
HETATM   10  H13 UNL     1      25.895   2.577  52.779  1.00  0.00     0.159 HD
HETATM   11  C8  UNL     1      28.147   0.311  53.221  1.00  0.00    -0.013 A 
HETATM   12  C9  UNL     1      29.431  -0.227  53.568  1.00  0.00     0.009 A 
HETATM   13  C13 UNL     1      26.989  -0.471  52.739  1.00  0.00    -0.027 A 
HETATM   14  C10 UNL     1      29.662  -1.540  53.469  1.00  0.00    -0.022 A 
HETATM   15  C11 UNL     1      28.612  -2.491  53.000  1.00  0.00     0.055 A 
HETATM   16  C12 UNL     1      27.357  -1.756  52.685  1.00  0.00    -0.013 A 
ENDBRANCH   6   7
ENDBRANCH   1   6
BRANCH   1  17
HETATM   17  O1  UNL     1      23.784   1.497  51.533  1.00  0.00    -0.355 OA
BRANCH  17  18
HETATM   18  C14 UNL     1      23.120   2.690  51.376  1.00  0.00     0.190 C 
BRANCH  18  19
HETATM   19  C15 UNL     1      24.062   3.825  51.795  1.00  0.00     0.149 C 
BRANCH  19  20
HETATM   20  N3  UNL     1      24.035   4.951  50.925  1.00  0.00    -0.378 N 
HETATM   21  C16 UNL     1      22.888   5.836  50.769  1.00  0.00     0.123 C 
HETATM   22  C17 UNL     1      23.244   7.218  50.349  1.00  0.00     0.024 C 
HETATM   23  C18 UNL     1      24.708   7.552  50.439  1.00  0.00     0.042 C 
HETATM   24  C19 UNL     1      25.601   6.544  49.847  1.00  0.00    -0.032 A 
HETATM   25  C20 UNL     1      26.742   6.723  49.078  1.00  0.00     0.009 A 
HETATM   26  C24 UNL     1      25.216   5.240  50.143  1.00  0.00     0.036 A 
HETATM   27  C21 UNL     1      27.442   5.619  48.642  1.00  0.00     0.001 A 
HETATM   28  C22 UNL     1      27.090   4.315  48.916  1.00  0.00     0.002 A 
HETATM   29  C23 UNL     1      25.940   4.150  49.691  1.00  0.00     0.030 A 
ENDBRANCH  19  20
ENDBRANCH  18  19
ENDBRANCH  17  18
ENDBRANCH   1  17
TORSDOF 8
ENDMDL
MODEL 3
REMARK VINA RESULT:      -8.5      1.558      4.901
REMARK  8 active torsions:
REMARK  status: ('A' for Active; 'I' for Inactive)
REMARK    1  A    between atoms: C2_2  and  N1_3 
REMARK    2  A    between atoms: N1_3  and  C4_5 
REMARK    3  A    between atoms: C4_5  and  C5_6 
REMARK    4  A    between atoms: C4_5  and  O1_16 
REMARK    5  A    between atoms: C5_6  and  C6_7 
REMARK    6  A    between atoms: O1_16  and  C14_17 
REMARK    7  A    between atoms: C14_17  and  C15_18 
REMARK    8  A    between atoms: C15_18  and  N3_19 
ROOT
HETATM    1  C4  UNL     1      23.679   1.230  52.638  1.00  0.00     0.360 C 
ENDROOT
BRANCH   1   2
HETATM    2  N1  UNL     1      22.732   0.160  52.570  1.00  0.00     0.112 N 
HETATM    3  C3  UNL     1      21.360   0.613  52.689  1.00  0.00     0.313 C 
BRANCH   2   4
HETATM    4  C2  UNL     1      23.052  -0.831  53.577  1.00  0.00     0.270 C 
HETATM    5  C1  UNL     1      21.783  -1.391  54.176  1.00  0.00     0.037 C 
ENDBRANCH   2   4
ENDBRANCH   1   2
BRANCH   1   6
HETATM    6  C5  UNL     1      24.933   0.917  53.389  1.00  0.00     0.094 C 
BRANCH   6   7
HETATM    7  C6  UNL     1      26.129   1.024  52.520  1.00  0.00     0.119 A 
HETATM    8  N2  UNL     1      26.781   2.315  52.865  1.00  0.00    -0.389 N 
HETATM    9  C7  UNL     1      28.104   2.179  53.320  1.00  0.00     0.095 A 
HETATM   10  H13 UNL     1      26.152   3.158  52.721  1.00  0.00     0.159 HD
HETATM   11  C8  UNL     1      28.379   0.899  53.307  1.00  0.00    -0.013 A 
HETATM   12  C9  UNL     1      29.650   0.368  53.709  1.00  0.00     0.009 A 
HETATM   13  C13 UNL     1      27.229   0.105  52.825  1.00  0.00    -0.027 A 
HETATM   14  C10 UNL     1      29.875  -0.949  53.666  1.00  0.00    -0.022 A 
HETATM   15  C11 UNL     1      28.832  -1.912  53.206  1.00  0.00     0.055 A 
HETATM   16  C12 UNL     1      27.590  -1.183  52.830  1.00  0.00    -0.013 A 
ENDBRANCH   6   7
ENDBRANCH   1   6
BRANCH   1  17
HETATM   17  O1  UNL     1      23.999   1.714  51.334  1.00  0.00    -0.355 OA
BRANCH  17  18
HETATM   18  C14 UNL     1      23.562   3.013  51.238  1.00  0.00     0.190 C 
BRANCH  18  19
HETATM   19  C15 UNL     1      23.914   3.538  49.841  1.00  0.00     0.149 C 
BRANCH  19  20
HETATM   20  N3  UNL     1      25.131   4.276  49.790  1.00  0.00    -0.378 N 
HETATM   21  C16 UNL     1      26.446   3.672  49.627  1.00  0.00     0.123 C 
HETATM   22  C17 UNL     1      27.449   4.569  48.990  1.00  0.00     0.024 C 
HETATM   23  C18 UNL     1      26.880   5.814  48.365  1.00  0.00     0.042 C 
HETATM   24  C19 UNL     1      25.938   6.552  49.222  1.00  0.00    -0.032 A 
HETATM   25  C20 UNL     1      25.806   7.920  49.409  1.00  0.00     0.009 A 
HETATM   26  C24 UNL     1      25.064   5.716  49.908  1.00  0.00     0.036 A 
HETATM   27  C21 UNL     1      24.828   8.395  50.254  1.00  0.00     0.001 A 
HETATM   28  C22 UNL     1      23.946   7.596  50.950  1.00  0.00     0.002 A 
HETATM   29  C23 UNL     1      24.090   6.221  50.753  1.00  0.00     0.030 A 
ENDBRANCH  19  20
ENDBRANCH  18  19
ENDBRANCH  17  18
ENDBRANCH   1  17
TORSDOF 8
ENDMDL
MODEL 4
REMARK VINA RESULT:      -8.5      1.996      4.824
REMARK  8 active torsions:
REMARK  status: ('A' for Active; 'I' for Inactive)
REMARK    1  A    between atoms: C2_2  and  N1_3 
REMARK    2  A    between atoms: N1_3  and  C4_5 
REMARK    3  A    between atoms: C4_5  and  C5_6 
REMARK    4  A    between atoms: C4_5  and  O1_16 
REMARK    5  A    between atoms: C5_6  and  C6_7 
REMARK    6  A    between atoms: O1_16  and  C14_17 
REMARK    7  A    between atoms: C14_17  and  C15_18 
REMARK    8  A    between atoms: C15_18  and  N3_19 
ROOT
HETATM    1  C4  UNL     1      22.761   1.613  52.290  1.00  0.00     0.360 C 
ENDROOT
BRANCH   1   2
HETATM    2  N1  UNL     1      21.770   0.586  52.190  1.00  0.00     0.112 N 
HETATM    3  C3  UNL     1      21.042   0.624  50.937  1.00  0.00     0.313 C 
BRANCH   2   4
HETATM    4  C2  UNL     1      20.873   0.671  53.326  1.00  0.00     0.270 C 
HETATM    5  C1  UNL     1      21.381  -0.198  54.453  1.00  0.00     0.037 C 
ENDBRANCH   2   4
ENDBRANCH   1   2
BRANCH   1   6
HETATM    6  C5  UNL     1      24.162   1.166  52.022  1.00  0.00     0.094 C 
BRANCH   6   7
HETATM    7  C6  UNL     1      24.849   0.756  53.271  1.00  0.00     0.119 A 
HETATM    8  N2  UNL     1      25.004  -0.721  53.196  1.00  0.00    -0.389 N 
HETATM    9  C7  UNL     1      26.339  -1.156  53.258  1.00  0.00     0.095 A 
HETATM   10  H13 UNL     1      24.081  -1.237  53.104  1.00  0.00     0.159 HD
HETATM   11  C8  UNL     1      27.082  -0.082  53.363  1.00  0.00    -0.013 A 
HETATM   12  C9  UNL     1      28.513  -0.128  53.454  1.00  0.00     0.009 A 
HETATM   13  C13 UNL     1      26.258   1.144  53.385  1.00  0.00    -0.027 A 
HETATM   14  C10 UNL     1      29.219   1.001  53.569  1.00  0.00    -0.022 A 
HETATM   15  C11 UNL     1      28.561   2.340  53.609  1.00  0.00     0.055 A 
HETATM   16  C12 UNL     1      27.083   2.190  53.506  1.00  0.00    -0.013 A 
ENDBRANCH   6   7
ENDBRANCH   1   6
BRANCH   1  17
HETATM   17  O1  UNL     1      22.434   2.722  51.454  1.00  0.00    -0.355 OA
BRANCH  17  18
HETATM   18  C14 UNL     1      22.331   3.841  52.245  1.00  0.00     0.190 C 
BRANCH  18  19
HETATM   19  C15 UNL     1      23.672   4.584  52.206  1.00  0.00     0.149 C 
BRANCH  19  20
HETATM   20  N3  UNL     1      23.851   5.398  51.051  1.00  0.00    -0.378 N 
HETATM   21  C16 UNL     1      22.897   6.404  50.606  1.00  0.00     0.123 C 
HETATM   22  C17 UNL     1      23.509   7.513  49.824  1.00  0.00     0.024 C 
HETATM   23  C18 UNL     1      25.012   7.569  49.872  1.00  0.00     0.042 C 
HETATM   24  C19 UNL     1      25.679   6.281  49.627  1.00  0.00    -0.032 A 
HETATM   25  C20 UNL     1      26.819   6.008  48.884  1.00  0.00     0.009 A 
HETATM   26  C24 UNL     1      25.052   5.217  50.266  1.00  0.00     0.036 A 
HETATM   27  C21 UNL     1      27.281   4.713  48.807  1.00  0.00     0.001 A 
HETATM   28  C22 UNL     1      26.685   3.636  49.427  1.00  0.00     0.002 A 
HETATM   29  C23 UNL     1      25.539   3.924  50.172  1.00  0.00     0.030 A 
ENDBRANCH  19  20
ENDBRANCH  18  19
ENDBRANCH  17  18
ENDBRANCH   1  17
TORSDOF 8
ENDMDL
MODEL 5
REMARK VINA RESULT:      -8.3      2.053      7.625
REMARK  8 active torsions:
REMARK  status: ('A' for Active; 'I' for Inactive)
REMARK    1  A    between atoms: C2_2  and  N1_3 
REMARK    2  A    between atoms: N1_3  and  C4_5 
REMARK    3  A    between atoms: C4_5  and  C5_6 
REMARK    4  A    between atoms: C4_5  and  O1_16 
REMARK    5  A    between atoms: C5_6  and  C6_7 
REMARK    6  A    between atoms: O1_16  and  C14_17 
REMARK    7  A    between atoms: C14_17  and  C15_18 
REMARK    8  A    between atoms: C15_18  and  N3_19 
ROOT
HETATM    1  C4  UNL     1      22.486   1.829  51.690  1.00  0.00     0.360 C 
ENDROOT
BRANCH   1   2
HETATM    2  N1  UNL     1      21.337   1.871  52.541  1.00  0.00     0.112 N 
HETATM    3  C3  UNL     1      21.165   0.659  53.317  1.00  0.00     0.313 C 
BRANCH   2   4
HETATM    4  C2  UNL     1      20.160   2.163  51.747  1.00  0.00     0.270 C 
HETATM    5  C1  UNL     1      20.081   1.218  50.571  1.00  0.00     0.037 C 
ENDBRANCH   2   4
ENDBRANCH   1   2
BRANCH   1   6
HETATM    6  C5  UNL     1      23.126   3.154  51.425  1.00  0.00     0.094 C 
BRANCH   6   7
HETATM    7  C6  UNL     1      23.361   3.364  49.976  1.00  0.00     0.119 A 
HETATM    8  N2  UNL     1      22.516   4.521  49.580  1.00  0.00    -0.389 N 
HETATM    9  C7  UNL     1      23.244   5.598  49.045  1.00  0.00     0.095 A 
HETATM   10  H13 UNL     1      21.482   4.370  49.760  1.00  0.00     0.159 HD
HETATM   11  C8  UNL     1      24.506   5.247  49.060  1.00  0.00    -0.013 A 
HETATM   12  C9  UNL     1      25.559   6.097  48.585  1.00  0.00     0.009 A 
HETATM   13  C13 UNL     1      24.680   3.886  49.610  1.00  0.00    -0.027 A 
HETATM   14  C10 UNL     1      26.829   5.680  48.617  1.00  0.00    -0.022 A 
HETATM   15  C11 UNL     1      27.203   4.333  49.139  1.00  0.00     0.055 A 
HETATM   16  C12 UNL     1      25.986   3.597  49.581  1.00  0.00    -0.013 A 
ENDBRANCH   6   7
ENDBRANCH   1   6
BRANCH   1  17
HETATM   17  O1  UNL     1      23.457   0.909  52.186  1.00  0.00    -0.355 OA
BRANCH  17  18
HETATM   18  C14 UNL     1      24.313   1.592  53.015  1.00  0.00     0.190 C 
BRANCH  18  19
HETATM   19  C15 UNL     1      25.291   0.586  53.634  1.00  0.00     0.149 C 
BRANCH  19  20
HETATM   20  N3  UNL     1      26.661   0.879  53.380  1.00  0.00    -0.378 N 
HETATM   21  C16 UNL     1      27.179   2.218  53.136  1.00  0.00     0.123 C 
HETATM   22  C17 UNL     1      28.608   2.391  53.512  1.00  0.00     0.024 C 
HETATM   23  C18 UNL     1      29.188   1.274  54.335  1.00  0.00     0.042 C 
HETATM   24  C19 UNL     1      28.909  -0.074  53.817  1.00  0.00    -0.032 A 
HETATM   25  C20 UNL     1      29.745  -1.179  53.745  1.00  0.00     0.009 A 
HETATM   26  C24 UNL     1      27.603  -0.218  53.361  1.00  0.00     0.036 A 
HETATM   27  C21 UNL     1      29.258  -2.362  53.233  1.00  0.00     0.001 A 
HETATM   28  C22 UNL     1      27.971  -2.540  52.773  1.00  0.00     0.002 A 
HETATM   29  C23 UNL     1      27.141  -1.420  52.850  1.00  0.00     0.030 A 
ENDBRANCH  19  20
ENDBRANCH  18  19
ENDBRANCH  17  18
ENDBRANCH   1  17
TORSDOF 8
ENDMDL
MODEL 6
REMARK VINA RESULT:      -8.3      1.934      6.961
REMARK  8 active torsions:
REMARK  status: ('A' for Active; 'I' for Inactive)
REMARK    1  A    between atoms: C2_2  and  N1_3 
REMARK    2  A    between atoms: N1_3  and  C4_5 
REMARK    3  A    between atoms: C4_5  and  C5_6 
REMARK    4  A    between atoms: C4_5  and  O1_16 
REMARK    5  A    between atoms: C5_6  and  C6_7 
REMARK    6  A    between atoms: O1_16  and  C14_17 
REMARK    7  A    between atoms: C14_17  and  C15_18 
REMARK    8  A    between atoms: C15_18  and  N3_19 
ROOT
HETATM    1  C4  UNL     1      25.237   2.874  51.029  1.00  0.00     0.360 C 
ENDROOT
BRANCH   1   2
HETATM    2  N1  UNL     1      25.413   4.017  50.186  1.00  0.00     0.112 N 
HETATM    3  C3  UNL     1      24.397   4.121  49.158  1.00  0.00     0.313 C 
BRANCH   2   4
HETATM    4  C2  UNL     1      26.745   3.993  49.615  1.00  0.00     0.270 C 
HETATM    5  C1  UNL     1      26.967   5.223  48.766  1.00  0.00     0.037 C 
ENDBRANCH   2   4
ENDBRANCH   1   2
BRANCH   1   6
HETATM    6  C5  UNL     1      26.457   2.028  51.208  1.00  0.00     0.094 C 
BRANCH   6   7
HETATM    7  C6  UNL     1      26.456   1.346  52.524  1.00  0.00     0.119 A 
HETATM    8  N2  UNL     1      25.595   0.143  52.370  1.00  0.00    -0.389 N 
HETATM    9  C7  UNL     1      26.259  -1.068  52.633  1.00  0.00     0.095 A 
HETATM   10  H13 UNL     1      24.600   0.371  52.080  1.00  0.00     0.159 HD
HETATM   11  C8  UNL     1      27.493  -0.762  52.947  1.00  0.00    -0.013 A 
HETATM   12  C9  UNL     1      28.481  -1.747  53.284  1.00  0.00     0.009 A 
HETATM   13  C13 UNL     1      27.712   0.699  52.913  1.00  0.00    -0.027 A 
HETATM   14  C10 UNL     1      29.724  -1.374  53.604  1.00  0.00    -0.022 A 
HETATM   15  C11 UNL     1      30.135   0.061  53.625  1.00  0.00     0.055 A 
HETATM   16  C12 UNL     1      28.985   0.931  53.254  1.00  0.00    -0.013 A 
ENDBRANCH   6   7
ENDBRANCH   1   6
BRANCH   1  17
HETATM   17  O1  UNL     1      24.714   3.252  52.301  1.00  0.00    -0.355 OA
BRANCH  17  18
HETATM   18  C14 UNL     1      23.355   3.417  52.175  1.00  0.00     0.190 C 
BRANCH  18  19
HETATM   19  C15 UNL     1      22.760   2.115  51.626  1.00  0.00     0.149 C 
BRANCH  19  20
HETATM   20  N3  UNL     1      21.451   1.829  52.108  1.00  0.00    -0.378 N 
HETATM   21  C16 UNL     1      20.285   2.662  51.849  1.00  0.00     0.123 C 
HETATM   22  C17 UNL     1      18.994   1.922  51.875  1.00  0.00     0.024 C 
HETATM   23  C18 UNL     1      19.122   0.423  51.869  1.00  0.00     0.042 C 
HETATM   24  C19 UNL     1      20.089  -0.111  52.841  1.00  0.00    -0.032 A 
HETATM   25  C20 UNL     1      19.992  -1.230  53.654  1.00  0.00     0.009 A 
HETATM   26  C24 UNL     1      21.260   0.637  52.905  1.00  0.00     0.036 A 
HETATM   27  C21 UNL     1      21.042  -1.556  54.483  1.00  0.00     0.001 A 
HETATM   28  C22 UNL     1      22.215  -0.839  54.572  1.00  0.00     0.002 A 
HETATM   29  C23 UNL     1      22.300   0.286  53.749  1.00  0.00     0.030 A 
ENDBRANCH  19  20
ENDBRANCH  18  19
ENDBRANCH  17  18
ENDBRANCH   1  17
TORSDOF 8
ENDMDL
MODEL 7
REMARK VINA RESULT:      -8.2      2.211      6.327
REMARK  8 active torsions:
REMARK  status: ('A' for Active; 'I' for Inactive)
REMARK    1  A    between atoms: C2_2  and  N1_3 
REMARK    2  A    between atoms: N1_3  and  C4_5 
REMARK    3  A    between atoms: C4_5  and  C5_6 
REMARK    4  A    between atoms: C4_5  and  O1_16 
REMARK    5  A    between atoms: C5_6  and  C6_7 
REMARK    6  A    between atoms: O1_16  and  C14_17 
REMARK    7  A    between atoms: C14_17  and  C15_18 
REMARK    8  A    between atoms: C15_18  and  N3_19 
ROOT
HETATM    1  C4  UNL     1      23.600   3.040  51.326  1.00  0.00     0.360 C 
ENDROOT
BRANCH   1   2
HETATM    2  N1  UNL     1      24.520   4.040  50.880  1.00  0.00     0.112 N 
HETATM    3  C3  UNL     1      23.966   5.379  50.933  1.00  0.00     0.313 C 
BRANCH   2   4
HETATM    4  C2  UNL     1      24.981   3.711  49.546  1.00  0.00     0.270 C 
HETATM    5  C1  UNL     1      26.464   3.422  49.566  1.00  0.00     0.037 C 
ENDBRANCH   2   4
ENDBRANCH   1   2
BRANCH   1   6
HETATM    6  C5  UNL     1      22.579   2.625  50.316  1.00  0.00     0.094 C 
BRANCH   6   7
HETATM    7  C6  UNL     1      21.200   2.815  50.828  1.00  0.00     0.119 A 
HETATM    8  N2  UNL     1      20.291   2.582  49.674  1.00  0.00    -0.389 N 
HETATM    9  C7  UNL     1      19.372   1.537  49.879  1.00  0.00     0.095 A 
HETATM   10  H13 UNL     1      20.468   3.237  48.858  1.00  0.00     0.159 HD
HETATM   11  C8  UNL     1      19.604   1.058  51.075  1.00  0.00    -0.013 A 
HETATM   12  C9  UNL     1      18.856  -0.027  51.641  1.00  0.00     0.009 A 
HETATM   13  C13 UNL     1      20.707   1.782  51.742  1.00  0.00    -0.027 A 
HETATM   14  C10 UNL     1      19.133  -0.469  52.872  1.00  0.00    -0.022 A 
HETATM   15  C11 UNL     1      20.214   0.138  53.701  1.00  0.00     0.055 A 
HETATM   16  C12 UNL     1      20.874   1.245  52.956  1.00  0.00    -0.013 A 
ENDBRANCH   6   7
ENDBRANCH   1   6
BRANCH   1  17
HETATM   17  O1  UNL     1      24.291   1.893  51.820  1.00  0.00    -0.355 OA
BRANCH  17  18
HETATM   18  C14 UNL     1      24.450   2.038  53.177  1.00  0.00     0.190 C 
BRANCH  18  19
HETATM   19  C15 UNL     1      25.317   0.880  53.688  1.00  0.00     0.149 C 
BRANCH  19  20
HETATM   20  N3  UNL     1      26.709   1.048  53.444  1.00  0.00    -0.378 N 
HETATM   21  C16 UNL     1      27.360   2.340  53.279  1.00  0.00     0.123 C 
HETATM   22  C17 UNL     1      28.800   2.345  53.657  1.00  0.00     0.024 C 
HETATM   23  C18 UNL     1      29.263   1.126  54.406  1.00  0.00     0.042 C 
HETATM   24  C19 UNL     1      28.849  -0.153  53.808  1.00  0.00    -0.032 A 
HETATM   25  C20 UNL     1      29.568  -1.330  53.664  1.00  0.00     0.009 A 
HETATM   26  C24 UNL     1      27.535  -0.135  53.352  1.00  0.00     0.036 A 
HETATM   27  C21 UNL     1      28.964  -2.424  53.083  1.00  0.00     0.001 A 
HETATM   28  C22 UNL     1      27.666  -2.442  52.621  1.00  0.00     0.002 A 
HETATM   29  C23 UNL     1      26.953  -1.250  52.772  1.00  0.00     0.030 A 
ENDBRANCH  19  20
ENDBRANCH  18  19
ENDBRANCH  17  18
ENDBRANCH   1  17
TORSDOF 8
ENDMDL
MODEL 8
REMARK VINA RESULT:      -8.0      2.181      8.244
REMARK  8 active torsions:
REMARK  status: ('A' for Active; 'I' for Inactive)
REMARK    1  A    between atoms: C2_2  and  N1_3 
REMARK    2  A    between atoms: N1_3  and  C4_5 
REMARK    3  A    between atoms: C4_5  and  C5_6 
REMARK    4  A    between atoms: C4_5  and  O1_16 
REMARK    5  A    between atoms: C5_6  and  C6_7 
REMARK    6  A    between atoms: O1_16  and  C14_17 
REMARK    7  A    between atoms: C14_17  and  C15_18 
REMARK    8  A    between atoms: C15_18  and  N3_19 
ROOT
HETATM    1  C4  UNL     1      22.401   3.452  51.073  1.00  0.00     0.360 C 
ENDROOT
BRANCH   1   2
HETATM    2  N1  UNL     1      21.025   3.108  50.883  1.00  0.00     0.112 N 
HETATM    3  C3  UNL     1      20.193   3.466  52.014  1.00  0.00     0.313 C 
BRANCH   2   4
HETATM    4  C2  UNL     1      20.920   1.696  50.574  1.00  0.00     0.270 C 
HETATM    5  C1  UNL     1      20.091   0.995  51.625  1.00  0.00     0.037 C 
ENDBRANCH   2   4
ENDBRANCH   1   2
BRANCH   1   6
HETATM    6  C5  UNL     1      22.759   4.854  50.698  1.00  0.00     0.094 C 
BRANCH   6   7
HETATM    7  C6  UNL     1      23.249   4.935  49.301  1.00  0.00     0.119 A 
HETATM    8  N2  UNL     1      22.936   6.310  48.829  1.00  0.00    -0.389 N 
HETATM    9  C7  UNL     1      24.067   7.043  48.429  1.00  0.00     0.095 A 
HETATM   10  H13 UNL     1      21.901   6.543  48.863  1.00  0.00     0.159 HD
HETATM   11  C8  UNL     1      25.104   6.263  48.602  1.00  0.00    -0.013 A 
HETATM   12  C9  UNL     1      26.447   6.669  48.299  1.00  0.00     0.009 A 
HETATM   13  C13 UNL     1      24.704   4.942  49.131  1.00  0.00    -0.027 A 
HETATM   14  C10 UNL     1      27.466   5.826  48.489  1.00  0.00    -0.022 A 
HETATM   15  C11 UNL     1      27.258   4.445  49.017  1.00  0.00     0.055 A 
HETATM   16  C12 UNL     1      25.811   4.204  49.269  1.00  0.00    -0.013 A 
ENDBRANCH   6   7
ENDBRANCH   1   6
BRANCH   1  17
HETATM   17  O1  UNL     1      22.815   3.183  52.411  1.00  0.00    -0.355 OA
BRANCH  17  18
HETATM   18  C14 UNL     1      24.162   2.909  52.398  1.00  0.00     0.190 C 
BRANCH  18  19
HETATM   19  C15 UNL     1      24.382   1.612  51.610  1.00  0.00     0.149 C 
BRANCH  19  20
HETATM   20  N3  UNL     1      25.128   0.625  52.315  1.00  0.00    -0.378 N 
HETATM   21  C16 UNL     1      26.509   0.276  52.015  1.00  0.00     0.123 C 
HETATM   22  C17 UNL     1      27.264  -0.260  53.180  1.00  0.00     0.024 C 
HETATM   23  C18 UNL     1      26.587  -0.082  54.511  1.00  0.00     0.042 C 
HETATM   24  C19 UNL     1      25.171  -0.482  54.534  1.00  0.00    -0.032 A 
HETATM   25  C20 UNL     1      24.466  -1.166  55.514  1.00  0.00     0.009 A 
HETATM   26  C24 UNL     1      24.478  -0.080  53.397  1.00  0.00     0.036 A 
HETATM   27  C21 UNL     1      23.125  -1.417  55.329  1.00  0.00     0.001 A 
HETATM   28  C22 UNL     1      22.407  -1.033  54.217  1.00  0.00     0.002 A 
HETATM   29  C23 UNL     1      23.128  -0.346  53.238  1.00  0.00     0.030 A 
ENDBRANCH  19  20
ENDBRANCH  18  19
ENDBRANCH  17  18
ENDBRANCH   1  17
TORSDOF 8
ENDMDL
MODEL 9
REMARK VINA RESULT:      -8.0      2.060      7.804
REMARK  8 active torsions:
REMARK  status: ('A' for Active; 'I' for Inactive)
REMARK    1  A    between atoms: C2_2  and  N1_3 
REMARK    2  A    between atoms: N1_3  and  C4_5 
REMARK    3  A    between atoms: C4_5  and  C5_6 
REMARK    4  A    between atoms: C4_5  and  O1_16 
REMARK    5  A    between atoms: C5_6  and  C6_7 
REMARK    6  A    between atoms: O1_16  and  C14_17 
REMARK    7  A    between atoms: C14_17  and  C15_18 
REMARK    8  A    between atoms: C15_18  and  N3_19 
ROOT
HETATM    1  C4  UNL     1      23.381   2.250  50.666  1.00  0.00     0.360 C 
ENDROOT
BRANCH   1   2
HETATM    2  N1  UNL     1      22.026   2.618  50.938  1.00  0.00     0.112 N 
HETATM    3  C3  UNL     1      21.064   1.754  50.283  1.00  0.00     0.313 C 
BRANCH   2   4
HETATM    4  C2  UNL     1      21.822   4.006  50.577  1.00  0.00     0.270 C 
HETATM    5  C1  UNL     1      21.851   4.873  51.815  1.00  0.00     0.037 C 
ENDBRANCH   2   4
ENDBRANCH   1   2
BRANCH   1   6
HETATM    6  C5  UNL     1      24.062   3.077  49.622  1.00  0.00     0.094 C 
BRANCH   6   7
HETATM    7  C6  UNL     1      25.116   3.936  50.213  1.00  0.00     0.119 A 
HETATM    8  N2  UNL     1      26.417   3.352  49.788  1.00  0.00    -0.389 N 
HETATM    9  C7  UNL     1      27.221   4.237  49.049  1.00  0.00     0.095 A 
HETATM   10  H13 UNL     1      26.550   2.347  50.102  1.00  0.00     0.159 HD
HETATM   11  C8  UNL     1      26.555   5.360  48.948  1.00  0.00    -0.013 A 
HETATM   12  C9  UNL     1      27.063   6.510  48.256  1.00  0.00     0.009 A 
HETATM   13  C13 UNL     1      25.250   5.276  49.636  1.00  0.00    -0.027 A 
HETATM   14  C10 UNL     1      26.340   7.633  48.193  1.00  0.00    -0.022 A 
HETATM   15  C11 UNL     1      24.995   7.740  48.829  1.00  0.00     0.055 A 
HETATM   16  C12 UNL     1      24.638   6.458  49.498  1.00  0.00    -0.013 A 
ENDBRANCH   6   7
ENDBRANCH   1   6
BRANCH   1  17
HETATM   17  O1  UNL     1      24.158   2.236  51.862  1.00  0.00    -0.355 OA
BRANCH  17  18
HETATM   18  C14 UNL     1      24.519   0.936  52.125  1.00  0.00     0.190 C 
BRANCH  18  19
HETATM   19  C15 UNL     1      25.312   0.913  53.438  1.00  0.00     0.149 C 
BRANCH  19  20
HETATM   20  N3  UNL     1      26.717   1.066  53.268  1.00  0.00    -0.378 N 
HETATM   21  C16 UNL     1      27.384   2.350  53.099  1.00  0.00     0.123 C 
HETATM   22  C17 UNL     1      28.800   2.360  53.558  1.00  0.00     0.024 C 
HETATM   23  C18 UNL     1      29.213   1.165  54.372  1.00  0.00     0.042 C 
HETATM   24  C19 UNL     1      28.825  -0.131  53.792  1.00  0.00    -0.032 A 
HETATM   25  C20 UNL     1      29.544  -1.316  53.727  1.00  0.00     0.009 A 
HETATM   26  C24 UNL     1      27.540  -0.123  53.262  1.00  0.00     0.036 A 
HETATM   27  C21 UNL     1      28.968  -2.425  53.149  1.00  0.00     0.001 A 
HETATM   28  C22 UNL     1      27.698  -2.453  52.614  1.00  0.00     0.002 A 
HETATM   29  C23 UNL     1      26.985  -1.254  52.686  1.00  0.00     0.030 A 
ENDBRANCH  19  20
ENDBRANCH  18  19
ENDBRANCH  17  18
ENDBRANCH   1  17
TORSDOF 8
ENDMDL
