MODEL 1
REMARK VINA RESULT:      -7.6      0.000      0.000
REMARK  5 active torsions:
REMARK  status: ('A' for Active; 'I' for Inactive)
REMARK    1  A    between atoms: C2_2  and  S1_4 
REMARK    2  A    between atoms: S1_4  and  C3_5 
REMARK    3  A    between atoms: C4_6  and  C5_7 
REMARK       I    between atoms: C5_7  and  N1_9 
REMARK    4  A    between atoms: N1_9  and  C6_10 
REMARK    5  A    between atoms: C14_18  and  C15_19 
ROOT
HETATM    1  C3  UNL     1      22.713   1.059  52.526  1.00  0.00     0.091 A 
HETATM    2  C4  UNL     1      24.011   1.414  52.521  1.00  0.00     0.050 A 
HETATM    3  C12 UNL     1      24.069   2.872  52.212  1.00  0.00     0.104 A 
HETATM    4  C13 UNL     1      22.688   3.318  52.011  1.00  0.00     0.013 A 
HETATM    5  C14 UNL     1      22.257   4.512  51.690  1.00  0.00     0.009 C 
HETATM    6  N2  UNL     1      21.905   2.167  52.226  1.00  0.00    -0.348 N 
HETATM    7  C16 UNL     1      20.468   2.039  52.168  1.00  0.00     0.156 C 
ENDROOT
BRANCH   2   8
HETATM    8  C5  UNL     1      25.368   0.868  52.723  1.00  0.00     0.255 C 
HETATM    9  O2  UNL     1      26.341   0.732  51.896  1.00  0.00    -0.268 OA
HETATM   10  N1  UNL     1      25.864   0.362  53.950  1.00  0.00    -0.323 N 
HETATM   11  H4  UNL     1      25.264   0.356  54.801  1.00  0.00     0.169 HD
BRANCH  10  12
HETATM   12  C6  UNL     1      27.217  -0.078  53.756  1.00  0.00     0.035 A 
HETATM   13  C7  UNL     1      28.293   0.731  54.042  1.00  0.00     0.029 A 
HETATM   14  C8  UNL     1      29.602   0.312  53.858  1.00  0.00     0.002 A 
HETATM   15  C9  UNL     1      29.866  -0.951  53.371  1.00  0.00     0.000 A 
HETATM   16  C10 UNL     1      28.800  -1.779  53.076  1.00  0.00     0.002 A 
HETATM   17  C11 UNL     1      27.517  -1.339  53.268  1.00  0.00     0.029 A 
ENDBRANCH  10  12
ENDBRANCH   2   8
BRANCH   1  18
HETATM   18  S1  UNL     1      22.502  -0.657  52.900  1.00  0.00    -0.034 SA
BRANCH  18  19
HETATM   19  C2  UNL     1      22.252  -1.026  54.618  1.00  0.00     0.188 C 
HETATM   20  C1  UNL     1      21.138  -0.103  54.999  1.00  0.00     0.104 C 
HETATM   21  O1  UNL     1      22.623  -1.710  55.558  1.00  0.00    -0.286 OA
ENDBRANCH  18  19
ENDBRANCH   1  18
BRANCH   5  22
HETATM   22  C15 UNL     1      22.989   5.744  51.441  1.00  0.00     0.114 C 
HETATM   23 BR1  UNL     1      21.943   7.154  50.638  1.00  0.00    -0.092 Br
ENDBRANCH   5  22
TORSDOF 5
ENDMDL
MODEL 2
REMARK VINA RESULT:      -7.5      2.874      4.428
REMARK  5 active torsions:
REMARK  status: ('A' for Active; 'I' for Inactive)
REMARK    1  A    between atoms: C2_2  and  S1_4 
REMARK    2  A    between atoms: S1_4  and  C3_5 
REMARK    3  A    between atoms: C4_6  and  C5_7 
REMARK       I    between atoms: C5_7  and  N1_9 
REMARK    4  A    between atoms: N1_9  and  C6_10 
REMARK    5  A    between atoms: C14_18  and  C15_19 
ROOT
HETATM    1  C3  UNL     1      23.041   2.123  52.592  1.00  0.00     0.091 A 
HETATM    2  C4  UNL     1      23.757   1.051  52.979  1.00  0.00     0.050 A 
HETATM    3  C12 UNL     1      22.786  -0.024  53.334  1.00  0.00     0.104 A 
HETATM    4  C13 UNL     1      21.446   0.536  53.143  1.00  0.00     0.013 A 
HETATM    5  C14 UNL     1      20.287  -0.035  53.361  1.00  0.00     0.009 C 
HETATM    6  N2  UNL     1      21.668   1.847  52.680  1.00  0.00    -0.348 N 
HETATM    7  C16 UNL     1      20.690   2.846  52.319  1.00  0.00     0.156 C 
ENDROOT
BRANCH   2   8
HETATM    8  C5  UNL     1      25.146   0.582  53.159  1.00  0.00     0.255 C 
HETATM    9  O2  UNL     1      25.803   0.323  54.230  1.00  0.00    -0.268 OA
HETATM   10  N1  UNL     1      26.056   0.321  52.105  1.00  0.00    -0.323 N 
HETATM   11  H4  UNL     1      25.770   0.454  51.113  1.00  0.00     0.169 HD
BRANCH  10  12
HETATM   12  C6  UNL     1      27.302  -0.115  52.668  1.00  0.00     0.035 A 
HETATM   13  C7  UNL     1      27.627  -1.449  52.771  1.00  0.00     0.029 A 
HETATM   14  C8  UNL     1      28.829  -1.878  53.313  1.00  0.00     0.002 A 
HETATM   15  C9  UNL     1      29.750  -0.961  53.774  1.00  0.00     0.000 A 
HETATM   16  C10 UNL     1      29.444   0.383  53.681  1.00  0.00     0.002 A 
HETATM   17  C11 UNL     1      28.249   0.779  53.141  1.00  0.00     0.029 A 
ENDBRANCH  10  12
ENDBRANCH   2   8
BRANCH   1  18
HETATM   18  S1  UNL     1      24.081   3.475  52.123  1.00  0.00    -0.034 SA
BRANCH  18  19
HETATM   19  C2  UNL     1      25.060   3.201  50.668  1.00  0.00     0.188 C 
HETATM   20  C1  UNL     1      24.110   3.533  49.561  1.00  0.00     0.104 C 
HETATM   21  O1  UNL     1      26.154   2.862  50.248  1.00  0.00    -0.286 OA
ENDBRANCH  18  19
ENDBRANCH   1  18
BRANCH   5  22
HETATM   22  C15 UNL     1      19.968  -1.368  53.845  1.00  0.00     0.114 C 
HETATM   23 BR1  UNL     1      18.154  -1.934  53.510  1.00  0.00    -0.092 Br
ENDBRANCH   5  22
TORSDOF 5
ENDMDL
MODEL 3
REMARK VINA RESULT:      -7.2      3.261      5.523
REMARK  5 active torsions:
REMARK  status: ('A' for Active; 'I' for Inactive)
REMARK    1  A    between atoms: C2_2  and  S1_4 
REMARK    2  A    between atoms: S1_4  and  C3_5 
REMARK    3  A    between atoms: C4_6  and  C5_7 
REMARK       I    between atoms: C5_7  and  N1_9 
REMARK    4  A    between atoms: N1_9  and  C6_10 
REMARK    5  A    between atoms: C14_18  and  C15_19 
ROOT
HETATM    1  C3  UNL     1      23.626   0.494  53.252  1.00  0.00     0.091 A 
HETATM    2  C4  UNL     1      23.468   1.364  52.238  1.00  0.00     0.050 A 
HETATM    3  C12 UNL     1      22.041   1.289  51.808  1.00  0.00     0.104 A 
HETATM    4  C13 UNL     1      21.399   0.275  52.649  1.00  0.00     0.013 A 
HETATM    5  C14 UNL     1      20.161  -0.149  52.609  1.00  0.00     0.009 C 
HETATM    6  N2  UNL     1      22.416  -0.167  53.517  1.00  0.00    -0.348 N 
HETATM    7  C16 UNL     1      22.330  -1.156  54.566  1.00  0.00     0.156 C 
ENDROOT
BRANCH   2   8
HETATM    8  C5  UNL     1      24.206   2.355  51.428  1.00  0.00     0.255 C 
HETATM    9  O2  UNL     1      25.024   3.277  51.786  1.00  0.00    -0.268 OA
HETATM   10  N1  UNL     1      24.131   2.466  50.018  1.00  0.00    -0.323 N 
HETATM   11  H4  UNL     1      23.525   1.823  49.468  1.00  0.00     0.169 HD
BRANCH  10  12
HETATM   12  C6  UNL     1      24.984   3.540  49.593  1.00  0.00     0.035 A 
HETATM   13  C7  UNL     1      26.346   3.382  49.474  1.00  0.00     0.029 A 
HETATM   14  C8  UNL     1      27.177   4.414  49.064  1.00  0.00     0.002 A 
HETATM   15  C9  UNL     1      26.649   5.652  48.757  1.00  0.00     0.000 A 
HETATM   16  C10 UNL     1      25.283   5.831  48.870  1.00  0.00     0.002 A 
HETATM   17  C11 UNL     1      24.487   4.793  49.279  1.00  0.00     0.029 A 
ENDBRANCH  10  12
ENDBRANCH   2   8
BRANCH   1  18
HETATM   18  S1  UNL     1      25.283   0.498  53.871  1.00  0.00    -0.034 SA
BRANCH  18  19
HETATM   19  C2  UNL     1      26.330  -0.778  53.220  1.00  0.00     0.188 C 
HETATM   20  C1  UNL     1      26.812  -0.190  51.932  1.00  0.00     0.104 C 
HETATM   21  O1  UNL     1      26.783  -1.895  53.413  1.00  0.00    -0.286 OA
ENDBRANCH  18  19
ENDBRANCH   1  18
BRANCH   5  22
HETATM   22  C15 UNL     1      19.057   0.240  51.746  1.00  0.00     0.114 C 
HETATM   23 BR1  UNL     1      17.390  -0.660  52.115  1.00  0.00    -0.092 Br
ENDBRANCH   5  22
TORSDOF 5
ENDMDL
MODEL 4
REMARK VINA RESULT:      -7.0      2.669      5.393
REMARK  5 active torsions:
REMARK  status: ('A' for Active; 'I' for Inactive)
REMARK    1  A    between atoms: C2_2  and  S1_4 
REMARK    2  A    between atoms: S1_4  and  C3_5 
REMARK    3  A    between atoms: C4_6  and  C5_7 
REMARK       I    between atoms: C5_7  and  N1_9 
REMARK    4  A    between atoms: N1_9  and  C6_10 
REMARK    5  A    between atoms: C14_18  and  C15_19 
ROOT
HETATM    1  C3  UNL     1      25.635   2.867  50.651  1.00  0.00     0.091 A 
HETATM    2  C4  UNL     1      24.343   2.596  50.911  1.00  0.00     0.050 A 
HETATM    3  C12 UNL     1      23.521   3.573  50.139  1.00  0.00     0.104 A 
HETATM    4  C13 UNL     1      24.459   4.450  49.433  1.00  0.00     0.013 A 
HETATM    5  C14 UNL     1      24.192   5.472  48.659  1.00  0.00     0.009 C 
HETATM    6  N2  UNL     1      25.735   3.962  49.779  1.00  0.00    -0.348 N 
HETATM    7  C16 UNL     1      27.025   4.449  49.350  1.00  0.00     0.156 C 
ENDROOT
BRANCH   2   8
HETATM    8  C5  UNL     1      23.477   1.675  51.675  1.00  0.00     0.255 C 
HETATM    9  O2  UNL     1      22.682   0.752  51.270  1.00  0.00    -0.268 OA
HETATM   10  N1  UNL     1      23.367   1.650  53.088  1.00  0.00    -0.323 N 
HETATM   11  H4  UNL     1      23.919   2.312  53.673  1.00  0.00     0.169 HD
BRANCH  10  12
HETATM   12  C6  UNL     1      22.434   0.626  53.461  1.00  0.00     0.035 A 
HETATM   13  C7  UNL     1      21.073   0.834  53.427  1.00  0.00     0.029 A 
HETATM   14  C8  UNL     1      20.165  -0.151  53.786  1.00  0.00     0.002 A 
HETATM   15  C9  UNL     1      20.610  -1.390  54.197  1.00  0.00     0.000 A 
HETATM   16  C10 UNL     1      21.973  -1.620  54.239  1.00  0.00     0.002 A 
HETATM   17  C11 UNL     1      22.847  -0.628  53.879  1.00  0.00     0.029 A 
ENDBRANCH  10  12
ENDBRANCH   2   8
BRANCH   1  18
HETATM   18  S1  UNL     1      26.723   1.760  51.499  1.00  0.00    -0.034 SA
BRANCH  18  19
HETATM   19  C2  UNL     1      26.881   2.050  53.242  1.00  0.00     0.188 C 
HETATM   20  C1  UNL     1      28.336   2.363  53.398  1.00  0.00     0.104 C 
HETATM   21  O1  UNL     1      26.287   2.091  54.307  1.00  0.00    -0.286 OA
ENDBRANCH  18  19
ENDBRANCH   1  18
BRANCH   5  22
HETATM   22  C15 UNL     1      22.918   6.046  48.261  1.00  0.00     0.114 C 
HETATM   23 BR1  UNL     1      22.077   7.150  49.603  1.00  0.00    -0.092 Br
ENDBRANCH   5  22
TORSDOF 5
ENDMDL
MODEL 5
REMARK VINA RESULT:      -7.0      3.091      6.441
REMARK  5 active torsions:
REMARK  status: ('A' for Active; 'I' for Inactive)
REMARK    1  A    between atoms: C2_2  and  S1_4 
REMARK    2  A    between atoms: S1_4  and  C3_5 
REMARK    3  A    between atoms: C4_6  and  C5_7 
REMARK       I    between atoms: C5_7  and  N1_9 
REMARK    4  A    between atoms: N1_9  and  C6_10 
REMARK    5  A    between atoms: C14_18  and  C15_19 
ROOT
HETATM    1  C3  UNL     1      25.264   1.208  52.501  1.00  0.00     0.091 A 
HETATM    2  C4  UNL     1      24.529   2.144  51.873  1.00  0.00     0.050 A 
HETATM    3  C12 UNL     1      23.112   1.953  52.298  1.00  0.00     0.104 A 
HETATM    4  C13 UNL     1      23.095   0.804  53.206  1.00  0.00     0.013 A 
HETATM    5  C14 UNL     1      22.066   0.253  53.801  1.00  0.00     0.009 C 
HETATM    6  N2  UNL     1      24.440   0.398  53.298  1.00  0.00    -0.348 N 
HETATM    7  C16 UNL     1      24.998  -0.685  54.073  1.00  0.00     0.156 C 
ENDROOT
BRANCH   2   8
HETATM    8  C5  UNL     1      24.645   3.278  50.933  1.00  0.00     0.255 C 
HETATM    9  O2  UNL     1      24.800   3.289  49.659  1.00  0.00    -0.268 OA
HETATM   10  N1  UNL     1      24.602   4.645  51.303  1.00  0.00    -0.323 N 
HETATM   11  H4  UNL     1      24.481   4.919  52.300  1.00  0.00     0.169 HD
BRANCH  10  12
HETATM   12  C6  UNL     1      24.747   5.449  50.123  1.00  0.00     0.035 A 
HETATM   13  C7  UNL     1      23.657   5.892  49.408  1.00  0.00     0.029 A 
HETATM   14  C8  UNL     1      23.789   6.670  48.267  1.00  0.00     0.002 A 
HETATM   15  C9  UNL     1      25.041   7.025  47.808  1.00  0.00     0.000 A 
HETATM   16  C10 UNL     1      26.148   6.589  48.511  1.00  0.00     0.002 A 
HETATM   17  C11 UNL     1      25.988   5.823  49.635  1.00  0.00     0.029 A 
ENDBRANCH  10  12
ENDBRANCH   2   8
BRANCH   1  18
HETATM   18  S1  UNL     1      26.980   1.336  52.093  1.00  0.00    -0.034 SA
BRANCH  18  19
HETATM   19  C2  UNL     1      28.043   1.779  53.444  1.00  0.00     0.188 C 
HETATM   20  C1  UNL     1      28.654   0.469  53.830  1.00  0.00     0.104 C 
HETATM   21  O1  UNL     1      28.444   2.696  54.142  1.00  0.00    -0.286 OA
ENDBRANCH  18  19
ENDBRANCH   1  18
BRANCH   5  22
HETATM   22  C15 UNL     1      20.654   0.596  53.755  1.00  0.00     0.114 C 
HETATM   23 BR1  UNL     1      19.795   0.247  52.062  1.00  0.00    -0.092 Br
ENDBRANCH   5  22
TORSDOF 5
ENDMDL
MODEL 6
REMARK VINA RESULT:      -6.9      3.686      6.350
REMARK  5 active torsions:
REMARK  status: ('A' for Active; 'I' for Inactive)
REMARK    1  A    between atoms: C2_2  and  S1_4 
REMARK    2  A    between atoms: S1_4  and  C3_5 
REMARK    3  A    between atoms: C4_6  and  C5_7 
REMARK       I    between atoms: C5_7  and  N1_9 
REMARK    4  A    between atoms: N1_9  and  C6_10 
REMARK    5  A    between atoms: C14_18  and  C15_19 
ROOT
HETATM    1  C3  UNL     1      23.292   1.195  52.132  1.00  0.00     0.091 A 
HETATM    2  C4  UNL     1      24.261   2.076  51.827  1.00  0.00     0.050 A 
HETATM    3  C12 UNL     1      25.464   1.707  52.629  1.00  0.00     0.104 A 
HETATM    4  C13 UNL     1      25.088   0.550  53.446  1.00  0.00     0.013 A 
HETATM    5  C14 UNL     1      25.814  -0.095  54.325  1.00  0.00     0.009 C 
HETATM    6  N2  UNL     1      23.753   0.279  53.090  1.00  0.00    -0.348 N 
HETATM    7  C16 UNL     1      22.891  -0.770  53.584  1.00  0.00     0.156 C 
ENDROOT
BRANCH   2   8
HETATM    8  C5  UNL     1      24.540   3.253  50.979  1.00  0.00     0.255 C 
HETATM    9  O2  UNL     1      24.508   4.506  51.260  1.00  0.00    -0.268 OA
HETATM   10  N1  UNL     1      24.915   3.199  49.614  1.00  0.00    -0.323 N 
HETATM   11  H4  UNL     1      25.016   2.283  49.129  1.00  0.00     0.169 HD
BRANCH  10  12
HETATM   12  C6  UNL     1      25.099   4.538  49.131  1.00  0.00     0.035 A 
HETATM   13  C7  UNL     1      26.340   5.132  49.087  1.00  0.00     0.029 A 
HETATM   14  C8  UNL     1      26.525   6.425  48.621  1.00  0.00     0.002 A 
HETATM   15  C9  UNL     1      25.448   7.166  48.181  1.00  0.00     0.000 A 
HETATM   16  C10 UNL     1      24.193   6.589  48.218  1.00  0.00     0.002 A 
HETATM   17  C11 UNL     1      24.039   5.310  48.683  1.00  0.00     0.029 A 
ENDBRANCH  10  12
ENDBRANCH   2   8
BRANCH   1  18
HETATM   18  S1  UNL     1      21.805   1.513  51.228  1.00  0.00    -0.034 SA
BRANCH  18  19
HETATM   19  C2  UNL     1      20.782   2.802  51.895  1.00  0.00     0.188 C 
HETATM   20  C1  UNL     1      20.892   3.881  50.864  1.00  0.00     0.104 C 
HETATM   21  O1  UNL     1      20.061   3.126  52.824  1.00  0.00    -0.286 OA
ENDBRANCH  18  19
ENDBRANCH   1  18
BRANCH   5  22
HETATM   22  C15 UNL     1      27.184   0.122  54.758  1.00  0.00     0.114 C 
HETATM   23 BR1  UNL     1      28.529  -0.521  53.531  1.00  0.00    -0.092 Br
ENDBRANCH   5  22
TORSDOF 5
ENDMDL
MODEL 7
REMARK VINA RESULT:      -6.8      2.609      6.330
REMARK  5 active torsions:
REMARK  status: ('A' for Active; 'I' for Inactive)
REMARK    1  A    between atoms: C2_2  and  S1_4 
REMARK    2  A    between atoms: S1_4  and  C3_5 
REMARK    3  A    between atoms: C4_6  and  C5_7 
REMARK       I    between atoms: C5_7  and  N1_9 
REMARK    4  A    between atoms: N1_9  and  C6_10 
REMARK    5  A    between atoms: C14_18  and  C15_19 
ROOT
HETATM    1  C3  UNL     1      24.744   1.254  52.211  1.00  0.00     0.091 A 
HETATM    2  C4  UNL     1      23.498   1.437  51.737  1.00  0.00     0.050 A 
HETATM    3  C12 UNL     1      23.560   2.551  50.747  1.00  0.00     0.104 A 
HETATM    4  C13 UNL     1      24.951   3.012  50.716  1.00  0.00     0.013 A 
HETATM    5  C14 UNL     1      25.468   3.991  50.016  1.00  0.00     0.009 C 
HETATM    6  N2  UNL     1      25.626   2.175  51.625  1.00  0.00    -0.348 N 
HETATM    7  C16 UNL     1      27.027   2.181  51.976  1.00  0.00     0.156 C 
ENDROOT
BRANCH   2   8
HETATM    8  C5  UNL     1      22.121   0.916  51.851  1.00  0.00     0.255 C 
HETATM    9  O2  UNL     1      21.538  -0.037  51.220  1.00  0.00    -0.268 OA
HETATM   10  N1  UNL     1      21.136   1.415  52.739  1.00  0.00    -0.323 N 
HETATM   11  H4  UNL     1      21.354   2.207  53.379  1.00  0.00     0.169 HD
BRANCH  10  12
HETATM   12  C6  UNL     1      19.928   0.660  52.562  1.00  0.00     0.035 A 
HETATM   13  C7  UNL     1      19.617  -0.411  53.368  1.00  0.00     0.029 A 
HETATM   14  C8  UNL     1      18.451  -1.145  53.204  1.00  0.00     0.002 A 
HETATM   15  C9  UNL     1      17.555  -0.815  52.208  1.00  0.00     0.000 A 
HETATM   16  C10 UNL     1      17.850   0.258  51.388  1.00  0.00     0.002 A 
HETATM   17  C11 UNL     1      19.008   0.965  51.573  1.00  0.00     0.029 A 
ENDBRANCH  10  12
ENDBRANCH   2   8
BRANCH   1  18
HETATM   18  S1  UNL     1      24.812  -0.061  53.392  1.00  0.00    -0.034 SA
BRANCH  18  19
HETATM   19  C2  UNL     1      26.444  -0.645  53.772  1.00  0.00     0.188 C 
HETATM   20  C1  UNL     1      26.750  -1.554  52.624  1.00  0.00     0.104 C 
HETATM   21  O1  UNL     1      27.364  -0.590  54.572  1.00  0.00    -0.286 OA
ENDBRANCH  18  19
ENDBRANCH   1  18
BRANCH   5  22
HETATM   22  C15 UNL     1      24.848   4.905  49.071  1.00  0.00     0.114 C 
HETATM   23 BR1  UNL     1      25.788   6.573  48.828  1.00  0.00    -0.092 Br
ENDBRANCH   5  22
TORSDOF 5
ENDMDL
MODEL 8
REMARK VINA RESULT:      -6.7      7.809      9.458
REMARK  5 active torsions:
REMARK  status: ('A' for Active; 'I' for Inactive)
REMARK    1  A    between atoms: C2_2  and  S1_4 
REMARK    2  A    between atoms: S1_4  and  C3_5 
REMARK    3  A    between atoms: C4_6  and  C5_7 
REMARK       I    between atoms: C5_7  and  N1_9 
REMARK    4  A    between atoms: N1_9  and  C6_10 
REMARK    5  A    between atoms: C14_18  and  C15_19 
ROOT
HETATM    1  C3  UNL     1      28.411   7.338  48.194  1.00  0.00     0.091 A 
HETATM    2  C4  UNL     1      29.058   6.163  48.298  1.00  0.00     0.050 A 
HETATM    3  C12 UNL     1      28.039   5.125  48.629  1.00  0.00     0.104 A 
HETATM    4  C13 UNL     1      26.751   5.815  48.734  1.00  0.00     0.013 A 
HETATM    5  C14 UNL     1      25.581   5.311  49.037  1.00  0.00     0.009 C 
HETATM    6  N2  UNL     1      27.042   7.163  48.448  1.00  0.00    -0.348 N 
HETATM    7  C16 UNL     1      26.133   8.284  48.399  1.00  0.00     0.156 C 
ENDROOT
BRANCH   2   8
HETATM    8  C5  UNL     1      30.402   5.560  48.189  1.00  0.00     0.255 C 
HETATM    9  O2  UNL     1      31.176   5.086  49.097  1.00  0.00    -0.268 OA
HETATM   10  N1  UNL     1      31.119   5.390  46.979  1.00  0.00    -0.323 N 
HETATM   11  H4  UNL     1      30.707   5.697  46.073  1.00  0.00     0.169 HD
BRANCH  10  12
HETATM   12  C6  UNL     1      32.381   4.773  47.272  1.00  0.00     0.035 A 
HETATM   13  C7  UNL     1      33.500   5.514  47.575  1.00  0.00     0.029 A 
HETATM   14  C8  UNL     1      34.723   4.925  47.859  1.00  0.00     0.002 A 
HETATM   15  C9  UNL     1      34.853   3.551  47.844  1.00  0.00     0.000 A 
HETATM   16  C10 UNL     1      33.742   2.788  47.541  1.00  0.00     0.002 A 
HETATM   17  C11 UNL     1      32.546   3.398  47.265  1.00  0.00     0.029 A 
ENDBRANCH  10  12
ENDBRANCH   2   8
BRANCH   1  18
HETATM   18  S1  UNL     1      29.512   8.661  47.785  1.00  0.00    -0.034 SA
BRANCH  18  19
HETATM   19  C2  UNL     1      30.742   9.022  49.012  1.00  0.00     0.188 C 
HETATM   20  C1  UNL     1      30.583  10.495  49.221  1.00  0.00     0.104 C 
HETATM   21  O1  UNL     1      31.622   8.551  49.714  1.00  0.00    -0.286 OA
ENDBRANCH  18  19
ENDBRANCH   1  18
BRANCH   5  22
HETATM   22  C15 UNL     1      25.195   3.946  49.355  1.00  0.00     0.114 C 
HETATM   23 BR1  UNL     1      23.339   3.535  49.018  1.00  0.00    -0.092 Br
ENDBRANCH   5  22
TORSDOF 5
ENDMDL
MODEL 9
REMARK VINA RESULT:      -6.6      3.086      4.653
REMARK  5 active torsions:
REMARK  status: ('A' for Active; 'I' for Inactive)
REMARK    1  A    between atoms: C2_2  and  S1_4 
REMARK    2  A    between atoms: S1_4  and  C3_5 
REMARK    3  A    between atoms: C4_6  and  C5_7 
REMARK       I    between atoms: C5_7  and  N1_9 
REMARK    4  A    between atoms: N1_9  and  C6_10 
REMARK    5  A    between atoms: C14_18  and  C15_19 
ROOT
HETATM    1  C3  UNL     1      22.818   3.477  51.517  1.00  0.00     0.091 A 
HETATM    2  C4  UNL     1      23.453   2.432  52.077  1.00  0.00     0.050 A 
HETATM    3  C12 UNL     1      22.434   1.368  52.311  1.00  0.00     0.104 A 
HETATM    4  C13 UNL     1      21.148   1.908  51.861  1.00  0.00     0.013 A 
HETATM    5  C14 UNL     1      19.969   1.340  51.901  1.00  0.00     0.009 C 
HETATM    6  N2  UNL     1      21.450   3.196  51.377  1.00  0.00    -0.348 N 
HETATM    7  C16 UNL     1      20.551   4.168  50.801  1.00  0.00     0.156 C 
ENDROOT
BRANCH   2   8
HETATM    8  C5  UNL     1      24.788   1.983  52.521  1.00  0.00     0.255 C 
HETATM    9  O2  UNL     1      25.239   1.756  53.701  1.00  0.00    -0.268 OA
HETATM   10  N1  UNL     1      25.878   1.706  51.659  1.00  0.00    -0.323 N 
HETATM   11  H4  UNL     1      25.778   1.812  50.628  1.00  0.00     0.169 HD
BRANCH  10  12
HETATM   12  C6  UNL     1      27.003   1.297  52.452  1.00  0.00     0.035 A 
HETATM   13  C7  UNL     1      27.857   2.211  53.027  1.00  0.00     0.029 A 
HETATM   14  C8  UNL     1      28.946   1.824  53.795  1.00  0.00     0.002 A 
HETATM   15  C9  UNL     1      29.207   0.486  54.006  1.00  0.00     0.000 A 
HETATM   16  C10 UNL     1      28.361  -0.448  53.438  1.00  0.00     0.002 A 
HETATM   17  C11 UNL     1      27.293  -0.037  52.684  1.00  0.00     0.029 A 
ENDBRANCH  10  12
ENDBRANCH   2   8
BRANCH   1  18
HETATM   18  S1  UNL     1      23.926   4.811  51.170  1.00  0.00    -0.034 SA
BRANCH  18  19
HETATM   19  C2  UNL     1      24.315   5.038  49.454  1.00  0.00     0.188 C 
HETATM   20  C1  UNL     1      25.734   4.570  49.369  1.00  0.00     0.104 C 
HETATM   21  O1  UNL     1      23.890   5.409  48.372  1.00  0.00    -0.286 OA
ENDBRANCH  18  19
ENDBRANCH   1  18
BRANCH   5  22
HETATM   22  C15 UNL     1      19.568   0.031  52.389  1.00  0.00     0.114 C 
HETATM   23 BR1  UNL     1      17.734  -0.442  52.015  1.00  0.00    -0.092 Br
ENDBRANCH   5  22
TORSDOF 5
ENDMDL
