MODEL 1
REMARK VINA RESULT:      -7.9      0.000      0.000
REMARK  2 active torsions:
REMARK  status: ('A' for Active; 'I' for Inactive)
REMARK    1  A    between atoms: O1_2  and  C2_3 
REMARK    2  A    between atoms: C17_22  and  O2_23 
ROOT
HETATM    1  C2  UNL     1      30.940   8.451  44.804  1.00  0.00     0.069 C 
HETATM    2  C3  UNL     1      31.668   7.357  45.103  1.00  0.00     0.082 C 
HETATM    3  C4  UNL     1      32.939   7.311  45.756  1.00  0.00    -0.003 C 
HETATM    4  C5  UNL     1      33.667   6.299  46.072  1.00  0.00     0.000 C 
HETATM    5  C6  UNL     1      33.904   4.872  46.113  1.00  0.00     0.139 C 
HETATM    6  C7  UNL     1      32.715   3.982  45.921  1.00  0.00     0.080 C 
HETATM    7  C8  UNL     1      33.064   2.789  46.785  1.00  0.00     0.114 C 
HETATM    8  N1  UNL     1      34.038   3.085  47.617  1.00  0.00    -0.187 NA
HETATM    9  N2  UNL     1      34.420   4.411  47.415  1.00  0.00    -0.255 N 
HETATM   10  C9  UNL     1      35.188   5.107  48.389  1.00  0.00     0.228 C 
HETATM   11  N3  UNL     1      34.444   5.856  49.133  1.00  0.00    -0.255 NA
HETATM   12  C10 UNL     1      33.039   5.939  48.958  1.00  0.00     0.114 C 
HETATM   13  C11 UNL     1      31.751   5.654  48.836  1.00  0.00    -0.000 C 
HETATM   14  C12 UNL     1      30.843   6.821  48.606  1.00  0.00     0.097 C 
HETATM   15  C13 UNL     1      29.508   6.593  48.471  1.00  0.00     0.039 C 
HETATM   16 CL1  UNL     1      28.114   5.434  48.425  1.00  0.00    -0.123 Cl
HETATM   17  C14 UNL     1      29.048   7.938  48.270  1.00  0.00    -0.013 C 
HETATM   18  C15 UNL     1      27.515   8.024  48.137  1.00  0.00     0.018 C 
HETATM   19  C16 UNL     1      29.469   9.004  49.250  1.00  0.00     0.075 C 
HETATM   20  C17 UNL     1      28.740  10.176  48.604  1.00  0.00     0.043 C 
HETATM   21  C19 UNL     1      28.829   9.937  47.277  1.00  0.00     0.011 C 
HETATM   22  C20 UNL     1      29.606   8.630  46.978  1.00  0.00     0.025 C 
HETATM   23  C21 UNL     1      30.903   8.997  47.270  1.00  0.00     0.004 C 
HETATM   24  C22 UNL     1      31.582   9.945  46.622  1.00  0.00    -0.033 C 
HETATM   25  C23 UNL     1      31.645   9.660  45.311  1.00  0.00     0.066 C 
ENDROOT
BRANCH   1  26
HETATM   26  O1  UNL     1      30.106   9.496  44.445  1.00  0.00    -0.386 OA
HETATM   27  C1  UNL     1      30.168  10.062  43.140  1.00  0.00     0.202 C 
ENDBRANCH   1  26
BRANCH  20  28
HETATM   28  O2  UNL     1      28.083  11.300  49.065  1.00  0.00    -0.361 OA
HETATM   29  C18 UNL     1      28.615  12.604  48.958  1.00  0.00     0.209 C 
ENDBRANCH  20  28
TORSDOF 2
ENDMDL
MODEL 2
REMARK VINA RESULT:      -7.4      9.660     11.740
REMARK  2 active torsions:
REMARK  status: ('A' for Active; 'I' for Inactive)
REMARK    1  A    between atoms: O1_2  and  C2_3 
REMARK    2  A    between atoms: C17_22  and  O2_23 
ROOT
HETATM    1  C2  UNL     1      20.890   0.542  52.980  1.00  0.00     0.069 C 
HETATM    2  C3  UNL     1      22.090   0.192  53.481  1.00  0.00     0.082 C 
HETATM    3  C4  UNL     1      23.091  -0.616  52.857  1.00  0.00    -0.003 C 
HETATM    4  C5  UNL     1      24.251  -0.970  53.285  1.00  0.00     0.000 C 
HETATM    5  C6  UNL     1      25.284  -0.962  54.299  1.00  0.00     0.139 C 
HETATM    6  C7  UNL     1      25.206   0.115  55.336  1.00  0.00     0.080 C 
HETATM    7  C8  UNL     1      26.667   0.370  55.642  1.00  0.00     0.114 C 
HETATM    8  N1  UNL     1      27.435  -0.142  54.707  1.00  0.00    -0.187 NA
HETATM    9  N2  UNL     1      26.633  -0.752  53.745  1.00  0.00    -0.255 N 
HETATM   10  C9  UNL     1      27.151  -1.074  52.459  1.00  0.00     0.228 C 
HETATM   11  N3  UNL     1      26.828  -0.182  51.582  1.00  0.00    -0.255 NA
HETATM   12  C10 UNL     1      26.052   0.958  51.911  1.00  0.00     0.114 C 
HETATM   13  C11 UNL     1      25.594   2.072  52.465  1.00  0.00    -0.000 C 
HETATM   14  C12 UNL     1      24.313   2.601  51.902  1.00  0.00     0.097 C 
HETATM   15  C13 UNL     1      23.789   3.741  52.430  1.00  0.00     0.039 C 
HETATM   16 CL1  UNL     1      23.887   5.103  53.624  1.00  0.00    -0.123 Cl
HETATM   17  C14 UNL     1      22.609   3.867  51.623  1.00  0.00    -0.013 C 
HETATM   18  C15 UNL     1      21.802   5.139  51.950  1.00  0.00     0.018 C 
HETATM   19  C16 UNL     1      22.745   3.802  50.122  1.00  0.00     0.075 C 
HETATM   20  C17 UNL     1      21.272   3.983  49.775  1.00  0.00     0.043 C 
HETATM   21  C19 UNL     1      20.613   3.327  50.755  1.00  0.00     0.011 C 
HETATM   22  C20 UNL     1      21.587   2.688  51.776  1.00  0.00     0.025 C 
HETATM   23  C21 UNL     1      22.106   1.634  51.054  1.00  0.00     0.004 C 
HETATM   24  C22 UNL     1      21.387   0.610  50.593  1.00  0.00    -0.033 C 
HETATM   25  C23 UNL     1      20.756  -0.009  51.603  1.00  0.00     0.066 C 
ENDROOT
BRANCH   1  26
HETATM   26  O1  UNL     1      19.635   0.964  52.574  1.00  0.00    -0.386 OA
HETATM   27  C1  UNL     1      18.579   0.029  52.380  1.00  0.00     0.202 C 
ENDBRANCH   1  26
BRANCH  20  28
HETATM   28  O2  UNL     1      20.570   4.616  48.768  1.00  0.00    -0.361 OA
HETATM   29  C18 UNL     1      20.880   5.916  48.311  1.00  0.00     0.209 C 
ENDBRANCH  20  28
TORSDOF 2
ENDMDL
MODEL 3
REMARK VINA RESULT:      -7.2      2.164      4.106
REMARK  2 active torsions:
REMARK  status: ('A' for Active; 'I' for Inactive)
REMARK    1  A    between atoms: O1_2  and  C2_3 
REMARK    2  A    between atoms: C17_22  and  O2_23 
ROOT
HETATM    1  C2  UNL     1      29.096   8.080  48.703  1.00  0.00     0.069 C 
HETATM    2  C3  UNL     1      30.141   7.231  48.673  1.00  0.00     0.082 C 
HETATM    3  C4  UNL     1      30.308   6.087  47.831  1.00  0.00    -0.003 C 
HETATM    4  C5  UNL     1      31.285   5.254  47.755  1.00  0.00     0.000 C 
HETATM    5  C6  UNL     1      32.586   4.786  48.182  1.00  0.00     0.139 C 
HETATM    6  C7  UNL     1      33.447   5.759  48.924  1.00  0.00     0.080 C 
HETATM    7  C8  UNL     1      34.839   5.349  48.494  1.00  0.00     0.114 C 
HETATM    8  N1  UNL     1      34.790   4.581  47.429  1.00  0.00    -0.187 NA
HETATM    9  N2  UNL     1      33.459   4.406  47.057  1.00  0.00    -0.255 N 
HETATM   10  C9  UNL     1      33.119   3.929  45.760  1.00  0.00     0.228 C 
HETATM   11  N3  UNL     1      32.793   4.897  44.969  1.00  0.00    -0.255 NA
HETATM   12  C10 UNL     1      32.790   6.251  45.391  1.00  0.00     0.114 C 
HETATM   13  C11 UNL     1      33.134   7.437  45.873  1.00  0.00    -0.000 C 
HETATM   14  C12 UNL     1      32.066   8.484  45.851  1.00  0.00     0.097 C 
HETATM   15  C13 UNL     1      32.356   9.723  46.334  1.00  0.00     0.039 C 
HETATM   16 CL1  UNL     1      33.542  10.873  47.083  1.00  0.00    -0.123 Cl
HETATM   17  C14 UNL     1      31.091  10.370  46.129  1.00  0.00    -0.013 C 
HETATM   18  C15 UNL     1      31.115  11.856  46.538  1.00  0.00     0.018 C 
HETATM   19  C16 UNL     1      30.450  10.295  44.767  1.00  0.00     0.075 C 
HETATM   20  C17 UNL     1      29.198  11.106  45.085  1.00  0.00     0.043 C 
HETATM   21  C19 UNL     1      28.897  10.772  46.359  1.00  0.00     0.011 C 
HETATM   22  C20 UNL     1      29.903   9.745  46.939  1.00  0.00     0.025 C 
HETATM   23  C21 UNL     1      29.549   8.592  46.272  1.00  0.00     0.004 C 
HETATM   24  C22 UNL     1      28.362   7.994  46.379  1.00  0.00    -0.033 C 
HETATM   25  C23 UNL     1      28.111   7.680  47.660  1.00  0.00     0.066 C 
ENDROOT
BRANCH   1  26
HETATM   26  O1  UNL     1      28.082   9.015  48.828  1.00  0.00    -0.386 OA
HETATM   27  C1  UNL     1      27.442   9.233  50.081  1.00  0.00     0.202 C 
ENDBRANCH   1  26
BRANCH  20  28
HETATM   28  O2  UNL     1      28.411  12.009  44.398  1.00  0.00    -0.361 OA
HETATM   29  C18 UNL     1      27.946  13.215  44.965  1.00  0.00     0.209 C 
ENDBRANCH  20  28
TORSDOF 2
ENDMDL
MODEL 4
REMARK VINA RESULT:      -6.9      5.524      8.256
REMARK  2 active torsions:
REMARK  status: ('A' for Active; 'I' for Inactive)
REMARK    1  A    between atoms: O1_2  and  C2_3 
REMARK    2  A    between atoms: C17_22  and  O2_23 
ROOT
HETATM    1  C2  UNL     1      22.820   6.582  46.786  1.00  0.00     0.069 C 
HETATM    2  C3  UNL     1      23.906   7.355  46.595  1.00  0.00     0.082 C 
HETATM    3  C4  UNL     1      24.153   8.656  47.135  1.00  0.00    -0.003 C 
HETATM    4  C5  UNL     1      25.172   9.428  46.993  1.00  0.00     0.000 C 
HETATM    5  C6  UNL     1      26.482   9.710  46.445  1.00  0.00     0.139 C 
HETATM    6  C7  UNL     1      27.272   8.541  45.945  1.00  0.00     0.080 C 
HETATM    7  C8  UNL     1      28.695   8.965  46.242  1.00  0.00     0.114 C 
HETATM    8  N1  UNL     1      28.714   9.967  47.092  1.00  0.00    -0.187 NA
HETATM    9  N2  UNL     1      27.404  10.298  47.433  1.00  0.00    -0.255 N 
HETATM   10  C9  UNL     1      27.126  11.089  48.583  1.00  0.00     0.228 C 
HETATM   11  N3  UNL     1      26.775  10.357  49.587  1.00  0.00    -0.255 NA
HETATM   12  C10 UNL     1      26.693   8.944  49.503  1.00  0.00     0.114 C 
HETATM   13  C11 UNL     1      26.964   7.661  49.314  1.00  0.00    -0.000 C 
HETATM   14  C12 UNL     1      25.846   6.709  49.603  1.00  0.00     0.097 C 
HETATM   15  C13 UNL     1      26.062   5.376  49.427  1.00  0.00     0.039 C 
HETATM   16 CL1  UNL     1      27.167   4.017  48.958  1.00  0.00    -0.123 Cl
HETATM   17  C14 UNL     1      24.773   4.867  49.802  1.00  0.00    -0.013 C 
HETATM   18  C15 UNL     1      24.712   3.328  49.761  1.00  0.00     0.018 C 
HETATM   19  C16 UNL     1      24.175   5.300  51.116  1.00  0.00     0.075 C 
HETATM   20  C17 UNL     1      22.876   4.507  51.022  1.00  0.00     0.043 C 
HETATM   21  C19 UNL     1      22.556   4.542  49.710  1.00  0.00     0.011 C 
HETATM   22  C20 UNL     1      23.594   5.345  48.885  1.00  0.00     0.025 C 
HETATM   23  C21 UNL     1      23.316   6.641  49.261  1.00  0.00     0.004 C 
HETATM   24  C22 UNL     1      22.158   7.261  49.033  1.00  0.00    -0.033 C 
HETATM   25  C23 UNL     1      21.887   7.273  47.718  1.00  0.00     0.066 C 
ENDROOT
BRANCH   1  26
HETATM   26  O1  UNL     1      21.758   5.702  46.905  1.00  0.00    -0.386 OA
HETATM   27  C1  UNL     1      21.530   4.698  45.921  1.00  0.00     0.202 C 
ENDBRANCH   1  26
BRANCH  20  28
HETATM   28  O2  UNL     1      22.066   3.839  51.918  1.00  0.00    -0.361 OA
HETATM   29  C18 UNL     1      20.656   3.835  51.830  1.00  0.00     0.209 C 
ENDBRANCH  20  28
TORSDOF 2
ENDMDL
MODEL 5
REMARK VINA RESULT:      -6.8      1.765      2.286
REMARK  2 active torsions:
REMARK  status: ('A' for Active; 'I' for Inactive)
REMARK    1  A    between atoms: O1_2  and  C2_3 
REMARK    2  A    between atoms: C17_22  and  O2_23 
ROOT
HETATM    1  C2  UNL     1      32.433  11.062  45.580  1.00  0.00     0.069 C 
HETATM    2  C3  UNL     1      32.798   9.765  45.572  1.00  0.00     0.082 C 
HETATM    3  C4  UNL     1      33.558   9.069  46.563  1.00  0.00    -0.003 C 
HETATM    4  C5  UNL     1      33.923   7.837  46.608  1.00  0.00     0.000 C 
HETATM    5  C6  UNL     1      33.961   6.505  46.042  1.00  0.00     0.139 C 
HETATM    6  C7  UNL     1      32.947   6.188  44.988  1.00  0.00     0.080 C 
HETATM    7  C8  UNL     1      32.693   4.714  45.221  1.00  0.00     0.114 C 
HETATM    8  N1  UNL     1      33.143   4.344  46.400  1.00  0.00    -0.187 NA
HETATM    9  N2  UNL     1      33.706   5.449  47.037  1.00  0.00    -0.255 N 
HETATM   10  C9  UNL     1      33.947   5.439  48.439  1.00  0.00     0.228 C 
HETATM   11  N3  UNL     1      33.011   6.050  49.086  1.00  0.00    -0.255 NA
HETATM   12  C10 UNL     1      31.900   6.640  48.431  1.00  0.00     0.114 C 
HETATM   13  C11 UNL     1      30.825   6.853  47.686  1.00  0.00    -0.000 C 
HETATM   14  C12 UNL     1      30.279   8.245  47.712  1.00  0.00     0.097 C 
HETATM   15  C13 UNL     1      29.176   8.528  46.966  1.00  0.00     0.039 C 
HETATM   16 CL1  UNL     1      27.884   7.987  45.813  1.00  0.00    -0.123 Cl
HETATM   17  C14 UNL     1      29.018   9.921  47.278  1.00  0.00    -0.013 C 
HETATM   18  C15 UNL     1      27.776  10.539  46.607  1.00  0.00     0.018 C 
HETATM   19  C16 UNL     1      28.995  10.341  48.726  1.00  0.00     0.075 C 
HETATM   20  C17 UNL     1      28.811  11.838  48.502  1.00  0.00     0.043 C 
HETATM   21  C19 UNL     1      29.529  12.101  47.388  1.00  0.00     0.011 C 
HETATM   22  C20 UNL     1      30.215  10.828  46.830  1.00  0.00     0.025 C 
HETATM   23  C21 UNL     1      31.220  10.620  47.751  1.00  0.00     0.004 C 
HETATM   24  C22 UNL     1      32.224  11.468  47.976  1.00  0.00    -0.033 C 
HETATM   25  C23 UNL     1      32.906  11.694  46.842  1.00  0.00     0.066 C 
ENDROOT
BRANCH   1  26
HETATM   26  O1  UNL     1      32.003  12.373  45.475  1.00  0.00    -0.386 OA
HETATM   27  C1  UNL     1      31.748  12.957  44.202  1.00  0.00     0.202 C 
ENDBRANCH   1  26
BRANCH  20  28
HETATM   28  O2  UNL     1      28.129  12.852  49.146  1.00  0.00    -0.361 OA
HETATM   29  C18 UNL     1      27.373  13.828  48.462  1.00  0.00     0.209 C 
ENDBRANCH  20  28
TORSDOF 2
ENDMDL
MODEL 6
REMARK VINA RESULT:      -6.7      3.728      5.851
REMARK  2 active torsions:
REMARK  status: ('A' for Active; 'I' for Inactive)
REMARK    1  A    between atoms: O1_2  and  C2_3 
REMARK    2  A    between atoms: C17_22  and  O2_23 
ROOT
HETATM    1  C2  UNL     1      25.169   8.501  45.606  1.00  0.00     0.069 C 
HETATM    2  C3  UNL     1      26.482   8.777  45.482  1.00  0.00     0.082 C 
HETATM    3  C4  UNL     1      27.172   9.942  45.939  1.00  0.00    -0.003 C 
HETATM    4  C5  UNL     1      28.418  10.249  45.856  1.00  0.00     0.000 C 
HETATM    5  C6  UNL     1      29.773   9.946  45.446  1.00  0.00     0.139 C 
HETATM    6  C7  UNL     1      30.083   8.514  45.139  1.00  0.00     0.080 C 
HETATM    7  C8  UNL     1      31.532   8.401  45.565  1.00  0.00     0.114 C 
HETATM    8  N1  UNL     1      31.873   9.416  46.328  1.00  0.00    -0.187 NA
HETATM    9  N2  UNL     1      30.772  10.256  46.484  1.00  0.00    -0.255 N 
HETATM   10  C9  UNL     1      30.735  11.226  47.524  1.00  0.00     0.228 C 
HETATM   11  N3  UNL     1      30.051  10.808  48.537  1.00  0.00    -0.255 NA
HETATM   12  C10 UNL     1      29.433   9.532  48.559  1.00  0.00     0.114 C 
HETATM   13  C11 UNL     1      29.198   8.229  48.509  1.00  0.00    -0.000 C 
HETATM   14  C12 UNL     1      27.780   7.812  48.741  1.00  0.00     0.097 C 
HETATM   15  C13 UNL     1      27.474   6.486  48.701  1.00  0.00     0.039 C 
HETATM   16 CL1  UNL     1      27.998   4.764  48.477  1.00  0.00    -0.123 Cl
HETATM   17  C14 UNL     1      26.063   6.552  48.961  1.00  0.00    -0.013 C 
HETATM   18  C15 UNL     1      25.413   5.157  49.038  1.00  0.00     0.018 C 
HETATM   19  C16 UNL     1      25.581   7.334  50.156  1.00  0.00     0.075 C 
HETATM   20  C17 UNL     1      24.088   7.085  49.975  1.00  0.00     0.043 C 
HETATM   21  C19 UNL     1      23.909   7.081  48.636  1.00  0.00     0.011 C 
HETATM   22  C20 UNL     1      25.237   7.325  47.876  1.00  0.00     0.025 C 
HETATM   23  C21 UNL     1      25.457   8.666  48.110  1.00  0.00     0.004 C 
HETATM   24  C22 UNL     1      24.652   9.645  47.697  1.00  0.00    -0.033 C 
HETATM   25  C23 UNL     1      24.509   9.600  46.362  1.00  0.00     0.066 C 
ENDROOT
BRANCH   1  26
HETATM   26  O1  UNL     1      23.843   8.108  45.671  1.00  0.00    -0.386 OA
HETATM   27  C1  UNL     1      23.280   7.275  44.663  1.00  0.00     0.202 C 
ENDBRANCH   1  26
BRANCH  20  28
HETATM   28  O2  UNL     1      23.015   6.886  50.821  1.00  0.00    -0.361 OA
HETATM   29  C18 UNL     1      21.757   7.500  50.630  1.00  0.00     0.209 C 
ENDBRANCH  20  28
TORSDOF 2
ENDMDL
MODEL 7
REMARK VINA RESULT:      -6.6     23.660     25.731
REMARK  2 active torsions:
REMARK  status: ('A' for Active; 'I' for Inactive)
REMARK    1  A    between atoms: O1_2  and  C2_3 
REMARK    2  A    between atoms: C17_22  and  O2_23 
ROOT
HETATM    1  C2  UNL     1      37.931  -1.129  69.302  1.00  0.00     0.069 C 
HETATM    2  C3  UNL     1      37.774  -2.466  69.328  1.00  0.00     0.082 C 
HETATM    3  C4  UNL     1      37.566  -3.340  68.216  1.00  0.00    -0.003 C 
HETATM    4  C5  UNL     1      37.421  -4.617  68.185  1.00  0.00     0.000 C 
HETATM    5  C6  UNL     1      37.347  -5.900  68.851  1.00  0.00     0.139 C 
HETATM    6  C7  UNL     1      37.901  -5.975  70.240  1.00  0.00     0.080 C 
HETATM    7  C8  UNL     1      38.426  -7.394  70.299  1.00  0.00     0.114 C 
HETATM    8  N1  UNL     1      38.528  -7.904  69.092  1.00  0.00    -0.187 NA
HETATM    9  N2  UNL     1      38.114  -6.952  68.162  1.00  0.00    -0.255 N 
HETATM   10  C9  UNL     1      38.444  -7.085  66.784  1.00  0.00     0.228 C 
HETATM   11  N3  UNL     1      39.466  -6.360  66.469  1.00  0.00    -0.255 NA
HETATM   12  C10 UNL     1      40.139  -5.549  67.418  1.00  0.00     0.114 C 
HETATM   13  C11 UNL     1      40.796  -5.110  68.482  1.00  0.00    -0.000 C 
HETATM   14  C12 UNL     1      41.113  -3.648  68.495  1.00  0.00     0.097 C 
HETATM   15  C13 UNL     1      41.785  -3.136  69.563  1.00  0.00     0.039 C 
HETATM   16 CL1  UNL     1      42.584  -3.377  71.173  1.00  0.00    -0.123 Cl
HETATM   17  C14 UNL     1      41.860  -1.758  69.167  1.00  0.00    -0.013 C 
HETATM   18  C15 UNL     1      42.643  -0.896  70.177  1.00  0.00     0.018 C 
HETATM   19  C16 UNL     1      42.390  -1.424  67.795  1.00  0.00     0.075 C 
HETATM   20  C17 UNL     1      42.264   0.092  67.890  1.00  0.00     0.043 C 
HETATM   21  C19 UNL     1      41.139   0.291  68.611  1.00  0.00     0.011 C 
HETATM   22  C20 UNL     1      40.471  -1.047  69.018  1.00  0.00     0.025 C 
HETATM   23  C21 UNL     1      39.946  -1.479  67.819  1.00  0.00     0.004 C 
HETATM   24  C22 UNL     1      39.004  -0.832  67.131  1.00  0.00    -0.033 C 
HETATM   25  C23 UNL     1      37.908  -0.662  67.888  1.00  0.00     0.066 C 
ENDROOT
BRANCH   1  26
HETATM   26  O1  UNL     1      38.102   0.241  69.402  1.00  0.00    -0.386 OA
HETATM   27  C1  UNL     1      37.702   0.942  70.576  1.00  0.00     0.202 C 
ENDBRANCH   1  26
BRANCH  20  28
HETATM   28  O2  UNL     1      42.997   1.170  67.434  1.00  0.00    -0.361 OA
HETATM   29  C18 UNL     1      43.837   1.941  68.267  1.00  0.00     0.209 C 
ENDBRANCH  20  28
TORSDOF 2
ENDMDL
MODEL 8
REMARK VINA RESULT:      -6.6      3.086      4.907
REMARK  2 active torsions:
REMARK  status: ('A' for Active; 'I' for Inactive)
REMARK    1  A    between atoms: O1_2  and  C2_3 
REMARK    2  A    between atoms: C17_22  and  O2_23 
ROOT
HETATM    1  C2  UNL     1      30.060  11.689  48.045  1.00  0.00     0.069 C 
HETATM    2  C3  UNL     1      30.917  11.527  47.018  1.00  0.00     0.082 C 
HETATM    3  C4  UNL     1      32.148  10.800  47.019  1.00  0.00    -0.003 C 
HETATM    4  C5  UNL     1      32.994  10.608  46.070  1.00  0.00     0.000 C 
HETATM    5  C6  UNL     1      33.425  10.793  44.700  1.00  0.00     0.139 C 
HETATM    6  C7  UNL     1      32.383  11.220  43.714  1.00  0.00     0.080 C 
HETATM    7  C8  UNL     1      32.851  10.548  42.441  1.00  0.00     0.114 C 
HETATM    8  N1  UNL     1      33.732   9.610  42.707  1.00  0.00    -0.187 NA
HETATM    9  N2  UNL     1      33.934   9.555  44.084  1.00  0.00    -0.255 N 
HETATM   10  C9  UNL     1      34.549   8.422  44.688  1.00  0.00     0.228 C 
HETATM   11  N3  UNL     1      33.671   7.619  45.191  1.00  0.00    -0.255 NA
HETATM   12  C10 UNL     1      32.279   7.880  45.123  1.00  0.00     0.114 C 
HETATM   13  C11 UNL     1      31.050   8.143  44.701  1.00  0.00    -0.000 C 
HETATM   14  C12 UNL     1      30.002   8.237  45.764  1.00  0.00     0.097 C 
HETATM   15  C13 UNL     1      28.720   8.507  45.394  1.00  0.00     0.039 C 
HETATM   16 CL1  UNL     1      27.505   8.852  44.092  1.00  0.00    -0.123 Cl
HETATM   17  C14 UNL     1      28.087   8.510  46.683  1.00  0.00    -0.013 C 
HETATM   18  C15 UNL     1      26.566   8.738  46.594  1.00  0.00     0.018 C 
HETATM   19  C16 UNL     1      28.306   7.334  47.602  1.00  0.00     0.075 C 
HETATM   20  C17 UNL     1      27.454   7.823  48.767  1.00  0.00     0.043 C 
HETATM   21  C19 UNL     1      27.641   9.161  48.782  1.00  0.00     0.011 C 
HETATM   22  C20 UNL     1      28.607   9.620  47.660  1.00  0.00     0.025 C 
HETATM   23  C21 UNL     1      29.824   9.176  48.133  1.00  0.00     0.004 C 
HETATM   24  C22 UNL     1      30.396   9.601  49.260  1.00  0.00    -0.033 C 
HETATM   25  C23 UNL     1      30.563  10.933  49.224  1.00  0.00     0.066 C 
ENDROOT
BRANCH   1  26
HETATM   26  O1  UNL     1      29.108  11.926  49.021  1.00  0.00    -0.386 OA
HETATM   27  C1  UNL     1      28.298  13.097  48.981  1.00  0.00     0.202 C 
ENDBRANCH   1  26
BRANCH  20  28
HETATM   28  O2  UNL     1      26.625   7.227  49.697  1.00  0.00    -0.361 OA
HETATM   29  C18 UNL     1      25.761   6.155  49.385  1.00  0.00     0.209 C 
ENDBRANCH  20  28
TORSDOF 2
ENDMDL
MODEL 9
REMARK VINA RESULT:      -6.5      2.699      4.609
REMARK  2 active torsions:
REMARK  status: ('A' for Active; 'I' for Inactive)
REMARK    1  A    between atoms: O1_2  and  C2_3 
REMARK    2  A    between atoms: C17_22  and  O2_23 
ROOT
HETATM    1  C2  UNL     1      27.842   7.753  48.743  1.00  0.00     0.069 C 
HETATM    2  C3  UNL     1      29.141   7.447  48.558  1.00  0.00     0.082 C 
HETATM    3  C4  UNL     1      29.756   6.952  47.367  1.00  0.00    -0.003 C 
HETATM    4  C5  UNL     1      30.986   6.655  47.135  1.00  0.00     0.000 C 
HETATM    5  C6  UNL     1      32.365   6.546  47.561  1.00  0.00     0.139 C 
HETATM    6  C7  UNL     1      32.759   7.316  48.783  1.00  0.00     0.080 C 
HETATM    7  C8  UNL     1      34.200   7.673  48.486  1.00  0.00     0.114 C 
HETATM    8  N1  UNL     1      34.467   7.508  47.209  1.00  0.00    -0.187 NA
HETATM    9  N2  UNL     1      33.319   7.056  46.561  1.00  0.00    -0.255 N 
HETATM   10  C9  UNL     1      33.204   7.129  45.144  1.00  0.00     0.228 C 
HETATM   11  N3  UNL     1      32.517   8.160  44.778  1.00  0.00    -0.255 NA
HETATM   12  C10 UNL     1      31.968   9.075  45.711  1.00  0.00     0.114 C 
HETATM   13  C11 UNL     1      31.805   9.950  46.693  1.00  0.00    -0.000 C 
HETATM   14  C12 UNL     1      30.405  10.433  46.909  1.00  0.00     0.097 C 
HETATM   15  C13 UNL     1      30.171  11.333  47.904  1.00  0.00     0.039 C 
HETATM   16 CL1  UNL     1      30.792  12.360  49.264  1.00  0.00    -0.123 Cl
HETATM   17  C14 UNL     1      28.753  11.501  47.756  1.00  0.00    -0.013 C 
HETATM   18  C15 UNL     1      28.176  12.539  48.737  1.00  0.00     0.018 C 
HETATM   19  C16 UNL     1      28.199  11.824  46.391  1.00  0.00     0.075 C 
HETATM   20  C17 UNL     1      26.727  11.894  46.779  1.00  0.00     0.043 C 
HETATM   21  C19 UNL     1      26.582  10.940  47.724  1.00  0.00     0.011 C 
HETATM   22  C20 UNL     1      27.915  10.199  48.003  1.00  0.00     0.025 C 
HETATM   23  C21 UNL     1      28.056   9.430  46.867  1.00  0.00     0.004 C 
HETATM   24  C22 UNL     1      27.211   8.467  46.499  1.00  0.00    -0.033 C 
HETATM   25  C23 UNL     1      27.105   7.544  47.467  1.00  0.00     0.066 C 
ENDROOT
BRANCH   1  26
HETATM   26  O1  UNL     1      26.538   8.098  49.054  1.00  0.00    -0.386 OA
HETATM   27  C1  UNL     1      25.839   7.435  50.103  1.00  0.00     0.202 C 
ENDBRANCH   1  26
BRANCH  20  28
HETATM   28  O2  UNL     1      25.644  12.661  46.393  1.00  0.00    -0.361 OA
HETATM   29  C18 UNL     1      24.387  12.597  47.033  1.00  0.00     0.209 C 
ENDBRANCH  20  28
TORSDOF 2
ENDMDL
