MODEL 1
REMARK VINA RESULT:     -10.3      0.000      0.000
REMARK  3 active torsions:
REMARK  status: ('A' for Active; 'I' for Inactive)
REMARK    1  A    between atoms: C6_9  and  N3_10 
REMARK    2  A    between atoms: N3_10  and  C7_11 
REMARK    3  A    between atoms: C22_30  and  O3_31 
ROOT
HETATM    1  C1  UNL     1      21.407   5.386  49.972  1.00  0.00     0.000 C 
HETATM    2  O1  UNL     1      21.991   4.140  50.065  1.00  0.00     0.000 OA
HETATM    3  C2  UNL     1      21.583   2.946  49.504  1.00  0.00    -0.035 A 
HETATM    4  C3  UNL     1      22.831   2.982  49.836  1.00  0.00     0.084 A 
HETATM    5  C4  UNL     1      24.179   2.961  50.172  1.00  0.00     0.056 A 
HETATM    6  N1  UNL     1      25.039   3.654  49.426  1.00  0.00    -0.245 NA
HETATM    7  C5  UNL     1      26.333   3.738  49.676  1.00  0.00     0.235 A 
HETATM    8  N2  UNL     1      26.797   3.095  50.730  1.00  0.00    -0.224 NA
HETATM    9  C6  UNL     1      26.034   2.375  51.544  1.00  0.00     0.138 A 
HETATM   10  C13 UNL     1      24.671   2.291  51.273  1.00  0.00     0.021 A 
HETATM   11  C14 UNL     1      23.671   1.578  51.989  1.00  0.00     0.128 C 
HETATM   12  C15 UNL     1      23.053   0.770  52.839  1.00  0.00     0.042 C 
HETATM   13  C16 UNL     1      23.253  -0.234  53.966  1.00  0.00     0.193 C 
HETATM   14  O2  UNL     1      22.480  -1.343  53.640  1.00  0.00    -0.387 OA
HETATM   15  C17 UNL     1      21.197  -1.199  54.196  1.00  0.00     0.187 C 
HETATM   16  C18 UNL     1      20.718   0.167  53.724  1.00  0.00     0.143 C 
HETATM   17  N4  UNL     1      21.578   0.730  52.760  1.00  0.00    -0.403 N 
HETATM   18  C19 UNL     1      20.964   1.332  51.599  1.00  0.00     0.117 C 
HETATM   19  C20 UNL     1      19.677   0.966  51.052  1.00  0.00     0.022 C 
HETATM   20  C21 UNL     1      19.351   1.965  49.959  1.00  0.00     0.038 C 
HETATM   21  C22 UNL     1      20.435   2.239  48.947  1.00  0.00     0.148 C 
ENDROOT
BRANCH   9  22
HETATM   22  N3  UNL     1      26.536   1.702  52.685  1.00  0.00    -0.340 N 
HETATM   23  H6  UNL     1      26.595   2.056  53.659  1.00  0.00     0.167 HD
BRANCH  22  24
HETATM   24  C7  UNL     1      27.077   0.398  52.762  1.00  0.00     0.035 A 
HETATM   25  C8  UNL     1      26.490  -0.795  52.401  1.00  0.00     0.032 A 
HETATM   26  C9  UNL     1      27.021  -2.051  52.508  1.00  0.00     0.046 A 
HETATM   27  C10 UNL     1      28.299  -2.107  53.046  1.00  0.00     0.138 A 
HETATM   28  F1  UNL     1      28.822  -3.359  53.155  1.00  0.00    -0.204 F 
HETATM   29  C11 UNL     1      28.947  -0.960  53.429  1.00  0.00     0.074 A 
HETATM   30 CL1  UNL     1      30.555  -1.248  54.086  1.00  0.00    -0.081 Cl
HETATM   31  C12 UNL     1      28.366   0.283  53.298  1.00  0.00     0.056 A 
ENDBRANCH  22  24
ENDBRANCH   9  22
BRANCH  21  32
HETATM   32  O3  UNL     1      20.796   1.135  48.219  1.00  0.00    -0.391 OA
HETATM   33  H24 UNL     1      20.102   0.756  47.661  1.00  0.00     0.210 HD
ENDBRANCH  21  32
TORSDOF 3
ENDMDL
MODEL 2
REMARK VINA RESULT:      -8.9      2.221      4.683
REMARK  3 active torsions:
REMARK  status: ('A' for Active; 'I' for Inactive)
REMARK    1  A    between atoms: C6_9  and  N3_10 
REMARK    2  A    between atoms: N3_10  and  C7_11 
REMARK    3  A    between atoms: C22_30  and  O3_31 
ROOT
HETATM    1  C1  UNL     1      17.732  -0.657  51.439  1.00  0.00     0.000 C 
HETATM    2  O1  UNL     1      18.683   0.331  51.589  1.00  0.00     0.000 OA
HETATM    3  C2  UNL     1      18.508   1.698  51.680  1.00  0.00    -0.035 A 
HETATM    4  C3  UNL     1      19.629   1.270  52.156  1.00  0.00     0.084 A 
HETATM    5  C4  UNL     1      20.851   0.870  52.683  1.00  0.00     0.056 A 
HETATM    6  N1  UNL     1      20.869   0.238  53.857  1.00  0.00    -0.245 NA
HETATM    7  C5  UNL     1      21.966  -0.221  54.432  1.00  0.00     0.235 A 
HETATM    8  N2  UNL     1      23.110  -0.041  53.800  1.00  0.00    -0.224 NA
HETATM    9  C6  UNL     1      23.212   0.573  52.627  1.00  0.00     0.138 A 
HETATM   10  C13 UNL     1      22.051   1.055  52.028  1.00  0.00     0.021 A 
HETATM   11  C14 UNL     1      21.916   1.746  50.794  1.00  0.00     0.128 C 
HETATM   12  C15 UNL     1      22.180   2.397  49.670  1.00  0.00     0.042 C 
HETATM   13  C16 UNL     1      23.290   2.953  48.789  1.00  0.00     0.193 C 
HETATM   14  O2  UNL     1      22.926   4.261  48.484  1.00  0.00    -0.387 OA
HETATM   15  C17 UNL     1      22.178   4.272  47.293  1.00  0.00     0.187 C 
HETATM   16  C18 UNL     1      21.067   3.257  47.520  1.00  0.00     0.143 C 
HETATM   17  N4  UNL     1      21.018   2.809  48.856  1.00  0.00    -0.403 N 
HETATM   18  C19 UNL     1      19.717   2.735  49.479  1.00  0.00     0.117 C 
HETATM   19  C20 UNL     1      18.572   3.540  49.120  1.00  0.00     0.022 C 
HETATM   20  C21 UNL     1      17.384   3.008  49.898  1.00  0.00     0.038 C 
HETATM   21  C22 UNL     1      17.588   2.789  51.377  1.00  0.00     0.148 C 
ENDROOT
BRANCH   9  22
HETATM   22  N3  UNL     1      24.442   0.745  51.946  1.00  0.00    -0.340 N 
HETATM   23  H6  UNL     1      24.595   1.120  50.990  1.00  0.00     0.167 HD
BRANCH  22  24
HETATM   24  C7  UNL     1      25.745   0.444  52.406  1.00  0.00     0.035 A 
HETATM   25  C8  UNL     1      26.332  -0.792  52.564  1.00  0.00     0.032 A 
HETATM   26  C9  UNL     1      27.586  -1.065  53.036  1.00  0.00     0.046 A 
HETATM   27  C10 UNL     1      28.337   0.047  53.391  1.00  0.00     0.138 A 
HETATM   28  F1  UNL     1      29.583  -0.229  53.865  1.00  0.00    -0.204 F 
HETATM   29  C11 UNL     1      27.818   1.310  53.261  1.00  0.00     0.074 A 
HETATM   30 CL1  UNL     1      28.929   2.580  53.766  1.00  0.00    -0.081 Cl
HETATM   31  C12 UNL     1      26.547   1.530  52.779  1.00  0.00     0.056 A 
ENDBRANCH  22  24
ENDBRANCH   9  22
BRANCH  21  32
HETATM   32  O3  UNL     1      17.883   3.937  52.066  1.00  0.00    -0.391 OA
HETATM   33  H24 UNL     1      18.796   4.013  52.379  1.00  0.00     0.210 HD
ENDBRANCH  21  32
TORSDOF 3
ENDMDL
MODEL 3
REMARK VINA RESULT:      -8.9      2.401      3.366
REMARK  3 active torsions:
REMARK  status: ('A' for Active; 'I' for Inactive)
REMARK    1  A    between atoms: C6_9  and  N3_10 
REMARK    2  A    between atoms: N3_10  and  C7_11 
REMARK    3  A    between atoms: C22_30  and  O3_31 
ROOT
HETATM    1  C1  UNL     1      16.996   4.181  52.168  1.00  0.00     0.000 C 
HETATM    2  O1  UNL     1      18.169   3.562  51.790  1.00  0.00     0.000 OA
HETATM    3  C2  UNL     1      18.351   2.512  50.913  1.00  0.00    -0.035 A 
HETATM    4  C3  UNL     1      19.405   3.231  51.112  1.00  0.00     0.084 A 
HETATM    5  C4  UNL     1      20.570   3.967  51.286  1.00  0.00     0.056 A 
HETATM    6  N1  UNL     1      20.660   5.173  50.726  1.00  0.00    -0.245 NA
HETATM    7  C5  UNL     1      21.701   5.975  50.858  1.00  0.00     0.235 A 
HETATM    8  N2  UNL     1      22.712   5.550  51.592  1.00  0.00    -0.224 NA
HETATM    9  C6  UNL     1      22.733   4.368  52.197  1.00  0.00     0.138 A 
HETATM   10  C13 UNL     1      21.631   3.529  52.052  1.00  0.00     0.021 A 
HETATM   11  C14 UNL     1      21.434   2.229  52.592  1.00  0.00     0.128 C 
HETATM   12  C15 UNL     1      21.628   1.061  53.187  1.00  0.00     0.042 C 
HETATM   13  C16 UNL     1      22.650   0.185  53.898  1.00  0.00     0.193 C 
HETATM   14  O2  UNL     1      22.563  -1.071  53.306  1.00  0.00    -0.387 OA
HETATM   15  C17 UNL     1      21.627  -1.854  54.004  1.00  0.00     0.187 C 
HETATM   16  C18 UNL     1      20.367  -1.001  54.056  1.00  0.00     0.143 C 
HETATM   17  N4  UNL     1      20.467   0.149  53.248  1.00  0.00    -0.403 N 
HETATM   18  C19 UNL     1      19.331   0.472  52.416  1.00  0.00     0.117 C 
HETATM   19  C20 UNL     1      18.369  -0.481  51.911  1.00  0.00     0.022 C 
HETATM   20  C21 UNL     1      17.260   0.309  51.243  1.00  0.00     0.038 C 
HETATM   21  C22 UNL     1      17.684   1.383  50.273  1.00  0.00     0.148 C 
ENDROOT
BRANCH   9  22
HETATM   22  N3  UNL     1      23.813   3.927  53.000  1.00  0.00    -0.340 N 
HETATM   23  H6  UNL     1      24.096   4.273  53.936  1.00  0.00     0.167 HD
BRANCH  22  24
HETATM   24  C7  UNL     1      24.761   2.917  52.710  1.00  0.00     0.035 A 
HETATM   25  C8  UNL     1      25.153   2.440  51.479  1.00  0.00     0.032 A 
HETATM   26  C9  UNL     1      26.053   1.443  51.220  1.00  0.00     0.046 A 
HETATM   27  C10 UNL     1      26.626   0.859  52.342  1.00  0.00     0.138 A 
HETATM   28  F1  UNL     1      27.518  -0.135  52.080  1.00  0.00    -0.204 F 
HETATM   29  C11 UNL     1      26.284   1.284  53.601  1.00  0.00     0.074 A 
HETATM   30 CL1  UNL     1      27.121   0.417  54.885  1.00  0.00    -0.081 Cl
HETATM   31  C12 UNL     1      25.370   2.294  53.807  1.00  0.00     0.056 A 
ENDBRANCH  22  24
ENDBRANCH   9  22
BRANCH  21  32
HETATM   32  O3  UNL     1      18.376   0.903  49.191  1.00  0.00    -0.391 OA
HETATM   33  H24 UNL     1      18.236   1.379  48.360  1.00  0.00     0.210 HD
ENDBRANCH  21  32
TORSDOF 3
ENDMDL
MODEL 4
REMARK VINA RESULT:      -8.7      3.968      5.329
REMARK  3 active torsions:
REMARK  status: ('A' for Active; 'I' for Inactive)
REMARK    1  A    between atoms: C6_9  and  N3_10 
REMARK    2  A    between atoms: N3_10  and  C7_11 
REMARK    3  A    between atoms: C22_30  and  O3_31 
ROOT
HETATM    1  C1  UNL     1      16.437   4.031  52.293  1.00  0.00     0.000 C 
HETATM    2  O1  UNL     1      17.605   3.631  51.678  1.00  0.00     0.000 OA
HETATM    3  C2  UNL     1      17.841   2.506  50.913  1.00  0.00    -0.035 A 
HETATM    4  C3  UNL     1      18.684   3.466  50.725  1.00  0.00     0.084 A 
HETATM    5  C4  UNL     1      19.620   4.463  50.480  1.00  0.00     0.056 A 
HETATM    6  N1  UNL     1      19.251   5.535  49.780  1.00  0.00    -0.245 NA
HETATM    7  C5  UNL     1      20.044   6.559  49.523  1.00  0.00     0.235 A 
HETATM    8  N2  UNL     1      21.277   6.511  49.989  1.00  0.00    -0.224 NA
HETATM    9  C6  UNL     1      21.754   5.495  50.698  1.00  0.00     0.138 A 
HETATM   10  C13 UNL     1      20.911   4.420  50.966  1.00  0.00     0.021 A 
HETATM   11  C14 UNL     1      21.200   3.229  51.686  1.00  0.00     0.128 C 
HETATM   12  C15 UNL     1      21.833   2.263  52.336  1.00  0.00     0.042 C 
HETATM   13  C16 UNL     1      23.189   1.781  52.831  1.00  0.00     0.193 C 
HETATM   14  O2  UNL     1      23.296   0.451  52.437  1.00  0.00    -0.387 OA
HETATM   15  C17 UNL     1      22.797  -0.380  53.455  1.00  0.00     0.187 C 
HETATM   16  C18 UNL     1      21.408   0.165  53.757  1.00  0.00     0.143 C 
HETATM   17  N4  UNL     1      21.004   1.141  52.825  1.00  0.00    -0.403 N 
HETATM   18  C19 UNL     1      19.657   1.045  52.310  1.00  0.00     0.117 C 
HETATM   19  C20 UNL     1      18.887  -0.174  52.208  1.00  0.00     0.022 C 
HETATM   20  C21 UNL     1      17.482   0.213  51.789  1.00  0.00     0.038 C 
HETATM   21  C22 UNL     1      17.361   1.159  50.621  1.00  0.00     0.148 C 
ENDROOT
BRANCH   9  22
HETATM   22  N3  UNL     1      23.073   5.460  51.213  1.00  0.00    -0.340 N 
HETATM   23  H6  UNL     1      23.389   5.691  52.174  1.00  0.00     0.167 HD
BRANCH  22  24
HETATM   24  C7  UNL     1      24.265   5.109  50.537  1.00  0.00     0.035 A 
HETATM   25  C8  UNL     1      24.966   3.925  50.599  1.00  0.00     0.032 A 
HETATM   26  C9  UNL     1      26.133   3.614  49.957  1.00  0.00     0.046 A 
HETATM   27  C10 UNL     1      26.654   4.621  49.157  1.00  0.00     0.138 A 
HETATM   28  F1  UNL     1      27.817   4.309  48.523  1.00  0.00    -0.204 F 
HETATM   29  C11 UNL     1      26.009   5.828  49.046  1.00  0.00     0.074 A 
HETATM   30 CL1  UNL     1      26.831   6.968  47.984  1.00  0.00    -0.081 Cl
HETATM   31  C12 UNL     1      24.834   6.090  49.715  1.00  0.00     0.056 A 
ENDBRANCH  22  24
ENDBRANCH   9  22
BRANCH  21  32
HETATM   32  O3  UNL     1      17.873   0.657  49.453  1.00  0.00    -0.391 OA
HETATM   33  H24 UNL     1      17.715   1.192  48.662  1.00  0.00     0.210 HD
ENDBRANCH  21  32
TORSDOF 3
ENDMDL
MODEL 5
REMARK VINA RESULT:      -8.5      4.207      7.166
REMARK  3 active torsions:
REMARK  status: ('A' for Active; 'I' for Inactive)
REMARK    1  A    between atoms: C6_9  and  N3_10 
REMARK    2  A    between atoms: N3_10  and  C7_11 
REMARK    3  A    between atoms: C22_30  and  O3_31 
ROOT
HETATM    1  C1  UNL     1      26.417   2.482  49.596  1.00  0.00     0.000 C 
HETATM    2  O1  UNL     1      25.632   2.661  50.716  1.00  0.00     0.000 OA
HETATM    3  C2  UNL     1      25.976   2.529  52.046  1.00  0.00    -0.035 A 
HETATM    4  C3  UNL     1      24.928   3.253  51.835  1.00  0.00     0.084 A 
HETATM    5  C4  UNL     1      23.795   4.040  51.670  1.00  0.00     0.056 A 
HETATM    6  N1  UNL     1      23.933   5.274  51.186  1.00  0.00    -0.245 NA
HETATM    7  C5  UNL     1      22.925   6.094  50.951  1.00  0.00     0.235 A 
HETATM    8  N2  UNL     1      21.708   5.658  51.214  1.00  0.00    -0.224 NA
HETATM    9  C6  UNL     1      21.450   4.449  51.697  1.00  0.00     0.138 A 
HETATM   10  C13 UNL     1      22.519   3.591  51.942  1.00  0.00     0.021 A 
HETATM   11  C14 UNL     1      22.489   2.269  52.462  1.00  0.00     0.128 C 
HETATM   12  C15 UNL     1      22.086   1.131  53.010  1.00  0.00     0.042 C 
HETATM   13  C16 UNL     1      20.896   0.394  53.608  1.00  0.00     0.193 C 
HETATM   14  O2  UNL     1      21.340  -0.150  54.809  1.00  0.00    -0.387 OA
HETATM   15  C17 UNL     1      21.838  -1.445  54.581  1.00  0.00     0.187 C 
HETATM   16  C18 UNL     1      22.849  -1.281  53.456  1.00  0.00     0.143 C 
HETATM   17  N4  UNL     1      23.106   0.072  53.162  1.00  0.00    -0.403 N 
HETATM   18  C19 UNL     1      24.487   0.458  52.981  1.00  0.00     0.117 C 
HETATM   19  C20 UNL     1      25.624  -0.209  53.573  1.00  0.00     0.022 C 
HETATM   20  C21 UNL     1      26.873   0.411  52.976  1.00  0.00     0.038 C 
HETATM   21  C22 UNL     1      26.937   1.919  52.958  1.00  0.00     0.148 C 
ENDROOT
BRANCH   9  22
HETATM   22  N3  UNL     1      20.139   3.981  51.958  1.00  0.00    -0.340 N 
HETATM   23  H6  UNL     1      19.653   3.922  52.873  1.00  0.00     0.167 HD
BRANCH  22  24
HETATM   24  C7  UNL     1      19.189   3.483  51.035  1.00  0.00     0.035 A 
HETATM   25  C8  UNL     1      18.506   4.170  50.056  1.00  0.00     0.032 A 
HETATM   26  C9  UNL     1      17.571   3.675  49.189  1.00  0.00     0.046 A 
HETATM   27  C10 UNL     1      17.293   2.322  49.330  1.00  0.00     0.138 A 
HETATM   28  F1  UNL     1      16.359   1.834  48.469  1.00  0.00    -0.204 F 
HETATM   29  C11 UNL     1      17.936   1.573  50.284  1.00  0.00     0.074 A 
HETATM   30 CL1  UNL     1      17.442  -0.117  50.299  1.00  0.00    -0.081 Cl
HETATM   31  C12 UNL     1      18.871   2.122  51.133  1.00  0.00     0.056 A 
ENDBRANCH  22  24
ENDBRANCH   9  22
BRANCH  21  32
HETATM   32  O3  UNL     1      26.914   2.483  54.208  1.00  0.00    -0.391 OA
HETATM   33  H24 UNL     1      27.093   3.433  54.240  1.00  0.00     0.210 HD
ENDBRANCH  21  32
TORSDOF 3
ENDMDL
MODEL 6
REMARK VINA RESULT:      -8.3      6.020      9.561
REMARK  3 active torsions:
REMARK  status: ('A' for Active; 'I' for Inactive)
REMARK    1  A    between atoms: C6_9  and  N3_10 
REMARK    2  A    between atoms: N3_10  and  C7_11 
REMARK    3  A    between atoms: C22_30  and  O3_31 
ROOT
HETATM    1  C1  UNL     1      27.600  11.583  46.744  1.00  0.00     0.000 C 
HETATM    2  O1  UNL     1      27.989  10.594  47.623  1.00  0.00     0.000 OA
HETATM    3  C2  UNL     1      29.037  10.594  48.521  1.00  0.00    -0.035 A 
HETATM    4  C3  UNL     1      28.104   9.743  48.790  1.00  0.00     0.084 A 
HETATM    5  C4  UNL     1      27.133   8.809  49.129  1.00  0.00     0.056 A 
HETATM    6  N1  UNL     1      25.976   9.238  49.634  1.00  0.00    -0.245 NA
HETATM    7  C5  UNL     1      24.970   8.445  49.954  1.00  0.00     0.235 A 
HETATM    8  N2  UNL     1      25.125   7.149  49.759  1.00  0.00    -0.224 NA
HETATM    9  C6  UNL     1      26.232   6.610  49.262  1.00  0.00     0.138 A 
HETATM   10  C13 UNL     1      27.288   7.453  48.928  1.00  0.00     0.021 A 
HETATM   11  C14 UNL     1      28.560   7.107  48.397  1.00  0.00     0.128 C 
HETATM   12  C15 UNL     1      29.619   6.424  47.985  1.00  0.00     0.042 C 
HETATM   13  C16 UNL     1      30.214   5.031  47.829  1.00  0.00     0.193 C 
HETATM   14  O2  UNL     1      31.499   5.097  48.359  1.00  0.00    -0.387 OA
HETATM   15  C17 UNL     1      32.408   5.437  47.342  1.00  0.00     0.187 C 
HETATM   16  C18 UNL     1      31.832   6.696  46.710  1.00  0.00     0.143 C 
HETATM   17  N4  UNL     1      30.745   7.212  47.442  1.00  0.00    -0.403 N 
HETATM   18  C19 UNL     1      30.722   8.638  47.673  1.00  0.00     0.117 C 
HETATM   19  C20 UNL     1      31.885   9.494  47.727  1.00  0.00     0.022 C 
HETATM   20  C21 UNL     1      31.390  10.925  47.807  1.00  0.00     0.038 C 
HETATM   21  C22 UNL     1      30.321  11.214  48.832  1.00  0.00     0.148 C 
ENDROOT
BRANCH   9  22
HETATM   22  N3  UNL     1      26.384   5.219  49.038  1.00  0.00    -0.340 N 
HETATM   23  H6  UNL     1      27.002   4.748  48.350  1.00  0.00     0.167 HD
BRANCH  22  24
HETATM   24  C7  UNL     1      25.727   4.152  49.694  1.00  0.00     0.035 A 
HETATM   25  C8  UNL     1      24.381   3.862  49.719  1.00  0.00     0.032 A 
HETATM   26  C9  UNL     1      23.761   2.839  50.381  1.00  0.00     0.046 A 
HETATM   27  C10 UNL     1      24.605   2.008  51.106  1.00  0.00     0.138 A 
HETATM   28  F1  UNL     1      23.984   0.993  51.767  1.00  0.00    -0.204 F 
HETATM   29  C11 UNL     1      25.958   2.235  51.127  1.00  0.00     0.074 A 
HETATM   30 CL1  UNL     1      26.850   1.071  52.102  1.00  0.00    -0.081 Cl
HETATM   31  C12 UNL     1      26.532   3.282  50.440  1.00  0.00     0.056 A 
ENDBRANCH  22  24
ENDBRANCH   9  22
BRANCH  21  32
HETATM   32  O3  UNL     1      30.722  10.983  50.122  1.00  0.00    -0.391 OA
HETATM   33  H24 UNL     1      31.534  10.466  50.221  1.00  0.00     0.210 HD
ENDBRANCH  21  32
TORSDOF 3
ENDMDL
MODEL 7
REMARK VINA RESULT:      -8.2      3.951      6.138
REMARK  3 active torsions:
REMARK  status: ('A' for Active; 'I' for Inactive)
REMARK    1  A    between atoms: C6_9  and  N3_10 
REMARK    2  A    between atoms: N3_10  and  C7_11 
REMARK    3  A    between atoms: C22_30  and  O3_31 
ROOT
HETATM    1  C1  UNL     1      17.115   3.956  51.908  1.00  0.00     0.000 C 
HETATM    2  O1  UNL     1      18.347   3.933  51.288  1.00  0.00     0.000 OA
HETATM    3  C2  UNL     1      18.851   3.011  50.393  1.00  0.00    -0.035 A 
HETATM    4  C3  UNL     1      19.438   4.161  50.362  1.00  0.00     0.084 A 
HETATM    5  C4  UNL     1      20.106   5.376  50.283  1.00  0.00     0.056 A 
HETATM    6  N1  UNL     1      19.491   6.414  49.716  1.00  0.00    -0.245 NA
HETATM    7  C5  UNL     1      20.014   7.623  49.623  1.00  0.00     0.235 A 
HETATM    8  N2  UNL     1      21.221   7.808  50.124  1.00  0.00    -0.224 NA
HETATM    9  C6  UNL     1      21.926   6.849  50.712  1.00  0.00     0.138 A 
HETATM   10  C13 UNL     1      21.368   5.577  50.805  1.00  0.00     0.021 A 
HETATM   11  C14 UNL     1      21.933   4.404  51.375  1.00  0.00     0.128 C 
HETATM   12  C15 UNL     1      22.777   3.538  51.916  1.00  0.00     0.042 C 
HETATM   13  C16 UNL     1      24.209   3.332  52.393  1.00  0.00     0.193 C 
HETATM   14  O2  UNL     1      24.635   2.132  51.833  1.00  0.00    -0.387 OA
HETATM   15  C17 UNL     1      24.347   1.076  52.715  1.00  0.00     0.187 C 
HETATM   16  C18 UNL     1      22.867   1.227  53.034  1.00  0.00     0.143 C 
HETATM   17  N4  UNL     1      22.242   2.196  52.223  1.00  0.00    -0.403 N 
HETATM   18  C19 UNL     1      20.960   1.851  51.652  1.00  0.00     0.117 C 
HETATM   19  C20 UNL     1      20.509   0.509  51.364  1.00  0.00     0.022 C 
HETATM   20  C21 UNL     1      19.053   0.602  50.949  1.00  0.00     0.038 C 
HETATM   21  C22 UNL     1      18.711   1.641  49.910  1.00  0.00     0.148 C 
ENDROOT
BRANCH   9  22
HETATM   22  N3  UNL     1      23.213   7.061  51.265  1.00  0.00    -0.340 N 
HETATM   23  H6  UNL     1      23.480   7.086  52.267  1.00  0.00     0.167 HD
BRANCH  22  24
HETATM   24  C7  UNL     1      24.430   7.293  50.582  1.00  0.00     0.035 A 
HETATM   25  C8  UNL     1      25.033   8.498  50.294  1.00  0.00     0.032 A 
HETATM   26  C9  UNL     1      26.199   8.703  49.609  1.00  0.00     0.046 A 
HETATM   27  C10 UNL     1      26.830   7.551  49.161  1.00  0.00     0.138 A 
HETATM   28  F1  UNL     1      27.988   7.759  48.476  1.00  0.00    -0.204 F 
HETATM   29  C11 UNL     1      26.289   6.315  49.412  1.00  0.00     0.074 A 
HETATM   30 CL1  UNL     1      27.243   4.985  48.760  1.00  0.00    -0.081 Cl
HETATM   31  C12 UNL     1      25.110   6.164  50.108  1.00  0.00     0.056 A 
ENDBRANCH  22  24
ENDBRANCH   9  22
BRANCH  21  32
HETATM   32  O3  UNL     1      19.334   1.438  48.706  1.00  0.00    -0.391 OA
HETATM   33  H24 UNL     1      19.005   0.691  48.186  1.00  0.00     0.210 HD
ENDBRANCH  21  32
TORSDOF 3
ENDMDL
MODEL 8
REMARK VINA RESULT:      -8.1      1.824      4.456
REMARK  3 active torsions:
REMARK  status: ('A' for Active; 'I' for Inactive)
REMARK    1  A    between atoms: C6_9  and  N3_10 
REMARK    2  A    between atoms: N3_10  and  C7_11 
REMARK    3  A    between atoms: C22_30  and  O3_31 
ROOT
HETATM    1  C1  UNL     1      19.054  -0.009  50.165  1.00  0.00     0.000 C 
HETATM    2  O1  UNL     1      19.938   0.885  50.732  1.00  0.00     0.000 OA
HETATM    3  C2  UNL     1      19.704   2.169  51.181  1.00  0.00    -0.035 A 
HETATM    4  C3  UNL     1      20.757   1.613  51.679  1.00  0.00     0.084 A 
HETATM    5  C4  UNL     1      21.900   1.067  52.249  1.00  0.00     0.056 A 
HETATM    6  N1  UNL     1      21.768   0.125  53.183  1.00  0.00    -0.245 NA
HETATM    7  C5  UNL     1      22.783  -0.491  53.761  1.00  0.00     0.235 A 
HETATM    8  N2  UNL     1      24.000  -0.147  53.388  1.00  0.00    -0.224 NA
HETATM    9  C6  UNL     1      24.253   0.776  52.468  1.00  0.00     0.138 A 
HETATM   10  C13 UNL     1      23.177   1.420  51.863  1.00  0.00     0.021 A 
HETATM   11  C14 UNL     1      23.202   2.438  50.871  1.00  0.00     0.128 C 
HETATM   12  C15 UNL     1      23.606   3.381  50.033  1.00  0.00     0.042 C 
HETATM   13  C16 UNL     1      24.814   4.156  49.525  1.00  0.00     0.193 C 
HETATM   14  O2  UNL     1      24.454   5.500  49.554  1.00  0.00    -0.387 OA
HETATM   15  C17 UNL     1      23.890   5.859  48.317  1.00  0.00     0.187 C 
HETATM   16  C18 UNL     1      22.793   4.832  48.075  1.00  0.00     0.143 C 
HETATM   17  N4  UNL     1      22.563   4.021  49.203  1.00  0.00    -0.403 N 
HETATM   18  C19 UNL     1      21.188   3.783  49.576  1.00  0.00     0.117 C 
HETATM   19  C20 UNL     1      20.081   4.667  49.292  1.00  0.00     0.022 C 
HETATM   20  C21 UNL     1      18.810   3.946  49.698  1.00  0.00     0.038 C 
HETATM   21  C22 UNL     1      18.801   3.310  51.066  1.00  0.00     0.148 C 
ENDROOT
BRANCH   9  22
HETATM   22  N3  UNL     1      25.563   1.125  52.058  1.00  0.00    -0.340 N 
HETATM   23  H6  UNL     1      25.842   1.765  51.291  1.00  0.00     0.167 HD
BRANCH  22  24
HETATM   24  C7  UNL     1      26.794   0.680  52.595  1.00  0.00     0.035 A 
HETATM   25  C8  UNL     1      27.812   1.433  53.138  1.00  0.00     0.032 A 
HETATM   26  C9  UNL     1      29.007   0.985  53.630  1.00  0.00     0.046 A 
HETATM   27  C10 UNL     1      29.196  -0.388  53.562  1.00  0.00     0.138 A 
HETATM   28  F1  UNL     1      30.389  -0.829  54.048  1.00  0.00    -0.204 F 
HETATM   29  C11 UNL     1      28.225  -1.202  53.034  1.00  0.00     0.074 A 
HETATM   30 CL1  UNL     1      28.659  -2.908  53.041  1.00  0.00    -0.081 Cl
HETATM   31  C12 UNL     1      27.036  -0.699  52.553  1.00  0.00     0.056 A 
ENDBRANCH  22  24
ENDBRANCH   9  22
BRANCH  21  32
HETATM   32  O3  UNL     1      18.953   4.210  52.089  1.00  0.00    -0.391 OA
HETATM   33  H24 UNL     1      19.291   3.845  52.920  1.00  0.00     0.210 HD
ENDBRANCH  21  32
TORSDOF 3
ENDMDL
MODEL 9
REMARK VINA RESULT:      -8.1      4.767      7.766
REMARK  3 active torsions:
REMARK  status: ('A' for Active; 'I' for Inactive)
REMARK    1  A    between atoms: C6_9  and  N3_10 
REMARK    2  A    between atoms: N3_10  and  C7_11 
REMARK    3  A    between atoms: C22_30  and  O3_31 
ROOT
HETATM    1  C1  UNL     1      22.627   2.383  48.691  1.00  0.00     0.000 C 
HETATM    2  O1  UNL     1      22.150   2.268  49.980  1.00  0.00     0.000 OA
HETATM    3  C2  UNL     1      22.536   2.957  51.112  1.00  0.00    -0.035 A 
HETATM    4  C3  UNL     1      21.363   2.422  51.186  1.00  0.00     0.084 A 
HETATM    5  C4  UNL     1      20.095   1.870  51.324  1.00  0.00     0.056 A 
HETATM    6  N1  UNL     1      19.078   2.422  50.664  1.00  0.00    -0.245 NA
HETATM    7  C5  UNL     1      17.842   1.958  50.689  1.00  0.00     0.235 A 
HETATM    8  N2  UNL     1      17.606   0.882  51.415  1.00  0.00    -0.224 NA
HETATM    9  C6  UNL     1      18.542   0.249  52.112  1.00  0.00     0.138 A 
HETATM   10  C13 UNL     1      19.842   0.744  52.081  1.00  0.00     0.021 A 
HETATM   11  C14 UNL     1      20.994   0.247  52.748  1.00  0.00     0.128 C 
HETATM   12  C15 UNL     1      21.798  -0.440  53.547  1.00  0.00     0.042 C 
HETATM   13  C16 UNL     1      21.859  -1.524  54.614  1.00  0.00     0.193 C 
HETATM   14  O2  UNL     1      22.638  -1.010  55.646  1.00  0.00    -0.387 OA
HETATM   15  C17 UNL     1      23.984  -1.354  55.431  1.00  0.00     0.187 C 
HETATM   16  C18 UNL     1      24.284  -0.891  54.013  1.00  0.00     0.143 C 
HETATM   17  N4  UNL     1      23.238  -0.117  53.472  1.00  0.00    -0.403 N 
HETATM   18  C19 UNL     1      23.606   1.092  52.772  1.00  0.00     0.117 C 
HETATM   19  C20 UNL     1      24.804   1.864  53.013  1.00  0.00     0.022 C 
HETATM   20  C21 UNL     1      24.874   2.936  51.942  1.00  0.00     0.038 C 
HETATM   21  C22 UNL     1      23.618   3.737  51.704  1.00  0.00     0.148 C 
ENDROOT
BRANCH   9  22
HETATM   22  N3  UNL     1      18.285  -0.918  52.873  1.00  0.00    -0.340 N 
HETATM   23  H6  UNL     1      18.860  -1.321  53.638  1.00  0.00     0.167 HD
BRANCH  22  24
HETATM   24  C7  UNL     1      17.191  -1.808  52.766  1.00  0.00     0.035 A 
HETATM   25  C8  UNL     1      15.975  -1.599  52.153  1.00  0.00     0.032 A 
HETATM   26  C9  UNL     1      14.918  -2.463  52.082  1.00  0.00     0.046 A 
HETATM   27  C10 UNL     1      15.114  -3.687  52.707  1.00  0.00     0.138 A 
HETATM   28  F1  UNL     1      14.058  -4.544  52.638  1.00  0.00    -0.204 F 
HETATM   29  C11 UNL     1      16.300  -3.967  53.337  1.00  0.00     0.074 A 
HETATM   30 CL1  UNL     1      16.347  -5.570  54.066  1.00  0.00    -0.081 Cl
HETATM   31  C12 UNL     1      17.335  -3.059  53.379  1.00  0.00     0.056 A 
ENDBRANCH  22  24
ENDBRANCH   9  22
BRANCH  21  32
HETATM   32  O3  UNL     1      23.213   4.459  52.797  1.00  0.00    -0.391 OA
HETATM   33  H24 UNL     1      23.617   5.333  52.893  1.00  0.00     0.210 HD
ENDBRANCH  21  32
TORSDOF 3
ENDMDL
