MODEL 1
REMARK VINA RESULT:      -7.8      0.000      0.000
REMARK  4 active torsions:
REMARK  status: ('A' for Active; 'I' for Inactive)
REMARK    1  A    between atoms: C2_2  and  C3_3 
REMARK    2  A    between atoms: C8_9  and  C9_10 
REMARK    3  A    between atoms: C9_10  and  C10_11 
REMARK    4  A    between atoms: C13_15  and  N2_16 
REMARK       I    between atoms: N2_16  and  C14_17 
REMARK       I    between atoms: C14_17  and  N3_18 
ROOT
HETATM    1  C10 UNL     1      25.177   2.387  52.391  1.00  0.00     0.033 C 
HETATM    2  N1  UNL     1      25.494   2.439  53.634  1.00  0.00    -0.290 NA
HETATM    3  C11 UNL     1      26.411   1.832  54.525  1.00  0.00     0.178 C 
HETATM    4  C12 UNL     1      26.751   0.431  54.220  1.00  0.00     0.024 C 
HETATM    5  C13 UNL     1      26.836  -0.229  53.074  1.00  0.00     0.034 C 
HETATM    6  C15 UNL     1      26.584   0.357  51.744  1.00  0.00     0.031 C 
HETATM    7  C16 UNL     1      25.876   1.468  51.490  1.00  0.00     0.029 C 
ENDROOT
BRANCH   1   8
HETATM    8  C9  UNL     1      24.112   3.200  51.739  1.00  0.00     0.098 C 
BRANCH   8   9
HETATM    9  C8  UNL     1      23.175   2.434  50.921  1.00  0.00    -0.043 A 
HETATM   10  C3  UNL     1      22.248   1.520  51.326  1.00  0.00    -0.013 A 
HETATM   11  C4  UNL     1      21.422   0.869  50.442  1.00  0.00     0.123 A 
HETATM   12  F1  UNL     1      20.499  -0.044  50.884  1.00  0.00    -0.206 F 
HETATM   13  C5  UNL     1      21.460   1.081  49.094  1.00  0.00     0.043 A 
HETATM   14  C6  UNL     1      22.377   1.994  48.616  1.00  0.00     0.004 A 
HETATM   15  C7  UNL     1      23.196   2.634  49.536  1.00  0.00     0.008 A 
BRANCH  10  16
HETATM   16  C2  UNL     1      22.130   1.219  52.764  1.00  0.00     0.038 C 
HETATM   17  C1  UNL     1      22.831  -0.107  53.006  1.00  0.00     0.010 C 
ENDBRANCH  10  16
ENDBRANCH   8   9
ENDBRANCH   1   8
BRANCH   5  18
HETATM   18  N2  UNL     1      27.198  -1.618  53.100  1.00  0.00    -0.309 N 
HETATM   19  C14 UNL     1      28.575  -2.004  53.148  1.00  0.00     0.318 C 
HETATM   20  N3  UNL     1      28.743  -3.430  53.169  1.00  0.00    -0.352 N 
HETATM   21  O1  UNL     1      29.515  -1.169  53.170  1.00  0.00    -0.247 OA
HETATM   22  H15 UNL     1      29.147  -4.255  53.650  1.00  0.00     0.160 HD
HETATM   23  H16 UNL     1      28.303  -4.014  52.403  1.00  0.00     0.160 HD
HETATM   24  H14 UNL     1      26.387  -2.276  53.079  1.00  0.00     0.170 HD
ENDBRANCH   5  18
TORSDOF 4
ENDMDL
MODEL 2
REMARK VINA RESULT:      -7.8      2.799      3.706
REMARK  4 active torsions:
REMARK  status: ('A' for Active; 'I' for Inactive)
REMARK    1  A    between atoms: C2_2  and  C3_3 
REMARK    2  A    between atoms: C8_9  and  C9_10 
REMARK    3  A    between atoms: C9_10  and  C10_11 
REMARK    4  A    between atoms: C13_15  and  N2_16 
REMARK       I    between atoms: N2_16  and  C14_17 
REMARK       I    between atoms: C14_17  and  N3_18 
ROOT
HETATM    1  C10 UNL     1      24.454   1.655  51.529  1.00  0.00     0.033 C 
HETATM    2  N1  UNL     1      23.697   0.991  52.327  1.00  0.00    -0.290 NA
HETATM    3  C11 UNL     1      23.813   0.210  53.500  1.00  0.00     0.178 C 
HETATM    4  C12 UNL     1      25.068  -0.551  53.628  1.00  0.00     0.024 C 
HETATM    5  C13 UNL     1      26.302  -0.300  53.211  1.00  0.00     0.034 C 
HETATM    6  C15 UNL     1      26.709   0.905  52.465  1.00  0.00     0.031 C 
HETATM    7  C16 UNL     1      25.899   1.711  51.762  1.00  0.00     0.029 C 
ENDROOT
BRANCH   1   8
HETATM    8  C9  UNL     1      23.993   2.403  50.326  1.00  0.00     0.098 C 
BRANCH   8   9
HETATM    9  C8  UNL     1      24.577   3.732  50.173  1.00  0.00    -0.043 A 
HETATM   10  C3  UNL     1      24.174   4.905  50.740  1.00  0.00    -0.013 A 
HETATM   11  C4  UNL     1      24.822   6.094  50.509  1.00  0.00     0.123 A 
HETATM   12  F1  UNL     1      24.390   7.256  51.096  1.00  0.00    -0.206 F 
HETATM   13  C5  UNL     1      25.916   6.201  49.699  1.00  0.00     0.043 A 
HETATM   14  C6  UNL     1      26.377   5.051  49.092  1.00  0.00     0.004 A 
HETATM   15  C7  UNL     1      25.699   3.867  49.346  1.00  0.00     0.008 A 
BRANCH  10  16
HETATM   16  C2  UNL     1      22.999   4.896  51.630  1.00  0.00     0.038 C 
HETATM   17  C1  UNL     1      23.513   4.772  53.054  1.00  0.00     0.010 C 
ENDBRANCH  10  16
ENDBRANCH   8   9
ENDBRANCH   1   8
BRANCH   5  18
HETATM   18  N2  UNL     1      27.336  -1.254  53.494  1.00  0.00    -0.309 N 
HETATM   19  C14 UNL     1      27.461  -2.440  52.703  1.00  0.00     0.318 C 
HETATM   20  N3  UNL     1      28.549  -3.272  53.132  1.00  0.00    -0.352 N 
HETATM   21  O1  UNL     1      26.691  -2.701  51.744  1.00  0.00    -0.247 OA
HETATM   22  H15 UNL     1      29.424  -3.768  52.877  1.00  0.00     0.160 HD
HETATM   23  H16 UNL     1      28.590  -3.590  54.141  1.00  0.00     0.160 HD
HETATM   24  H14 UNL     1      27.950  -0.999  54.299  1.00  0.00     0.170 HD
ENDBRANCH   5  18
TORSDOF 4
ENDMDL
MODEL 3
REMARK VINA RESULT:      -7.6      2.136      2.917
REMARK  4 active torsions:
REMARK  status: ('A' for Active; 'I' for Inactive)
REMARK    1  A    between atoms: C2_2  and  C3_3 
REMARK    2  A    between atoms: C8_9  and  C9_10 
REMARK    3  A    between atoms: C9_10  and  C10_11 
REMARK    4  A    between atoms: C13_15  and  N2_16 
REMARK       I    between atoms: N2_16  and  C14_17 
REMARK       I    between atoms: C14_17  and  N3_18 
ROOT
HETATM    1  C10 UNL     1      23.574   1.704  52.956  1.00  0.00     0.033 C 
HETATM    2  N1  UNL     1      23.504   0.466  53.293  1.00  0.00    -0.290 NA
HETATM    3  C11 UNL     1      24.331  -0.531  53.862  1.00  0.00     0.178 C 
HETATM    4  C12 UNL     1      25.762  -0.425  53.529  1.00  0.00     0.024 C 
HETATM    5  C13 UNL     1      26.538   0.620  53.280  1.00  0.00     0.034 C 
HETATM    6  C15 UNL     1      26.086   2.024  53.286  1.00  0.00     0.031 C 
HETATM    7  C16 UNL     1      24.821   2.448  53.145  1.00  0.00     0.029 C 
ENDROOT
BRANCH   1   8
HETATM    8  C9  UNL     1      22.466   2.497  52.353  1.00  0.00     0.098 C 
BRANCH   8   9
HETATM    9  C8  UNL     1      22.289   2.304  50.917  1.00  0.00    -0.043 A 
HETATM   10  C3  UNL     1      22.699   3.110  49.897  1.00  0.00    -0.013 A 
HETATM   11  C4  UNL     1      22.466   2.804  48.578  1.00  0.00     0.123 A 
HETATM   12  F1  UNL     1      22.893   3.638  47.576  1.00  0.00    -0.206 F 
HETATM   13  C5  UNL     1      21.807   1.675  48.181  1.00  0.00     0.043 A 
HETATM   14  C6  UNL     1      21.364   0.815  49.164  1.00  0.00     0.004 A 
HETATM   15  C7  UNL     1      21.616   1.154  50.486  1.00  0.00     0.008 A 
BRANCH  10  16
HETATM   16  C2  UNL     1      23.417   4.356  50.222  1.00  0.00     0.038 C 
HETATM   17  C1  UNL     1      24.891   4.111  49.947  1.00  0.00     0.010 C 
ENDBRANCH  10  16
ENDBRANCH   8   9
ENDBRANCH   1   8
BRANCH   5  18
HETATM   18  N2  UNL     1      27.924   0.398  52.980  1.00  0.00    -0.309 N 
HETATM   19  C14 UNL     1      28.917   0.547  54.001  1.00  0.00     0.318 C 
HETATM   20  N3  UNL     1      30.242   0.285  53.518  1.00  0.00    -0.352 N 
HETATM   21  O1  UNL     1      28.633   0.871  55.182  1.00  0.00    -0.247 OA
HETATM   22  H15 UNL     1      31.120  -0.258  53.624  1.00  0.00     0.160 HD
HETATM   23  H16 UNL     1      30.603   0.823  52.680  1.00  0.00     0.160 HD
HETATM   24  H14 UNL     1      28.115   0.132  51.988  1.00  0.00     0.170 HD
ENDBRANCH   5  18
TORSDOF 4
ENDMDL
MODEL 4
REMARK VINA RESULT:      -7.6      4.139      6.065
REMARK  4 active torsions:
REMARK  status: ('A' for Active; 'I' for Inactive)
REMARK    1  A    between atoms: C2_2  and  C3_3 
REMARK    2  A    between atoms: C8_9  and  C9_10 
REMARK    3  A    between atoms: C9_10  and  C10_11 
REMARK    4  A    between atoms: C13_15  and  N2_16 
REMARK       I    between atoms: N2_16  and  C14_17 
REMARK       I    between atoms: C14_17  and  N3_18 
ROOT
HETATM    1  C10 UNL     1      22.515   2.384  51.053  1.00  0.00     0.033 C 
HETATM    2  N1  UNL     1      22.150   3.228  51.951  1.00  0.00    -0.290 NA
HETATM    3  C11 UNL     1      22.297   4.605  52.239  1.00  0.00     0.178 C 
HETATM    4  C12 UNL     1      23.572   5.205  51.809  1.00  0.00     0.024 C 
HETATM    5  C13 UNL     1      24.376   4.939  50.789  1.00  0.00     0.034 C 
HETATM    6  C15 UNL     1      24.137   3.890  49.780  1.00  0.00     0.031 C 
HETATM    7  C16 UNL     1      23.342   2.820  49.925  1.00  0.00     0.029 C 
ENDROOT
BRANCH   1   8
HETATM    8  C9  UNL     1      22.174   0.933  51.045  1.00  0.00     0.098 C 
BRANCH   8   9
HETATM    9  C8  UNL     1      22.264   0.279  52.347  1.00  0.00    -0.043 A 
HETATM   10  C3  UNL     1      23.379  -0.007  53.078  1.00  0.00    -0.013 A 
HETATM   11  C4  UNL     1      23.318  -0.631  54.300  1.00  0.00     0.123 A 
HETATM   12  F1  UNL     1      24.460  -0.902  55.008  1.00  0.00    -0.206 F 
HETATM   13  C5  UNL     1      22.144  -1.014  54.882  1.00  0.00     0.043 A 
HETATM   14  C6  UNL     1      20.975  -0.756  54.196  1.00  0.00     0.004 A 
HETATM   15  C7  UNL     1      21.073  -0.125  52.964  1.00  0.00     0.008 A 
BRANCH  10  16
HETATM   16  C2  UNL     1      24.698   0.365  52.534  1.00  0.00     0.038 C 
HETATM   17  C1  UNL     1      25.147   1.622  53.260  1.00  0.00     0.010 C 
ENDBRANCH  10  16
ENDBRANCH   8   9
ENDBRANCH   1   8
BRANCH   5  18
HETATM   18  N2  UNL     1      25.573   5.715  50.631  1.00  0.00    -0.309 N 
HETATM   19  C14 UNL     1      25.522   7.004  50.012  1.00  0.00     0.318 C 
HETATM   20  N3  UNL     1      26.813   7.629  49.942  1.00  0.00    -0.352 N 
HETATM   21  O1  UNL     1      24.454   7.511  49.586  1.00  0.00    -0.247 OA
HETATM   22  H15 UNL     1      27.396   8.457  50.166  1.00  0.00     0.160 HD
HETATM   23  H16 UNL     1      27.612   7.114  49.476  1.00  0.00     0.160 HD
HETATM   24  H14 UNL     1      26.437   5.256  50.996  1.00  0.00     0.170 HD
ENDBRANCH   5  18
TORSDOF 4
ENDMDL
MODEL 5
REMARK VINA RESULT:      -7.5      2.112      2.718
REMARK  4 active torsions:
REMARK  status: ('A' for Active; 'I' for Inactive)
REMARK    1  A    between atoms: C2_2  and  C3_3 
REMARK    2  A    between atoms: C8_9  and  C9_10 
REMARK    3  A    between atoms: C9_10  and  C10_11 
REMARK    4  A    between atoms: C13_15  and  N2_16 
REMARK       I    between atoms: N2_16  and  C14_17 
REMARK       I    between atoms: C14_17  and  N3_18 
ROOT
HETATM    1  C10 UNL     1      23.724   1.798  52.431  1.00  0.00     0.033 C 
HETATM    2  N1  UNL     1      24.459   2.565  51.708  1.00  0.00    -0.290 NA
HETATM    3  C11 UNL     1      25.685   2.509  51.004  1.00  0.00     0.178 C 
HETATM    4  C12 UNL     1      26.712   1.635  51.598  1.00  0.00     0.024 C 
HETATM    5  C13 UNL     1      26.622   0.514  52.301  1.00  0.00     0.034 C 
HETATM    6  C15 UNL     1      25.357  -0.151  52.666  1.00  0.00     0.031 C 
HETATM    7  C16 UNL     1      24.146   0.424  52.711  1.00  0.00     0.029 C 
ENDROOT
BRANCH   1   8
HETATM    8  C9  UNL     1      22.426   2.185  53.053  1.00  0.00     0.098 C 
BRANCH   8   9
HETATM    9  C8  UNL     1      21.277   1.409  52.597  1.00  0.00    -0.043 A 
HETATM   10  C3  UNL     1      20.523   0.517  53.301  1.00  0.00    -0.013 A 
HETATM   11  C4  UNL     1      19.458  -0.148  52.745  1.00  0.00     0.123 A 
HETATM   12  F1  UNL     1      18.721  -1.039  53.483  1.00  0.00    -0.206 F 
HETATM   13  C5  UNL     1      19.067   0.026  51.448  1.00  0.00     0.043 A 
HETATM   14  C6  UNL     1      19.787   0.915  50.677  1.00  0.00     0.004 A 
HETATM   15  C7  UNL     1      20.858   1.570  51.271  1.00  0.00     0.008 A 
BRANCH  10  16
HETATM   16  C2  UNL     1      20.867   0.256  54.711  1.00  0.00     0.038 C 
HETATM   17  C1  UNL     1      21.636  -1.054  54.753  1.00  0.00     0.010 C 
ENDBRANCH  10  16
ENDBRANCH   8   9
ENDBRANCH   1   8
BRANCH   5  18
HETATM   18  N2  UNL     1      27.829  -0.120  52.750  1.00  0.00    -0.309 N 
HETATM   19  C14 UNL     1      28.356   0.170  54.049  1.00  0.00     0.318 C 
HETATM   20  N3  UNL     1      29.564  -0.556  54.323  1.00  0.00    -0.352 N 
HETATM   21  O1  UNL     1      27.804   0.974  54.843  1.00  0.00    -0.247 OA
HETATM   22  H15 UNL     1      30.069  -1.206  54.955  1.00  0.00     0.160 HD
HETATM   23  H16 UNL     1      30.379  -0.475  53.653  1.00  0.00     0.160 HD
HETATM   24  H14 UNL     1      28.254  -0.778  52.060  1.00  0.00     0.170 HD
ENDBRANCH   5  18
TORSDOF 4
ENDMDL
MODEL 6
REMARK VINA RESULT:      -7.4      3.747      6.673
REMARK  4 active torsions:
REMARK  status: ('A' for Active; 'I' for Inactive)
REMARK    1  A    between atoms: C2_2  and  C3_3 
REMARK    2  A    between atoms: C8_9  and  C9_10 
REMARK    3  A    between atoms: C9_10  and  C10_11 
REMARK    4  A    between atoms: C13_15  and  N2_16 
REMARK       I    between atoms: N2_16  and  C14_17 
REMARK       I    between atoms: C14_17  and  N3_18 
ROOT
HETATM    1  C10 UNL     1      25.329   1.509  52.181  1.00  0.00     0.033 C 
HETATM    2  N1  UNL     1      24.158   1.639  51.668  1.00  0.00    -0.290 NA
HETATM    3  C11 UNL     1      23.551   2.236  50.538  1.00  0.00     0.178 C 
HETATM    4  C12 UNL     1      24.192   3.474  50.061  1.00  0.00     0.024 C 
HETATM    5  C13 UNL     1      25.453   3.882  50.078  1.00  0.00     0.034 C 
HETATM    6  C15 UNL     1      26.580   3.107  50.631  1.00  0.00     0.031 C 
HETATM    7  C16 UNL     1      26.492   2.108  51.521  1.00  0.00     0.029 C 
ENDROOT
BRANCH   1   8
HETATM    8  C9  UNL     1      25.640   0.784  53.445  1.00  0.00     0.098 C 
BRANCH   8   9
HETATM    9  C8  UNL     1      26.715  -0.198  53.335  1.00  0.00    -0.043 A 
HETATM   10  C3  UNL     1      27.973  -0.140  53.857  1.00  0.00    -0.013 A 
HETATM   11  C4  UNL     1      28.892  -1.145  53.676  1.00  0.00     0.123 A 
HETATM   12  F1  UNL     1      30.149  -1.054  54.216  1.00  0.00    -0.206 F 
HETATM   13  C5  UNL     1      28.624  -2.279  52.964  1.00  0.00     0.043 A 
HETATM   14  C6  UNL     1      27.368  -2.403  52.407  1.00  0.00     0.004 A 
HETATM   15  C7  UNL     1      26.464  -1.369  52.608  1.00  0.00     0.008 A 
BRANCH  10  16
HETATM   16  C2  UNL     1      28.362   1.046  54.641  1.00  0.00     0.038 C 
HETATM   17  C1  UNL     1      29.083   1.994  53.697  1.00  0.00     0.010 C 
ENDBRANCH  10  16
ENDBRANCH   8   9
ENDBRANCH   1   8
BRANCH   5  18
HETATM   18  N2  UNL     1      25.773   5.167  49.525  1.00  0.00    -0.309 N 
HETATM   19  C14 UNL     1      26.984   5.353  48.784  1.00  0.00     0.318 C 
HETATM   20  N3  UNL     1      27.133   6.699  48.309  1.00  0.00    -0.352 N 
HETATM   21  O1  UNL     1      27.808   4.424  48.585  1.00  0.00    -0.247 OA
HETATM   22  H15 UNL     1      27.283   7.328  47.498  1.00  0.00     0.160 HD
HETATM   23  H16 UNL     1      27.089   7.499  49.001  1.00  0.00     0.160 HD
HETATM   24  H14 UNL     1      25.063   5.908  49.715  1.00  0.00     0.170 HD
ENDBRANCH   5  18
TORSDOF 4
ENDMDL
MODEL 7
REMARK VINA RESULT:      -7.4      4.492      6.322
REMARK  4 active torsions:
REMARK  status: ('A' for Active; 'I' for Inactive)
REMARK    1  A    between atoms: C2_2  and  C3_3 
REMARK    2  A    between atoms: C8_9  and  C9_10 
REMARK    3  A    between atoms: C9_10  and  C10_11 
REMARK    4  A    between atoms: C13_15  and  N2_16 
REMARK       I    between atoms: N2_16  and  C14_17 
REMARK       I    between atoms: C14_17  and  N3_18 
ROOT
HETATM    1  C10 UNL     1      23.349   3.929  49.670  1.00  0.00     0.033 C 
HETATM    2  N1  UNL     1      22.602   4.627  50.448  1.00  0.00    -0.290 NA
HETATM    3  C11 UNL     1      22.521   5.951  50.940  1.00  0.00     0.178 C 
HETATM    4  C12 UNL     1      23.814   6.632  51.127  1.00  0.00     0.024 C 
HETATM    5  C13 UNL     1      24.969   6.532  50.484  1.00  0.00     0.034 C 
HETATM    6  C15 UNL     1      25.220   5.635  49.340  1.00  0.00     0.031 C 
HETATM    7  C16 UNL     1      24.514   4.539  49.025  1.00  0.00     0.029 C 
ENDROOT
BRANCH   1   8
HETATM    8  C9  UNL     1      23.148   2.488  49.348  1.00  0.00     0.098 C 
BRANCH   8   9
HETATM    9  C8  UNL     1      22.622   1.684  50.447  1.00  0.00    -0.043 A 
HETATM   10  C3  UNL     1      23.258   1.283  51.584  1.00  0.00    -0.013 A 
HETATM   11  C4  UNL     1      22.637   0.524  52.546  1.00  0.00     0.123 A 
HETATM   12  F1  UNL     1      23.307   0.137  53.678  1.00  0.00    -0.206 F 
HETATM   13  C5  UNL     1      21.339   0.110  52.444  1.00  0.00     0.043 A 
HETATM   14  C6  UNL     1      20.636   0.481  51.317  1.00  0.00     0.004 A 
HETATM   15  C7  UNL     1      21.293   1.248  50.365  1.00  0.00     0.008 A 
BRANCH  10  16
HETATM   16  C2  UNL     1      24.664   1.676  51.786  1.00  0.00     0.038 C 
HETATM   17  C1  UNL     1      24.676   2.794  52.814  1.00  0.00     0.010 C 
ENDBRANCH  10  16
ENDBRANCH   8   9
ENDBRANCH   1   8
BRANCH   5  18
HETATM   18  N2  UNL     1      26.072   7.346  50.909  1.00  0.00    -0.309 N 
HETATM   19  C14 UNL     1      26.396   8.549  50.204  1.00  0.00     0.318 C 
HETATM   20  N3  UNL     1      27.525   9.229  50.773  1.00  0.00    -0.352 N 
HETATM   21  O1  UNL     1      25.749   8.944  49.202  1.00  0.00    -0.247 OA
HETATM   22  H15 UNL     1      27.906  10.107  51.172  1.00  0.00     0.160 HD
HETATM   23  H16 UNL     1      28.438   8.706  50.892  1.00  0.00     0.160 HD
HETATM   24  H14 UNL     1      26.582   6.980  51.744  1.00  0.00     0.170 HD
ENDBRANCH   5  18
TORSDOF 4
ENDMDL
MODEL 8
REMARK VINA RESULT:      -7.4      4.440      6.366
REMARK  4 active torsions:
REMARK  status: ('A' for Active; 'I' for Inactive)
REMARK    1  A    between atoms: C2_2  and  C3_3 
REMARK    2  A    between atoms: C8_9  and  C9_10 
REMARK    3  A    between atoms: C9_10  and  C10_11 
REMARK    4  A    between atoms: C13_15  and  N2_16 
REMARK       I    between atoms: N2_16  and  C14_17 
REMARK       I    between atoms: C14_17  and  N3_18 
ROOT
HETATM    1  C10 UNL     1      23.348   3.961  49.753  1.00  0.00     0.033 C 
HETATM    2  N1  UNL     1      22.577   4.740  50.423  1.00  0.00    -0.290 NA
HETATM    3  C11 UNL     1      22.509   6.101  50.804  1.00  0.00     0.178 C 
HETATM    4  C12 UNL     1      23.810   6.757  51.023  1.00  0.00     0.024 C 
HETATM    5  C13 UNL     1      24.999   6.573  50.467  1.00  0.00     0.034 C 
HETATM    6  C15 UNL     1      25.292   5.581  49.415  1.00  0.00     0.031 C 
HETATM    7  C16 UNL     1      24.571   4.484  49.140  1.00  0.00     0.029 C 
ENDROOT
BRANCH   1   8
HETATM    8  C9  UNL     1      23.119   2.505  49.530  1.00  0.00     0.098 C 
BRANCH   8   9
HETATM    9  C8  UNL     1      23.070   1.703  50.749  1.00  0.00    -0.043 A 
HETATM   10  C3  UNL     1      22.060   0.904  51.198  1.00  0.00    -0.013 A 
HETATM   11  C4  UNL     1      22.147   0.197  52.372  1.00  0.00     0.123 A 
HETATM   12  F1  UNL     1      21.112  -0.597  52.793  1.00  0.00    -0.206 F 
HETATM   13  C5  UNL     1      23.246   0.234  53.183  1.00  0.00     0.043 A 
HETATM   14  C6  UNL     1      24.305   1.023  52.788  1.00  0.00     0.004 A 
HETATM   15  C7  UNL     1      24.184   1.725  51.597  1.00  0.00     0.008 A 
BRANCH  10  16
HETATM   16  C2  UNL     1      20.828   0.799  50.394  1.00  0.00     0.038 C 
HETATM   17  C1  UNL     1      19.808   1.743  51.007  1.00  0.00     0.010 C 
ENDBRANCH  10  16
ENDBRANCH   8   9
ENDBRANCH   1   8
BRANCH   5  18
HETATM   18  N2  UNL     1      26.100   7.387  50.900  1.00  0.00    -0.309 N 
HETATM   19  C14 UNL     1      26.465   8.559  50.164  1.00  0.00     0.318 C 
HETATM   20  N3  UNL     1      27.585   9.243  50.746  1.00  0.00    -0.352 N 
HETATM   21  O1  UNL     1      25.856   8.928  49.128  1.00  0.00    -0.247 OA
HETATM   22  H15 UNL     1      27.966  10.130  51.126  1.00  0.00     0.160 HD
HETATM   23  H16 UNL     1      28.485   8.712  50.913  1.00  0.00     0.160 HD
HETATM   24  H14 UNL     1      26.577   7.043  51.763  1.00  0.00     0.170 HD
ENDBRANCH   5  18
TORSDOF 4
ENDMDL
MODEL 9
REMARK VINA RESULT:      -7.1      2.965      3.835
REMARK  4 active torsions:
REMARK  status: ('A' for Active; 'I' for Inactive)
REMARK    1  A    between atoms: C2_2  and  C3_3 
REMARK    2  A    between atoms: C8_9  and  C9_10 
REMARK    3  A    between atoms: C9_10  and  C10_11 
REMARK    4  A    between atoms: C13_15  and  N2_16 
REMARK       I    between atoms: N2_16  and  C14_17 
REMARK       I    between atoms: C14_17  and  N3_18 
ROOT
HETATM    1  C10 UNL     1      21.968   0.267  52.190  1.00  0.00     0.033 C 
HETATM    2  N1  UNL     1      21.661  -0.366  53.264  1.00  0.00    -0.290 NA
HETATM    3  C11 UNL     1      22.242  -0.687  54.514  1.00  0.00     0.178 C 
HETATM    4  C12 UNL     1      23.703  -0.880  54.496  1.00  0.00     0.024 C 
HETATM    5  C13 UNL     1      24.659  -0.336  53.757  1.00  0.00     0.034 C 
HETATM    6  C15 UNL     1      24.437   0.670  52.702  1.00  0.00     0.031 C 
HETATM    7  C16 UNL     1      23.282   0.899  52.057  1.00  0.00     0.029 C 
ENDROOT
BRANCH   1   8
HETATM    8  C9  UNL     1      21.083   0.426  51.001  1.00  0.00     0.098 C 
BRANCH   8   9
HETATM    9  C8  UNL     1      19.986   1.372  51.179  1.00  0.00    -0.043 A 
HETATM   10  C3  UNL     1      18.655   1.109  51.323  1.00  0.00    -0.013 A 
HETATM   11  C4  UNL     1      17.722   2.104  51.486  1.00  0.00     0.123 A 
HETATM   12  F1  UNL     1      16.392   1.804  51.629  1.00  0.00    -0.206 F 
HETATM   13  C5  UNL     1      18.046   3.431  51.518  1.00  0.00     0.043 A 
HETATM   14  C6  UNL     1      19.377   3.767  51.377  1.00  0.00     0.004 A 
HETATM   15  C7  UNL     1      20.293   2.737  51.214  1.00  0.00     0.008 A 
BRANCH  10  16
HETATM   16  C2  UNL     1      18.203  -0.294  51.300  1.00  0.00     0.038 C 
HETATM   17  C1  UNL     1      18.093  -0.756  52.743  1.00  0.00     0.010 C 
ENDBRANCH  10  16
ENDBRANCH   8   9
ENDBRANCH   1   8
BRANCH   5  18
HETATM   18  N2  UNL     1      26.019  -0.735  53.981  1.00  0.00    -0.309 N 
HETATM   19  C14 UNL     1      26.931   0.145  54.646  1.00  0.00     0.318 C 
HETATM   20  N3  UNL     1      28.242  -0.424  54.780  1.00  0.00    -0.352 N 
HETATM   21  O1  UNL     1      26.596   1.284  55.059  1.00  0.00    -0.247 OA
HETATM   22  H15 UNL     1      29.020  -0.688  55.413  1.00  0.00     0.160 HD
HETATM   23  H16 UNL     1      28.747  -0.767  53.915  1.00  0.00     0.160 HD
HETATM   24  H14 UNL     1      26.254  -1.687  53.620  1.00  0.00     0.170 HD
ENDBRANCH   5  18
TORSDOF 4
ENDMDL
