MODEL 1
REMARK VINA RESULT:      -7.7      0.000      0.000
REMARK  8 active torsions:
REMARK  status: ('A' for Active; 'I' for Inactive)
REMARK    1  A    between atoms: C2_2  and  C3_3 
REMARK    2  A    between atoms: C3_3  and  C4_4 
REMARK    3  A    between atoms: C3_3  and  C6_7 
REMARK    4  A    between atoms: C4_4  and  O1_5 
REMARK    5  A    between atoms: C6_7  and  C8_9 
REMARK    6  A    between atoms: C11_14  and  C12_15 
REMARK    7  A    between atoms: C15_20  and  N3_21 
REMARK    8  A    between atoms: N3_21  and  C16_22 
ROOT
HETATM    1  C12 UNL     1      24.506   3.003  52.479  1.00  0.00     0.044 A 
HETATM    2  C13 UNL     1      25.294   2.450  53.567  1.00  0.00     0.195 A 
HETATM    3  N1  UNL     1      26.504   1.858  53.260  1.00  0.00    -0.278 NA
HETATM    4  C14 UNL     1      27.202   1.705  52.298  1.00  0.00     0.229 A 
HETATM    5  N2  UNL     1      26.520   2.308  51.272  1.00  0.00    -0.224 NA
HETATM    6  C15 UNL     1      25.399   2.871  51.303  1.00  0.00     0.140 A 
ENDROOT
BRANCH   1   7
HETATM    7  C11 UNL     1      23.404   3.479  51.889  1.00  0.00     0.114 C 
HETATM    8  C8  UNL     1      22.138   2.826  51.701  1.00  0.00     0.105 C 
HETATM    9  O2  UNL     1      21.045   3.319  51.040  1.00  0.00    -0.346 OA
HETATM   10  C9  UNL     1      20.699   4.688  51.062  1.00  0.00     0.202 C 
HETATM   11  C10 UNL     1      21.900   5.384  51.662  1.00  0.00     0.202 C 
HETATM   12  O3  UNL     1      23.026   4.636  51.243  1.00  0.00    -0.345 OA
BRANCH   8  13
HETATM   13  C6  UNL     1      21.782   1.626  52.110  1.00  0.00    -0.041 C 
HETATM   14  C7  UNL     1      21.770   0.557  51.089  1.00  0.00     0.047 C 
BRANCH  13  15
HETATM   15  C3  UNL     1      21.711   0.784  53.279  1.00  0.00     0.040 C 
BRANCH  15  16
HETATM   16  C2  UNL     1      22.494  -0.531  53.055  1.00  0.00     0.007 C 
HETATM   17  C1  UNL     1      23.600  -0.749  54.010  1.00  0.00     0.006 C 
ENDBRANCH  15  16
BRANCH  15  18
HETATM   18  C4  UNL     1      20.459   0.488  53.996  1.00  0.00     0.176 C 
BRANCH  18  19
HETATM   19  O1  UNL     1      20.080  -0.827  53.671  1.00  0.00    -0.395 OA
HETATM   20  C5  UNL     1      18.792  -1.001  53.294  1.00  0.00     0.201 C 
ENDBRANCH  18  19
ENDBRANCH  15  18
ENDBRANCH  13  15
ENDBRANCH   8  13
ENDBRANCH   1   7
BRANCH   6  21
HETATM   21  N3  UNL     1      25.287   3.370  49.912  1.00  0.00    -0.340 N 
HETATM   22  H22 UNL     1      24.700   2.710  49.320  1.00  0.00     0.167 HD
BRANCH  21  23
HETATM   23  C16 UNL     1      25.830   4.578  49.317  1.00  0.00     0.034 A 
HETATM   24  C17 UNL     1      25.157   5.751  49.039  1.00  0.00     0.029 A 
HETATM   25  C18 UNL     1      25.866   6.785  48.472  1.00  0.00     0.003 A 
HETATM   26  C19 UNL     1      27.206   6.683  48.180  1.00  0.00     0.007 A 
HETATM   27  C20 UNL     1      27.916   5.511  48.448  1.00  0.00    -0.060 A 
HETATM   28  C21 UNL     1      29.361   5.389  48.139  1.00  0.00     0.048 C 
HETATM   29  C22 UNL     1      27.183   4.469  49.024  1.00  0.00     0.036 A 
ENDBRANCH  21  23
ENDBRANCH   6  21
TORSDOF 8
ENDMDL
MODEL 2
REMARK VINA RESULT:      -7.5      2.895      6.710
REMARK  8 active torsions:
REMARK  status: ('A' for Active; 'I' for Inactive)
REMARK    1  A    between atoms: C2_2  and  C3_3 
REMARK    2  A    between atoms: C3_3  and  C4_4 
REMARK    3  A    between atoms: C3_3  and  C6_7 
REMARK    4  A    between atoms: C4_4  and  O1_5 
REMARK    5  A    between atoms: C6_7  and  C8_9 
REMARK    6  A    between atoms: C11_14  and  C12_15 
REMARK    7  A    between atoms: C15_20  and  N3_21 
REMARK    8  A    between atoms: N3_21  and  C16_22 
ROOT
HETATM    1  C12 UNL     1      23.367   2.211  52.714  1.00  0.00     0.044 A 
HETATM    2  C13 UNL     1      24.030   3.503  52.700  1.00  0.00     0.195 A 
HETATM    3  N1  UNL     1      24.157   4.158  51.489  1.00  0.00    -0.278 NA
HETATM    4  C14 UNL     1      23.799   4.010  50.355  1.00  0.00     0.229 A 
HETATM    5  N2  UNL     1      23.084   2.840  50.364  1.00  0.00    -0.224 NA
HETATM    6  C15 UNL     1      22.869   2.062  51.325  1.00  0.00     0.140 A 
ENDROOT
BRANCH   1   7
HETATM    7  C11 UNL     1      23.019   1.023  53.219  1.00  0.00     0.114 C 
HETATM    8  C8  UNL     1      23.874  -0.041  53.670  1.00  0.00     0.105 C 
HETATM    9  O2  UNL     1      23.486  -1.271  54.130  1.00  0.00    -0.346 OA
HETATM   10  C9  UNL     1      22.310  -1.463  54.887  1.00  0.00     0.202 C 
HETATM   11  C10 UNL     1      21.552  -0.159  54.766  1.00  0.00     0.202 C 
HETATM   12  O3  UNL     1      21.850   0.339  53.476  1.00  0.00    -0.345 OA
BRANCH   8  13
HETATM   13  C6  UNL     1      25.189  -0.052  53.719  1.00  0.00    -0.041 C 
HETATM   14  C7  UNL     1      25.799  -0.210  55.056  1.00  0.00     0.047 C 
BRANCH  13  15
HETATM   15  C3  UNL     1      26.366  -0.323  52.932  1.00  0.00     0.040 C 
BRANCH  15  16
HETATM   16  C2  UNL     1      26.456   0.643  51.727  1.00  0.00     0.007 C 
HETATM   17  C1  UNL     1      27.148   1.914  52.018  1.00  0.00     0.006 C 
ENDBRANCH  15  16
BRANCH  15  18
HETATM   18  C4  UNL     1      26.766  -1.674  52.501  1.00  0.00     0.176 C 
BRANCH  18  19
HETATM   19  O1  UNL     1      27.802  -2.105  53.351  1.00  0.00    -0.395 OA
HETATM   20  C5  UNL     1      28.938  -1.369  53.328  1.00  0.00     0.201 C 
ENDBRANCH  18  19
ENDBRANCH  15  18
ENDBRANCH  13  15
ENDBRANCH   8  13
ENDBRANCH   1   7
BRANCH   6  21
HETATM   21  N3  UNL     1      21.983   1.057  50.692  1.00  0.00    -0.340 N 
HETATM   22  H22 UNL     1      22.523   0.174  50.452  1.00  0.00     0.167 HD
BRANCH  21  23
HETATM   23  C16 UNL     1      20.561   1.131  50.402  1.00  0.00     0.034 A 
HETATM   24  C17 UNL     1      19.943   1.891  49.429  1.00  0.00     0.029 A 
HETATM   25  C18 UNL     1      18.573   1.812  49.320  1.00  0.00     0.003 A 
HETATM   26  C19 UNL     1      17.816   1.009  50.140  1.00  0.00     0.007 A 
HETATM   27  C20 UNL     1      18.411   0.228  51.134  1.00  0.00    -0.060 A 
HETATM   28  C21 UNL     1      17.606  -0.642  52.023  1.00  0.00     0.048 C 
HETATM   29  C22 UNL     1      19.803   0.318  51.233  1.00  0.00     0.036 A 
ENDBRANCH  21  23
ENDBRANCH   6  21
TORSDOF 8
ENDMDL
MODEL 3
REMARK VINA RESULT:      -7.5      2.440      5.253
REMARK  8 active torsions:
REMARK  status: ('A' for Active; 'I' for Inactive)
REMARK    1  A    between atoms: C2_2  and  C3_3 
REMARK    2  A    between atoms: C3_3  and  C4_4 
REMARK    3  A    between atoms: C3_3  and  C6_7 
REMARK    4  A    between atoms: C4_4  and  O1_5 
REMARK    5  A    between atoms: C6_7  and  C8_9 
REMARK    6  A    between atoms: C11_14  and  C12_15 
REMARK    7  A    between atoms: C15_20  and  N3_21 
REMARK    8  A    between atoms: N3_21  and  C16_22 
ROOT
HETATM    1  C12 UNL     1      23.050   1.675  51.063  1.00  0.00     0.044 A 
HETATM    2  C13 UNL     1      22.977   2.171  49.700  1.00  0.00     0.195 A 
HETATM    3  N1  UNL     1      23.917   3.098  49.291  1.00  0.00    -0.278 NA
HETATM    4  C14 UNL     1      24.905   3.616  49.729  1.00  0.00     0.229 A 
HETATM    5  N2  UNL     1      25.050   3.086  50.985  1.00  0.00    -0.224 NA
HETATM    6  C15 UNL     1      24.309   2.267  51.579  1.00  0.00     0.140 A 
ENDROOT
BRANCH   1   7
HETATM    7  C11 UNL     1      22.601   1.071  52.168  1.00  0.00     0.114 C 
HETATM    8  C8  UNL     1      21.386   1.323  52.894  1.00  0.00     0.105 C 
HETATM    9  O2  UNL     1      20.981   0.725  54.057  1.00  0.00    -0.346 OA
HETATM   10  C9  UNL     1      21.253  -0.629  54.349  1.00  0.00     0.202 C 
HETATM   11  C10 UNL     1      22.261  -1.058  53.306  1.00  0.00     0.202 C 
HETATM   12  O3  UNL     1      23.041   0.090  53.030  1.00  0.00    -0.345 OA
BRANCH   8  13
HETATM   13  C6  UNL     1      20.434   2.181  52.596  1.00  0.00    -0.041 C 
HETATM   14  C7  UNL     1      20.847   3.591  52.424  1.00  0.00     0.047 C 
BRANCH  13  15
HETATM   15  C3  UNL     1      19.124   2.285  52.001  1.00  0.00     0.040 C 
BRANCH  15  16
HETATM   16  C2  UNL     1      18.866   1.107  51.033  1.00  0.00     0.007 C 
HETATM   17  C1  UNL     1      19.447   1.290  49.687  1.00  0.00     0.006 C 
ENDBRANCH  15  16
BRANCH  15  18
HETATM   18  C4  UNL     1      18.593   3.526  51.410  1.00  0.00     0.176 C 
BRANCH  18  19
HETATM   19  O1  UNL     1      17.420   3.865  52.110  1.00  0.00    -0.395 OA
HETATM   20  C5  UNL     1      16.292   3.964  51.370  1.00  0.00     0.201 C 
ENDBRANCH  18  19
ENDBRANCH  15  18
ENDBRANCH  13  15
ENDBRANCH   8  13
ENDBRANCH   1   7
BRANCH   6  21
HETATM   21  N3  UNL     1      25.060   2.054  52.839  1.00  0.00    -0.340 N 
HETATM   22  H22 UNL     1      24.547   2.486  53.663  1.00  0.00     0.167 HD
BRANCH  21  23
HETATM   23  C16 UNL     1      26.316   1.358  53.058  1.00  0.00     0.034 A 
HETATM   24  C17 UNL     1      27.499   1.892  53.528  1.00  0.00     0.029 A 
HETATM   25  C18 UNL     1      28.579   1.050  53.667  1.00  0.00     0.003 A 
HETATM   26  C19 UNL     1      28.512  -0.288  53.355  1.00  0.00     0.007 A 
HETATM   27  C20 UNL     1      27.331  -0.859  52.878  1.00  0.00    -0.060 A 
HETATM   28  C21 UNL     1      27.246  -2.300  52.540  1.00  0.00     0.048 C 
HETATM   29  C22 UNL     1      26.242   0.008  52.742  1.00  0.00     0.036 A 
ENDBRANCH  21  23
ENDBRANCH   6  21
TORSDOF 8
ENDMDL
MODEL 4
REMARK VINA RESULT:      -7.4      2.382      7.570
REMARK  8 active torsions:
REMARK  status: ('A' for Active; 'I' for Inactive)
REMARK    1  A    between atoms: C2_2  and  C3_3 
REMARK    2  A    between atoms: C3_3  and  C4_4 
REMARK    3  A    between atoms: C3_3  and  C6_7 
REMARK    4  A    between atoms: C4_4  and  O1_5 
REMARK    5  A    between atoms: C6_7  and  C8_9 
REMARK    6  A    between atoms: C11_14  and  C12_15 
REMARK    7  A    between atoms: C15_20  and  N3_21 
REMARK    8  A    between atoms: N3_21  and  C16_22 
ROOT
HETATM    1  C12 UNL     1      23.476   3.721  52.381  1.00  0.00     0.044 A 
HETATM    2  C13 UNL     1      22.722   4.962  52.428  1.00  0.00     0.195 A 
HETATM    3  N1  UNL     1      21.421   4.953  51.963  1.00  0.00    -0.278 NA
HETATM    4  C14 UNL     1      20.625   4.153  51.559  1.00  0.00     0.229 A 
HETATM    5  N2  UNL     1      21.286   2.952  51.599  1.00  0.00    -0.224 NA
HETATM    6  C15 UNL     1      22.471   2.722  51.944  1.00  0.00     0.140 A 
ENDROOT
BRANCH   1   7
HETATM    7  C11 UNL     1      24.573   2.958  52.408  1.00  0.00     0.114 C 
HETATM    8  C8  UNL     1      25.668   2.933  51.477  1.00  0.00     0.105 C 
HETATM    9  O2  UNL     1      26.752   2.097  51.501  1.00  0.00    -0.346 OA
HETATM   10  C9  UNL     1      27.346   1.659  52.705  1.00  0.00     0.202 C 
HETATM   11  C10 UNL     1      26.369   2.055  53.789  1.00  0.00     0.202 C 
HETATM   12  O3  UNL     1      25.084   1.955  53.203  1.00  0.00    -0.345 OA
BRANCH   8  13
HETATM   13  C6  UNL     1      25.840   3.692  50.416  1.00  0.00    -0.041 C 
HETATM   14  C7  UNL     1      26.726   3.159  49.360  1.00  0.00     0.047 C 
BRANCH  13  15
HETATM   15  C3  UNL     1      25.229   4.749  49.647  1.00  0.00     0.040 C 
BRANCH  15  16
HETATM   16  C2  UNL     1      24.019   4.215  48.846  1.00  0.00     0.007 C 
HETATM   17  C1  UNL     1      22.938   5.201  48.651  1.00  0.00     0.006 C 
ENDBRANCH  15  16
BRANCH  15  18
HETATM   18  C4  UNL     1      25.990   5.690  48.807  1.00  0.00     0.176 C 
BRANCH  18  19
HETATM   19  O1  UNL     1      26.368   6.777  49.618  1.00  0.00    -0.395 OA
HETATM   20  C5  UNL     1      25.409   7.278  50.430  1.00  0.00     0.201 C 
ENDBRANCH  18  19
ENDBRANCH  15  18
ENDBRANCH  13  15
ENDBRANCH   8  13
ENDBRANCH   1   7
BRANCH   6  21
HETATM   21  N3  UNL     1      22.523   1.245  51.836  1.00  0.00    -0.340 N 
HETATM   22  H22 UNL     1      23.020   0.948  50.945  1.00  0.00     0.167 HD
BRANCH  21  23
HETATM   23  C16 UNL     1      22.026   0.234  52.752  1.00  0.00     0.034 A 
HETATM   24  C17 UNL     1      22.753  -0.490  53.676  1.00  0.00     0.029 A 
HETATM   25  C18 UNL     1      22.081  -1.404  54.455  1.00  0.00     0.003 A 
HETATM   26  C19 UNL     1      20.727  -1.614  54.339  1.00  0.00     0.007 A 
HETATM   27  C20 UNL     1      19.963  -0.899  53.415  1.00  0.00    -0.060 A 
HETATM   28  C21 UNL     1      18.503  -1.115  53.281  1.00  0.00     0.048 C 
HETATM   29  C22 UNL     1      20.658   0.027  52.630  1.00  0.00     0.036 A 
ENDBRANCH  21  23
ENDBRANCH   6  21
TORSDOF 8
ENDMDL
MODEL 5
REMARK VINA RESULT:      -7.4      1.986      3.902
REMARK  8 active torsions:
REMARK  status: ('A' for Active; 'I' for Inactive)
REMARK    1  A    between atoms: C2_2  and  C3_3 
REMARK    2  A    between atoms: C3_3  and  C4_4 
REMARK    3  A    between atoms: C3_3  and  C6_7 
REMARK    4  A    between atoms: C4_4  and  O1_5 
REMARK    5  A    between atoms: C6_7  and  C8_9 
REMARK    6  A    between atoms: C11_14  and  C12_15 
REMARK    7  A    between atoms: C15_20  and  N3_21 
REMARK    8  A    between atoms: N3_21  and  C16_22 
ROOT
HETATM    1  C12 UNL     1      22.956   1.980  50.034  1.00  0.00     0.044 A 
HETATM    2  C13 UNL     1      21.947   1.659  49.040  1.00  0.00     0.195 A 
HETATM    3  N1  UNL     1      21.487   2.676  48.225  1.00  0.00    -0.278 NA
HETATM    4  C14 UNL     1      21.733   3.831  48.017  1.00  0.00     0.229 A 
HETATM    5  N2  UNL     1      22.755   4.131  48.881  1.00  0.00    -0.224 NA
HETATM    6  C15 UNL     1      23.304   3.390  49.731  1.00  0.00     0.140 A 
ENDROOT
BRANCH   1   7
HETATM    7  C11 UNL     1      23.696   1.783  51.130  1.00  0.00     0.114 C 
HETATM    8  C8  UNL     1      23.318   1.140  52.359  1.00  0.00     0.105 C 
HETATM    9  O2  UNL     1      24.082   1.005  53.487  1.00  0.00    -0.346 OA
HETATM   10  C9  UNL     1      25.479   0.807  53.439  1.00  0.00     0.202 C 
HETATM   11  C10 UNL     1      25.863   1.086  52.003  1.00  0.00     0.202 C 
HETATM   12  O3  UNL     1      24.971   2.089  51.555  1.00  0.00    -0.345 OA
BRANCH   8  13
HETATM   13  C6  UNL     1      22.168   0.570  52.649  1.00  0.00    -0.041 C 
HETATM   14  C7  UNL     1      22.226  -0.829  53.122  1.00  0.00     0.047 C 
BRANCH  13  15
HETATM   15  C3  UNL     1      20.810   0.855  53.042  1.00  0.00     0.040 C 
BRANCH  15  16
HETATM   16  C2  UNL     1      20.053  -0.449  53.386  1.00  0.00     0.007 C 
HETATM   17  C1  UNL     1      18.703  -0.542  52.795  1.00  0.00     0.006 C 
ENDBRANCH  15  16
BRANCH  15  18
HETATM   18  C4  UNL     1      19.915   1.752  52.290  1.00  0.00     0.176 C 
BRANCH  18  19
HETATM   19  O1  UNL     1      20.197   3.071  52.689  1.00  0.00    -0.395 OA
HETATM   20  C5  UNL     1      20.289   3.988  51.697  1.00  0.00     0.201 C 
ENDBRANCH  18  19
ENDBRANCH  15  18
ENDBRANCH  13  15
ENDBRANCH   8  13
ENDBRANCH   1   7
BRANCH   6  21
HETATM   21  N3  UNL     1      24.362   4.285  50.257  1.00  0.00    -0.340 N 
HETATM   22  H22 UNL     1      24.169   4.544  51.269  1.00  0.00     0.167 HD
BRANCH  21  23
HETATM   23  C16 UNL     1      25.553   4.792  49.599  1.00  0.00     0.034 A 
HETATM   24  C17 UNL     1      26.699   4.090  49.283  1.00  0.00     0.029 A 
HETATM   25  C18 UNL     1      27.718   4.766  48.652  1.00  0.00     0.003 A 
HETATM   26  C19 UNL     1      27.628   6.101  48.333  1.00  0.00     0.007 A 
HETATM   27  C20 UNL     1      26.483   6.839  48.639  1.00  0.00    -0.060 A 
HETATM   28  C21 UNL     1      26.373   8.278  48.300  1.00  0.00     0.048 C 
HETATM   29  C22 UNL     1      25.455   6.140  49.280  1.00  0.00     0.036 A 
ENDBRANCH  21  23
ENDBRANCH   6  21
TORSDOF 8
ENDMDL
MODEL 6
REMARK VINA RESULT:      -7.4      2.636      4.881
REMARK  8 active torsions:
REMARK  status: ('A' for Active; 'I' for Inactive)
REMARK    1  A    between atoms: C2_2  and  C3_3 
REMARK    2  A    between atoms: C3_3  and  C4_4 
REMARK    3  A    between atoms: C3_3  and  C6_7 
REMARK    4  A    between atoms: C4_4  and  O1_5 
REMARK    5  A    between atoms: C6_7  and  C8_9 
REMARK    6  A    between atoms: C11_14  and  C12_15 
REMARK    7  A    between atoms: C15_20  and  N3_21 
REMARK    8  A    between atoms: N3_21  and  C16_22 
ROOT
HETATM    1  C12 UNL     1      23.122   1.425  52.417  1.00  0.00     0.044 A 
HETATM    2  C13 UNL     1      22.150   0.968  53.394  1.00  0.00     0.195 A 
HETATM    3  N1  UNL     1      22.436  -0.176  54.113  1.00  0.00    -0.278 NA
HETATM    4  C14 UNL     1      23.350  -0.941  54.243  1.00  0.00     0.229 A 
HETATM    5  N2  UNL     1      24.322  -0.471  53.398  1.00  0.00    -0.224 NA
HETATM    6  C15 UNL     1      24.276   0.517  52.626  1.00  0.00     0.140 A 
ENDROOT
BRANCH   1   7
HETATM    7  C11 UNL     1      23.559   2.127  51.366  1.00  0.00     0.114 C 
HETATM    8  C8  UNL     1      22.855   2.461  50.158  1.00  0.00     0.105 C 
HETATM    9  O2  UNL     1      23.350   3.133  49.073  1.00  0.00    -0.346 OA
HETATM   10  C9  UNL     1      24.292   4.178  49.193  1.00  0.00     0.202 C 
HETATM   11  C10 UNL     1      24.767   4.112  50.627  1.00  0.00     0.202 C 
HETATM   12  O3  UNL     1      24.731   2.742  50.981  1.00  0.00    -0.345 OA
BRANCH   8  13
HETATM   13  C6  UNL     1      21.607   2.177  49.850  1.00  0.00    -0.041 C 
HETATM   14  C7  UNL     1      21.401   1.103  48.855  1.00  0.00     0.047 C 
BRANCH  13  15
HETATM   15  C3  UNL     1      20.255   2.248  50.346  1.00  0.00     0.040 C 
BRANCH  15  16
HETATM   16  C2  UNL     1      19.523   0.901  50.140  1.00  0.00     0.007 C 
HETATM   17  C1  UNL     1      19.067   0.260  51.390  1.00  0.00     0.006 C 
ENDBRANCH  15  16
BRANCH  15  18
HETATM   18  C4  UNL     1      19.331   3.354  50.041  1.00  0.00     0.176 C 
BRANCH  18  19
HETATM   19  O1  UNL     1      18.804   3.820  51.260  1.00  0.00    -0.395 OA
HETATM   20  C5  UNL     1      17.454   3.863  51.349  1.00  0.00     0.201 C 
ENDBRANCH  18  19
ENDBRANCH  15  18
ENDBRANCH  13  15
ENDBRANCH   8  13
ENDBRANCH   1   7
BRANCH   6  21
HETATM   21  N3  UNL     1      25.651   0.519  52.074  1.00  0.00    -0.340 N 
HETATM   22  H22 UNL     1      25.648   0.246  51.047  1.00  0.00     0.167 HD
BRANCH  21  23
HETATM   23  C16 UNL     1      26.907   0.847  52.726  1.00  0.00     0.034 A 
HETATM   24  C17 UNL     1      27.330   2.090  53.152  1.00  0.00     0.029 A 
HETATM   25  C18 UNL     1      28.565   2.182  53.754  1.00  0.00     0.003 A 
HETATM   26  C19 UNL     1      29.375   1.086  53.940  1.00  0.00     0.007 A 
HETATM   27  C20 UNL     1      28.976  -0.185  53.520  1.00  0.00    -0.060 A 
HETATM   28  C21 UNL     1      29.840  -1.373  53.716  1.00  0.00     0.048 C 
HETATM   29  C22 UNL     1      27.721  -0.263  52.910  1.00  0.00     0.036 A 
ENDBRANCH  21  23
ENDBRANCH   6  21
TORSDOF 8
ENDMDL
MODEL 7
REMARK VINA RESULT:      -7.3      2.691      7.520
REMARK  8 active torsions:
REMARK  status: ('A' for Active; 'I' for Inactive)
REMARK    1  A    between atoms: C2_2  and  C3_3 
REMARK    2  A    between atoms: C3_3  and  C4_4 
REMARK    3  A    between atoms: C3_3  and  C6_7 
REMARK    4  A    between atoms: C4_4  and  O1_5 
REMARK    5  A    between atoms: C6_7  and  C8_9 
REMARK    6  A    between atoms: C11_14  and  C12_15 
REMARK    7  A    between atoms: C15_20  and  N3_21 
REMARK    8  A    between atoms: N3_21  and  C16_22 
ROOT
HETATM    1  C12 UNL     1      22.897   0.294  52.341  1.00  0.00     0.044 A 
HETATM    2  C13 UNL     1      23.796  -0.510  53.149  1.00  0.00     0.195 A 
HETATM    3  N1  UNL     1      23.348  -0.952  54.380  1.00  0.00    -0.278 NA
HETATM    4  C14 UNL     1      22.333  -0.934  55.017  1.00  0.00     0.229 A 
HETATM    5  N2  UNL     1      21.437  -0.261  54.227  1.00  0.00    -0.224 NA
HETATM    6  C15 UNL     1      21.623   0.259  53.100  1.00  0.00     0.140 A 
ENDROOT
BRANCH   1   7
HETATM    7  C11 UNL     1      22.563   1.133  51.355  1.00  0.00     0.114 C 
HETATM    8  C8  UNL     1      23.205   2.360  50.969  1.00  0.00     0.105 C 
HETATM    9  O2  UNL     1      22.803   3.228  49.989  1.00  0.00    -0.346 OA
HETATM   10  C9  UNL     1      22.198   2.793  48.791  1.00  0.00     0.202 C 
HETATM   11  C10 UNL     1      21.871   1.335  49.026  1.00  0.00     0.202 C 
HETATM   12  O3  UNL     1      21.569   1.228  50.404  1.00  0.00    -0.345 OA
BRANCH   8  13
HETATM   13  C6  UNL     1      24.291   2.896  51.484  1.00  0.00    -0.041 C 
HETATM   14  C7  UNL     1      24.167   3.456  52.847  1.00  0.00     0.047 C 
BRANCH  13  15
HETATM   15  C3  UNL     1      25.731   2.875  51.409  1.00  0.00     0.040 C 
BRANCH  15  16
HETATM   16  C2  UNL     1      26.207   3.058  49.949  1.00  0.00     0.007 C 
HETATM   17  C1  UNL     1      26.135   4.448  49.457  1.00  0.00     0.006 C 
ENDBRANCH  15  16
BRANCH  15  18
HETATM   18  C4  UNL     1      26.566   1.857  52.069  1.00  0.00     0.176 C 
BRANCH  18  19
HETATM   19  O1  UNL     1      27.836   2.423  52.291  1.00  0.00    -0.395 OA
HETATM   20  C5  UNL     1      28.331   2.303  53.544  1.00  0.00     0.201 C 
ENDBRANCH  18  19
ENDBRANCH  15  18
ENDBRANCH  13  15
ENDBRANCH   8  13
ENDBRANCH   1   7
BRANCH   6  21
HETATM   21  N3  UNL     1      20.261   0.742  52.774  1.00  0.00    -0.340 N 
HETATM   22  H22 UNL     1      20.240   1.802  52.706  1.00  0.00     0.167 HD
BRANCH  21  23
HETATM   23  C16 UNL     1      19.046  -0.017  52.533  1.00  0.00     0.034 A 
HETATM   24  C17 UNL     1      18.480  -0.974  53.352  1.00  0.00     0.029 A 
HETATM   25  C18 UNL     1      17.315  -1.576  52.934  1.00  0.00     0.003 A 
HETATM   26  C19 UNL     1      16.708  -1.254  51.743  1.00  0.00     0.007 A 
HETATM   27  C20 UNL     1      17.254  -0.291  50.892  1.00  0.00    -0.060 A 
HETATM   28  C21 UNL     1      16.610   0.066  49.606  1.00  0.00     0.048 C 
HETATM   29  C22 UNL     1      18.438   0.312  51.329  1.00  0.00     0.036 A 
ENDBRANCH  21  23
ENDBRANCH   6  21
TORSDOF 8
ENDMDL
MODEL 8
REMARK VINA RESULT:      -7.2      2.254      7.192
REMARK  8 active torsions:
REMARK  status: ('A' for Active; 'I' for Inactive)
REMARK    1  A    between atoms: C2_2  and  C3_3 
REMARK    2  A    between atoms: C3_3  and  C4_4 
REMARK    3  A    between atoms: C3_3  and  C6_7 
REMARK    4  A    between atoms: C4_4  and  O1_5 
REMARK    5  A    between atoms: C6_7  and  C8_9 
REMARK    6  A    between atoms: C11_14  and  C12_15 
REMARK    7  A    between atoms: C15_20  and  N3_21 
REMARK    8  A    between atoms: N3_21  and  C16_22 
ROOT
HETATM    1  C12 UNL     1      23.432   3.836  52.255  1.00  0.00     0.044 A 
HETATM    2  C13 UNL     1      22.728   5.107  52.290  1.00  0.00     0.195 A 
HETATM    3  N1  UNL     1      21.428   5.145  51.824  1.00  0.00    -0.278 NA
HETATM    4  C14 UNL     1      20.600   4.373  51.428  1.00  0.00     0.229 A 
HETATM    5  N2  UNL     1      21.213   3.148  51.479  1.00  0.00    -0.224 NA
HETATM    6  C15 UNL     1      22.387   2.874  51.827  1.00  0.00     0.140 A 
ENDROOT
BRANCH   1   7
HETATM    7  C11 UNL     1      24.498   3.030  52.291  1.00  0.00     0.114 C 
HETATM    8  C8  UNL     1      25.567   2.919  51.336  1.00  0.00     0.105 C 
HETATM    9  O2  UNL     1      26.617   2.041  51.372  1.00  0.00    -0.346 OA
HETATM   10  C9  UNL     1      27.222   1.631  52.579  1.00  0.00     0.202 C 
HETATM   11  C10 UNL     1      26.289   2.114  53.668  1.00  0.00     0.202 C 
HETATM   12  O3  UNL     1      24.988   2.042  53.117  1.00  0.00    -0.345 OA
BRANCH   8  13
HETATM   13  C6  UNL     1      25.742   3.624  50.239  1.00  0.00    -0.041 C 
HETATM   14  C7  UNL     1      26.843   3.197  49.349  1.00  0.00     0.047 C 
BRANCH  13  15
HETATM   15  C3  UNL     1      25.063   4.494  49.310  1.00  0.00     0.040 C 
BRANCH  15  16
HETATM   16  C2  UNL     1      25.179   5.970  49.756  1.00  0.00     0.007 C 
HETATM   17  C1  UNL     1      26.261   6.723  49.090  1.00  0.00     0.006 C 
ENDBRANCH  15  16
BRANCH  15  18
HETATM   18  C4  UNL     1      23.702   4.244  48.804  1.00  0.00     0.176 C 
BRANCH  18  19
HETATM   19  O1  UNL     1      23.014   5.471  48.804  1.00  0.00    -0.395 OA
HETATM   20  C5  UNL     1      21.871   5.513  48.081  1.00  0.00     0.201 C 
ENDBRANCH  18  19
ENDBRANCH  15  18
ENDBRANCH  13  15
ENDBRANCH   8  13
ENDBRANCH   1   7
BRANCH   6  21
HETATM   21  N3  UNL     1      22.381   1.395  51.734  1.00  0.00    -0.340 N 
HETATM   22  H22 UNL     1      22.918   1.068  50.877  1.00  0.00     0.167 HD
BRANCH  21  23
HETATM   23  C16 UNL     1      21.785   0.416  52.626  1.00  0.00     0.034 A 
HETATM   24  C17 UNL     1      20.491  -0.065  52.597  1.00  0.00     0.029 A 
HETATM   25  C18 UNL     1      20.128  -1.000  53.539  1.00  0.00     0.003 A 
HETATM   26  C19 UNL     1      21.004  -1.461  54.493  1.00  0.00     0.007 A 
HETATM   27  C20 UNL     1      22.320  -0.995  54.549  1.00  0.00    -0.060 A 
HETATM   28  C21 UNL     1      23.274  -1.485  55.572  1.00  0.00     0.048 C 
HETATM   29  C22 UNL     1      22.675  -0.046  53.586  1.00  0.00     0.036 A 
ENDBRANCH  21  23
ENDBRANCH   6  21
TORSDOF 8
ENDMDL
MODEL 9
REMARK VINA RESULT:      -7.1      2.026      3.571
REMARK  8 active torsions:
REMARK  status: ('A' for Active; 'I' for Inactive)
REMARK    1  A    between atoms: C2_2  and  C3_3 
REMARK    2  A    between atoms: C3_3  and  C4_4 
REMARK    3  A    between atoms: C3_3  and  C6_7 
REMARK    4  A    between atoms: C4_4  and  O1_5 
REMARK    5  A    between atoms: C6_7  and  C8_9 
REMARK    6  A    between atoms: C11_14  and  C12_15 
REMARK    7  A    between atoms: C15_20  and  N3_21 
REMARK    8  A    between atoms: N3_21  and  C16_22 
ROOT
HETATM    1  C12 UNL     1      23.563   2.856  49.358  1.00  0.00     0.044 A 
HETATM    2  C13 UNL     1      22.663   2.327  48.348  1.00  0.00     0.195 A 
HETATM    3  N1  UNL     1      22.084   3.215  47.461  1.00  0.00    -0.278 NA
HETATM    4  C14 UNL     1      22.152   4.382  47.197  1.00  0.00     0.229 A 
HETATM    5  N2  UNL     1      23.074   4.886  48.079  1.00  0.00    -0.224 NA
HETATM    6  C15 UNL     1      23.696   4.286  48.989  1.00  0.00     0.140 A 
ENDROOT
BRANCH   1   7
HETATM    7  C11 UNL     1      24.274   2.836  50.490  1.00  0.00     0.114 C 
HETATM    8  C8  UNL     1      23.813   2.609  51.832  1.00  0.00     0.105 C 
HETATM    9  O2  UNL     1      24.559   2.652  52.979  1.00  0.00    -0.346 OA
HETATM   10  C9  UNL     1      25.903   2.223  53.027  1.00  0.00     0.202 C 
HETATM   11  C10 UNL     1      26.308   2.048  51.580  1.00  0.00     0.202 C 
HETATM   12  O3  UNL     1      25.588   3.030  50.859  1.00  0.00    -0.345 OA
BRANCH   8  13
HETATM   13  C6  UNL     1      22.588   2.332  52.226  1.00  0.00    -0.041 C 
HETATM   14  C7  UNL     1      21.625   3.454  52.226  1.00  0.00     0.047 C 
BRANCH  13  15
HETATM   15  C3  UNL     1      21.637   1.255  52.352  1.00  0.00     0.040 C 
BRANCH  15  16
HETATM   16  C2  UNL     1      21.866   0.471  53.666  1.00  0.00     0.007 C 
HETATM   17  C1  UNL     1      22.906  -0.573  53.575  1.00  0.00     0.006 C 
ENDBRANCH  15  16
BRANCH  15  18
HETATM   18  C4  UNL     1      21.330   0.306  51.268  1.00  0.00     0.176 C 
BRANCH  18  19
HETATM   19  O1  UNL     1      19.930   0.240  51.140  1.00  0.00    -0.395 OA
HETATM   20  C5  UNL     1      19.372   1.091  50.248  1.00  0.00     0.201 C 
ENDBRANCH  18  19
ENDBRANCH  15  18
ENDBRANCH  13  15
ENDBRANCH   8  13
ENDBRANCH   1   7
BRANCH   6  21
HETATM   21  N3  UNL     1      24.574   5.365  49.501  1.00  0.00    -0.340 N 
HETATM   22  H22 UNL     1      24.387   5.548  50.530  1.00  0.00     0.167 HD
BRANCH  21  23
HETATM   23  C16 UNL     1      25.598   6.128  48.809  1.00  0.00     0.034 A 
HETATM   24  C17 UNL     1      25.453   7.353  48.188  1.00  0.00     0.029 A 
HETATM   25  C18 UNL     1      26.561   7.909  47.589  1.00  0.00     0.003 A 
HETATM   26  C19 UNL     1      27.787   7.287  47.592  1.00  0.00     0.007 A 
HETATM   27  C20 UNL     1      27.967   6.048  48.211  1.00  0.00    -0.060 A 
HETATM   28  C21 UNL     1      29.284   5.368  48.222  1.00  0.00     0.048 C 
HETATM   29  C22 UNL     1      26.833   5.495  48.815  1.00  0.00     0.036 A 
ENDBRANCH  21  23
ENDBRANCH   6  21
TORSDOF 8
ENDMDL
