MODEL 1
REMARK VINA RESULT:      -8.0      0.000      0.000
REMARK  4 active torsions:
REMARK  status: ('A' for Active; 'I' for Inactive)
REMARK    1  A    between atoms: C4_4  and  C5_5 
REMARK    2  A    between atoms: C5_5  and  C6_6 
REMARK    3  A    between atoms: C12_13  and  N1_14 
REMARK    4  A    between atoms: N1_14  and  C13_15 
ROOT
HETATM    1  C1  UNL     1      21.009  -1.115  54.246  1.00  0.00     0.048 C 
HETATM    2  C2  UNL     1      22.143  -0.334  53.723  1.00  0.00    -0.063 A 
HETATM    3  C3  UNL     1      22.097   0.917  53.234  1.00  0.00    -0.009 A 
HETATM    4  C4  UNL     1      23.382   1.460  52.778  1.00  0.00     0.063 A 
HETATM    5  C12 UNL     1      24.280   0.280  53.079  1.00  0.00     0.019 A 
HETATM    6  C17 UNL     1      23.534  -0.697  53.608  1.00  0.00     0.032 A 
ENDROOT
BRANCH   4   7
HETATM    7  C5  UNL     1      23.526   1.689  51.322  1.00  0.00     0.053 C 
BRANCH   7   8
HETATM    8  C6  UNL     1      24.154   2.931  50.886  1.00  0.00    -0.054 A 
HETATM    9  C7  UNL     1      23.731   4.243  51.114  1.00  0.00     0.007 A 
HETATM   10  C8  UNL     1      24.461   5.278  50.625  1.00  0.00     0.003 A 
HETATM   11  C9  UNL     1      25.626   5.075  49.899  1.00  0.00     0.042 A 
HETATM   12  C10 UNL     1      26.094   3.803  49.642  1.00  0.00     0.116 A 
HETATM   13  F1  UNL     1      27.228   3.583  48.936  1.00  0.00    -0.206 F 
HETATM   14  C11 UNL     1      25.330   2.770  50.152  1.00  0.00     0.049 A 
ENDBRANCH   7   8
ENDBRANCH   4   7
BRANCH   5  15
HETATM   15  N1  UNL     1      25.675   0.281  52.811  1.00  0.00    -0.344 N 
HETATM   16  H12 UNL     1      26.074   0.025  51.865  1.00  0.00     0.167 HD
BRANCH  15  17
HETATM   17  C13 UNL     1      26.885   0.557  53.498  1.00  0.00     0.130 A 
HETATM   18  C14 UNL     1      27.347   1.817  53.115  1.00  0.00     0.070 A 
HETATM   19  C15 UNL     1      28.528   2.352  53.638  1.00  0.00     0.122 A 
HETATM   20  N2  UNL     1      29.219   1.604  54.540  1.00  0.00    -0.254 NA
HETATM   21  C16 UNL     1      28.754   0.402  54.890  1.00  0.00     0.234 A 
HETATM   22  N3  UNL     1      27.622  -0.131  54.398  1.00  0.00    -0.225 NA
ENDBRANCH  15  17
ENDBRANCH   5  15
TORSDOF 4
ENDMDL
MODEL 2
REMARK VINA RESULT:      -8.0      2.630      5.282
REMARK  4 active torsions:
REMARK  status: ('A' for Active; 'I' for Inactive)
REMARK    1  A    between atoms: C4_4  and  C5_5 
REMARK    2  A    between atoms: C5_5  and  C6_6 
REMARK    3  A    between atoms: C12_13  and  N1_14 
REMARK    4  A    between atoms: N1_14  and  C13_15 
ROOT
HETATM    1  C1  UNL     1      23.173   4.341  48.358  1.00  0.00     0.048 C 
HETATM    2  C2  UNL     1      23.595   3.548  49.525  1.00  0.00    -0.063 A 
HETATM    3  C3  UNL     1      22.949   2.495  50.054  1.00  0.00    -0.009 A 
HETATM    4  C4  UNL     1      23.595   1.885  51.222  1.00  0.00     0.063 A 
HETATM    5  C12 UNL     1      24.812   2.777  51.337  1.00  0.00     0.019 A 
HETATM    6  C17 UNL     1      24.762   3.691  50.361  1.00  0.00     0.032 A 
ENDROOT
BRANCH   4   7
HETATM    7  C5  UNL     1      22.892   2.026  52.519  1.00  0.00     0.053 C 
BRANCH   7   8
HETATM    8  C6  UNL     1      22.419   0.811  53.172  1.00  0.00    -0.054 A 
HETATM    9  C7  UNL     1      23.169  -0.176  53.816  1.00  0.00     0.007 A 
HETATM   10  C8  UNL     1      22.540  -1.242  54.372  1.00  0.00     0.003 A 
HETATM   11  C9  UNL     1      21.161  -1.386  54.324  1.00  0.00     0.042 A 
HETATM   12  C10 UNL     1      20.366  -0.445  53.702  1.00  0.00     0.116 A 
HETATM   13  F1  UNL     1      19.019  -0.565  53.643  1.00  0.00    -0.206 F 
HETATM   14  C11 UNL     1      21.036   0.629  53.145  1.00  0.00     0.049 A 
ENDBRANCH   7   8
ENDBRANCH   4   7
BRANCH   5  15
HETATM   15  N1  UNL     1      25.798   2.614  52.346  1.00  0.00    -0.344 N 
HETATM   16  H12 UNL     1      26.347   3.426  52.745  1.00  0.00     0.167 HD
BRANCH  15  17
HETATM   17  C13 UNL     1      26.369   1.562  53.108  1.00  0.00     0.130 A 
HETATM   18  C14 UNL     1      26.701   0.511  52.252  1.00  0.00     0.070 A 
HETATM   19  C15 UNL     1      27.287  -0.665  52.731  1.00  0.00     0.122 A 
HETATM   20  N2  UNL     1      27.525  -0.756  54.068  1.00  0.00    -0.254 NA
HETATM   21  C16 UNL     1      27.199   0.265  54.864  1.00  0.00     0.234 A 
HETATM   22  N3  UNL     1      26.635   1.403  54.423  1.00  0.00    -0.225 NA
ENDBRANCH  15  17
ENDBRANCH   5  15
TORSDOF 4
ENDMDL
MODEL 3
REMARK VINA RESULT:      -7.8      2.164      4.998
REMARK  4 active torsions:
REMARK  status: ('A' for Active; 'I' for Inactive)
REMARK    1  A    between atoms: C4_4  and  C5_5 
REMARK    2  A    between atoms: C5_5  and  C6_6 
REMARK    3  A    between atoms: C12_13  and  N1_14 
REMARK    4  A    between atoms: N1_14  and  C13_15 
ROOT
HETATM    1  C1  UNL     1      25.726   5.922  48.740  1.00  0.00     0.048 C 
HETATM    2  C2  UNL     1      25.579   4.651  49.468  1.00  0.00    -0.063 A 
HETATM    3  C3  UNL     1      24.436   3.977  49.682  1.00  0.00    -0.009 A 
HETATM    4  C4  UNL     1      24.576   2.729  50.442  1.00  0.00     0.063 A 
HETATM    5  C12 UNL     1      26.071   2.739  50.676  1.00  0.00     0.019 A 
HETATM    6  C17 UNL     1      26.583   3.837  50.109  1.00  0.00     0.032 A 
ENDROOT
BRANCH   4   7
HETATM    7  C5  UNL     1      23.976   2.706  51.796  1.00  0.00     0.053 C 
BRANCH   7   8
HETATM    8  C6  UNL     1      23.100   1.590  52.134  1.00  0.00    -0.054 A 
HETATM    9  C7  UNL     1      21.922   1.190  51.499  1.00  0.00     0.007 A 
HETATM   10  C8  UNL     1      21.241   0.111  51.964  1.00  0.00     0.003 A 
HETATM   11  C9  UNL     1      21.680  -0.615  53.062  1.00  0.00     0.042 A 
HETATM   12  C10 UNL     1      22.836  -0.268  53.731  1.00  0.00     0.116 A 
HETATM   13  F1  UNL     1      23.283  -0.962  54.803  1.00  0.00    -0.206 F 
HETATM   14  C11 UNL     1      23.507   0.834  53.233  1.00  0.00     0.049 A 
ENDBRANCH   7   8
ENDBRANCH   4   7
BRANCH   5  15
HETATM   15  N1  UNL     1      26.747   1.717  51.396  1.00  0.00    -0.344 N 
HETATM   16  H12 UNL     1      26.749   0.706  51.085  1.00  0.00     0.167 HD
BRANCH  15  17
HETATM   17  C13 UNL     1      27.539   1.594  52.566  1.00  0.00     0.130 A 
HETATM   18  C14 UNL     1      27.055   0.533  53.332  1.00  0.00     0.070 A 
HETATM   19  C15 UNL     1      27.648   0.179  54.548  1.00  0.00     0.122 A 
HETATM   20  N2  UNL     1      28.720   0.904  54.966  1.00  0.00    -0.254 NA
HETATM   21  C16 UNL     1      29.164   1.914  54.214  1.00  0.00     0.234 A 
HETATM   22  N3  UNL     1      28.607   2.271  53.043  1.00  0.00    -0.225 NA
ENDBRANCH  15  17
ENDBRANCH   5  15
TORSDOF 4
ENDMDL
MODEL 4
REMARK VINA RESULT:      -7.8      2.639      4.948
REMARK  4 active torsions:
REMARK  status: ('A' for Active; 'I' for Inactive)
REMARK    1  A    between atoms: C4_4  and  C5_5 
REMARK    2  A    between atoms: C5_5  and  C6_6 
REMARK    3  A    between atoms: C12_13  and  N1_14 
REMARK    4  A    between atoms: N1_14  and  C13_15 
ROOT
HETATM    1  C1  UNL     1      19.686  -0.695  53.537  1.00  0.00     0.048 C 
HETATM    2  C2  UNL     1      21.082  -0.285  53.316  1.00  0.00    -0.063 A 
HETATM    3  C3  UNL     1      22.159  -1.089  53.290  1.00  0.00    -0.009 A 
HETATM    4  C4  UNL     1      23.440  -0.414  53.048  1.00  0.00     0.063 A 
HETATM    5  C12 UNL     1      22.958   1.014  52.921  1.00  0.00     0.019 A 
HETATM    6  C17 UNL     1      21.629   1.029  53.079  1.00  0.00     0.032 A 
ENDROOT
BRANCH   4   7
HETATM    7  C5  UNL     1      24.403  -0.396  54.173  1.00  0.00     0.053 C 
BRANCH   7   8
HETATM    8  C6  UNL     1      25.818  -0.565  53.862  1.00  0.00    -0.054 A 
HETATM    9  C7  UNL     1      26.396  -1.323  52.842  1.00  0.00     0.007 A 
HETATM   10  C8  UNL     1      27.747  -1.353  52.710  1.00  0.00     0.003 A 
HETATM   11  C9  UNL     1      28.582  -0.648  53.565  1.00  0.00     0.042 A 
HETATM   12  C10 UNL     1      28.070   0.118  54.592  1.00  0.00     0.116 A 
HETATM   13  F1  UNL     1      28.866   0.813  55.437  1.00  0.00    -0.206 F 
HETATM   14  C11 UNL     1      26.692   0.128  54.700  1.00  0.00     0.049 A 
ENDBRANCH   7   8
ENDBRANCH   4   7
BRANCH   5  15
HETATM   15  N1  UNL     1      23.832   2.107  52.681  1.00  0.00    -0.344 N 
HETATM   16  H12 UNL     1      24.237   2.696  53.461  1.00  0.00     0.167 HD
BRANCH  15  17
HETATM   17  C13 UNL     1      24.428   2.762  51.573  1.00  0.00     0.130 A 
HETATM   18  C14 UNL     1      25.787   2.447  51.537  1.00  0.00     0.070 A 
HETATM   19  C15 UNL     1      26.630   2.955  50.543  1.00  0.00     0.122 A 
HETATM   20  N2  UNL     1      26.082   3.773  49.604  1.00  0.00    -0.254 NA
HETATM   21  C16 UNL     1      24.778   4.057  49.661  1.00  0.00     0.234 A 
HETATM   22  N3  UNL     1      23.952   3.580  50.608  1.00  0.00    -0.225 NA
ENDBRANCH  15  17
ENDBRANCH   5  15
TORSDOF 4
ENDMDL
MODEL 5
REMARK VINA RESULT:      -7.7      2.360      5.702
REMARK  4 active torsions:
REMARK  status: ('A' for Active; 'I' for Inactive)
REMARK    1  A    between atoms: C4_4  and  C5_5 
REMARK    2  A    between atoms: C5_5  and  C6_6 
REMARK    3  A    between atoms: C12_13  and  N1_14 
REMARK    4  A    between atoms: N1_14  and  C13_15 
ROOT
HETATM    1  C1  UNL     1      23.329   4.404  49.200  1.00  0.00     0.048 C 
HETATM    2  C2  UNL     1      23.929   3.501  50.197  1.00  0.00    -0.063 A 
HETATM    3  C3  UNL     1      25.167   3.588  50.714  1.00  0.00    -0.009 A 
HETATM    4  C4  UNL     1      25.511   2.552  51.695  1.00  0.00     0.063 A 
HETATM    5  C12 UNL     1      24.217   1.768  51.704  1.00  0.00     0.019 A 
HETATM    6  C17 UNL     1      23.365   2.343  50.847  1.00  0.00     0.032 A 
ENDROOT
BRANCH   4   7
HETATM    7  C5  UNL     1      26.548   1.575  51.292  1.00  0.00     0.053 C 
BRANCH   7   8
HETATM    8  C6  UNL     1      27.359   0.970  52.343  1.00  0.00    -0.054 A 
HETATM    9  C7  UNL     1      27.447  -0.377  52.704  1.00  0.00     0.007 A 
HETATM   10  C8  UNL     1      28.269  -0.748  53.719  1.00  0.00     0.003 A 
HETATM   11  C9  UNL     1      29.033   0.175  54.417  1.00  0.00     0.042 A 
HETATM   12  C10 UNL     1      28.989   1.519  54.108  1.00  0.00     0.116 A 
HETATM   13  F1  UNL     1      29.727   2.436  54.776  1.00  0.00    -0.206 F 
HETATM   14  C11 UNL     1      28.143   1.866  53.071  1.00  0.00     0.049 A 
ENDBRANCH   7   8
ENDBRANCH   4   7
BRANCH   5  15
HETATM   15  N1  UNL     1      24.016   0.616  52.511  1.00  0.00    -0.344 N 
HETATM   16  H12 UNL     1      24.798  -0.054  52.754  1.00  0.00     0.167 HD
BRANCH  15  17
HETATM   17  C13 UNL     1      22.952  -0.021  53.200  1.00  0.00     0.130 A 
HETATM   18  C14 UNL     1      23.476  -0.753  54.266  1.00  0.00     0.070 A 
HETATM   19  C15 UNL     1      22.651  -1.486  55.125  1.00  0.00     0.122 A 
HETATM   20  N2  UNL     1      21.312  -1.466  54.888  1.00  0.00    -0.254 NA
HETATM   21  C16 UNL     1      20.837  -0.757  53.862  1.00  0.00     0.234 A 
HETATM   22  N3  UNL     1      21.612  -0.046  53.024  1.00  0.00    -0.225 NA
ENDBRANCH  15  17
ENDBRANCH   5  15
TORSDOF 4
ENDMDL
MODEL 6
REMARK VINA RESULT:      -7.7      2.679      6.078
REMARK  4 active torsions:
REMARK  status: ('A' for Active; 'I' for Inactive)
REMARK    1  A    between atoms: C4_4  and  C5_5 
REMARK    2  A    between atoms: C5_5  and  C6_6 
REMARK    3  A    between atoms: C12_13  and  N1_14 
REMARK    4  A    between atoms: N1_14  and  C13_15 
ROOT
HETATM    1  C1  UNL     1      29.590   0.305  53.667  1.00  0.00     0.048 C 
HETATM    2  C2  UNL     1      28.167   0.682  53.701  1.00  0.00    -0.063 A 
HETATM    3  C3  UNL     1      27.142  -0.093  54.097  1.00  0.00    -0.009 A 
HETATM    4  C4  UNL     1      25.818   0.536  54.031  1.00  0.00     0.063 A 
HETATM    5  C12 UNL     1      26.208   1.899  53.503  1.00  0.00     0.019 A 
HETATM    6  C17 UNL     1      27.535   1.927  53.337  1.00  0.00     0.032 A 
ENDROOT
BRANCH   4   7
HETATM    7  C5  UNL     1      24.874  -0.008  53.027  1.00  0.00     0.053 C 
BRANCH   7   8
HETATM    8  C6  UNL     1      23.517  -0.315  53.465  1.00  0.00    -0.054 A 
HETATM    9  C7  UNL     1      23.109  -0.998  54.613  1.00  0.00     0.007 A 
HETATM   10  C8  UNL     1      21.786  -1.183  54.850  1.00  0.00     0.003 A 
HETATM   11  C9  UNL     1      20.813  -0.711  53.981  1.00  0.00     0.042 A 
HETATM   12  C10 UNL     1      21.153  -0.029  52.831  1.00  0.00     0.116 A 
HETATM   13  F1  UNL     1      20.220   0.440  51.969  1.00  0.00    -0.206 F 
HETATM   14  C11 UNL     1      22.508   0.143  52.617  1.00  0.00     0.049 A 
ENDBRANCH   7   8
ENDBRANCH   4   7
BRANCH   5  15
HETATM   15  N1  UNL     1      25.263   2.928  53.244  1.00  0.00    -0.344 N 
HETATM   16  H12 UNL     1      25.008   3.663  53.962  1.00  0.00     0.167 HD
BRANCH  15  17
HETATM   17  C13 UNL     1      24.428   3.355  52.180  1.00  0.00     0.130 A 
HETATM   18  C14 UNL     1      23.474   4.242  52.680  1.00  0.00     0.070 A 
HETATM   19  C15 UNL     1      22.514   4.827  51.849  1.00  0.00     0.122 A 
HETATM   20  N2  UNL     1      22.535   4.503  50.528  1.00  0.00    -0.254 NA
HETATM   21  C16 UNL     1      23.459   3.651  50.076  1.00  0.00     0.234 A 
HETATM   22  N3  UNL     1      24.390   3.078  50.858  1.00  0.00    -0.225 NA
ENDBRANCH  15  17
ENDBRANCH   5  15
TORSDOF 4
ENDMDL
MODEL 7
REMARK VINA RESULT:      -7.5      2.713      5.356
REMARK  4 active torsions:
REMARK  status: ('A' for Active; 'I' for Inactive)
REMARK    1  A    between atoms: C4_4  and  C5_5 
REMARK    2  A    between atoms: C5_5  and  C6_6 
REMARK    3  A    between atoms: C12_13  and  N1_14 
REMARK    4  A    between atoms: N1_14  and  C13_15 
ROOT
HETATM    1  C1  UNL     1      22.080  -0.973  54.940  1.00  0.00     0.048 C 
HETATM    2  C2  UNL     1      23.002  -0.370  53.963  1.00  0.00    -0.063 A 
HETATM    3  C3  UNL     1      24.311  -0.643  53.823  1.00  0.00    -0.009 A 
HETATM    4  C4  UNL     1      24.998   0.106  52.764  1.00  0.00     0.063 A 
HETATM    5  C12 UNL     1      23.841   0.930  52.242  1.00  0.00     0.019 A 
HETATM    6  C17 UNL     1      22.747   0.624  52.949  1.00  0.00     0.032 A 
ENDROOT
BRANCH   4   7
HETATM    7  C5  UNL     1      26.008   1.097  53.200  1.00  0.00     0.053 C 
BRANCH   7   8
HETATM    8  C6  UNL     1      27.386   0.643  53.350  1.00  0.00    -0.054 A 
HETATM    9  C7  UNL     1      28.517   1.397  53.673  1.00  0.00     0.007 A 
HETATM   10  C8  UNL     1      29.726   0.787  53.771  1.00  0.00     0.003 A 
HETATM   11  C9  UNL     1      29.878  -0.576  53.559  1.00  0.00     0.042 A 
HETATM   12  C10 UNL     1      28.798  -1.373  53.237  1.00  0.00     0.116 A 
HETATM   13  F1  UNL     1      28.924  -2.704  53.026  1.00  0.00    -0.206 F 
HETATM   14  C11 UNL     1      27.582  -0.723  53.145  1.00  0.00     0.049 A 
ENDBRANCH   7   8
ENDBRANCH   4   7
BRANCH   5  15
HETATM   15  N1  UNL     1      23.974   1.862  51.177  1.00  0.00    -0.344 N 
HETATM   16  H12 UNL     1      24.091   1.563  50.169  1.00  0.00     0.167 HD
BRANCH  15  17
HETATM   17  C13 UNL     1      24.002   3.269  50.999  1.00  0.00     0.130 A 
HETATM   18  C14 UNL     1      24.563   3.558  49.755  1.00  0.00     0.070 A 
HETATM   19  C15 UNL     1      24.716   4.874  49.310  1.00  0.00     0.122 A 
HETATM   20  N2  UNL     1      24.299   5.875  50.132  1.00  0.00    -0.254 NA
HETATM   21  C16 UNL     1      23.764   5.571  51.317  1.00  0.00     0.234 A 
HETATM   22  N3  UNL     1      23.610   4.312  51.764  1.00  0.00    -0.225 NA
ENDBRANCH  15  17
ENDBRANCH   5  15
TORSDOF 4
ENDMDL
MODEL 8
REMARK VINA RESULT:      -7.5      2.617      5.200
REMARK  4 active torsions:
REMARK  status: ('A' for Active; 'I' for Inactive)
REMARK    1  A    between atoms: C4_4  and  C5_5 
REMARK    2  A    between atoms: C5_5  and  C6_6 
REMARK    3  A    between atoms: C12_13  and  N1_14 
REMARK    4  A    between atoms: N1_14  and  C13_15 
ROOT
HETATM    1  C1  UNL     1      22.347   3.029  47.793  1.00  0.00     0.048 C 
HETATM    2  C2  UNL     1      22.916   2.665  49.101  1.00  0.00    -0.063 A 
HETATM    3  C3  UNL     1      22.521   1.653  49.893  1.00  0.00    -0.009 A 
HETATM    4  C4  UNL     1      23.266   1.514  51.151  1.00  0.00     0.063 A 
HETATM    5  C12 UNL     1      24.237   2.663  51.002  1.00  0.00     0.019 A 
HETATM    6  C17 UNL     1      23.998   3.274  49.835  1.00  0.00     0.032 A 
ENDROOT
BRANCH   4   7
HETATM    7  C5  UNL     1      22.520   1.800  52.398  1.00  0.00     0.053 C 
BRANCH   7   8
HETATM    8  C6  UNL     1      21.816   0.696  53.040  1.00  0.00    -0.054 A 
HETATM    9  C7  UNL     1      20.480   0.316  52.890  1.00  0.00     0.007 A 
HETATM   10  C8  UNL     1      20.005  -0.754  53.578  1.00  0.00     0.003 A 
HETATM   11  C9  UNL     1      20.811  -1.491  54.434  1.00  0.00     0.042 A 
HETATM   12  C10 UNL     1      22.138  -1.164  54.624  1.00  0.00     0.116 A 
HETATM   13  F1  UNL     1      22.941  -1.869  55.454  1.00  0.00    -0.206 F 
HETATM   14  C11 UNL     1      22.592  -0.070  53.910  1.00  0.00     0.049 A 
ENDBRANCH   7   8
ENDBRANCH   4   7
BRANCH   5  15
HETATM   15  N1  UNL     1      25.212   2.985  51.984  1.00  0.00    -0.344 N 
HETATM   16  H12 UNL     1      25.263   3.935  52.448  1.00  0.00     0.167 HD
BRANCH  15  17
HETATM   17  C13 UNL     1      26.296   2.354  52.645  1.00  0.00     0.130 A 
HETATM   18  C14 UNL     1      25.812   1.672  53.762  1.00  0.00     0.070 A 
HETATM   19  C15 UNL     1      26.665   0.953  54.606  1.00  0.00     0.122 A 
HETATM   20  N2  UNL     1      27.991   0.937  54.305  1.00  0.00    -0.254 NA
HETATM   21  C16 UNL     1      28.428   1.597  53.229  1.00  0.00     0.234 A 
HETATM   22  N3  UNL     1      27.625   2.295  52.406  1.00  0.00    -0.225 NA
ENDBRANCH  15  17
ENDBRANCH   5  15
TORSDOF 4
ENDMDL
MODEL 9
REMARK VINA RESULT:      -7.3      2.557      5.357
REMARK  4 active torsions:
REMARK  status: ('A' for Active; 'I' for Inactive)
REMARK    1  A    between atoms: C4_4  and  C5_5 
REMARK    2  A    between atoms: C5_5  and  C6_6 
REMARK    3  A    between atoms: C12_13  and  N1_14 
REMARK    4  A    between atoms: N1_14  and  C13_15 
ROOT
HETATM    1  C1  UNL     1      20.587  -0.401  54.080  1.00  0.00     0.048 C 
HETATM    2  C2  UNL     1      21.904  -0.074  53.509  1.00  0.00    -0.063 A 
HETATM    3  C3  UNL     1      23.072  -0.676  53.793  1.00  0.00    -0.009 A 
HETATM    4  C4  UNL     1      24.240  -0.149  53.076  1.00  0.00     0.063 A 
HETATM    5  C12 UNL     1      23.571   0.934  52.259  1.00  0.00     0.019 A 
HETATM    6  C17 UNL     1      22.262   0.932  52.540  1.00  0.00     0.032 A 
ENDROOT
BRANCH   4   7
HETATM    7  C5  UNL     1      25.255   0.558  53.891  1.00  0.00     0.053 C 
BRANCH   7   8
HETATM    8  C6  UNL     1      26.648   0.153  53.745  1.00  0.00    -0.054 A 
HETATM    9  C7  UNL     1      27.155  -1.022  53.184  1.00  0.00     0.007 A 
HETATM   10  C8  UNL     1      28.498  -1.219  53.136  1.00  0.00     0.003 A 
HETATM   11  C9  UNL     1      29.393  -0.281  53.630  1.00  0.00     0.042 A 
HETATM   12  C10 UNL     1      28.953   0.898  54.195  1.00  0.00     0.116 A 
HETATM   13  F1  UNL     1      29.810   1.826  54.683  1.00  0.00    -0.206 F 
HETATM   14  C11 UNL     1      27.582   1.069  54.230  1.00  0.00     0.049 A 
ENDBRANCH   7   8
ENDBRANCH   4   7
BRANCH   5  15
HETATM   15  N1  UNL     1      24.282   1.780  51.366  1.00  0.00    -0.344 N 
HETATM   16  H12 UNL     1      25.285   1.595  51.081  1.00  0.00     0.167 HD
BRANCH  15  17
HETATM   17  C13 UNL     1      24.051   2.964  50.619  1.00  0.00     0.130 A 
HETATM   18  C14 UNL     1      24.062   4.056  51.487  1.00  0.00     0.070 A 
HETATM   19  C15 UNL     1      23.862   5.360  51.023  1.00  0.00     0.122 A 
HETATM   20  N2  UNL     1      23.653   5.535  49.690  1.00  0.00    -0.254 NA
HETATM   21  C16 UNL     1      23.648   4.472  48.882  1.00  0.00     0.234 A 
HETATM   22  N3  UNL     1      23.839   3.211  49.308  1.00  0.00    -0.225 NA
ENDBRANCH  15  17
ENDBRANCH   5  15
TORSDOF 4
ENDMDL
