MODEL 1
REMARK VINA RESULT:      -7.9      0.000      0.000
REMARK  6 active torsions:
REMARK  status: ('A' for Active; 'I' for Inactive)
REMARK    1  A    between atoms: C2_2  and  N1_3 
REMARK       I    between atoms: N1_3  and  C3_4 
REMARK    2  A    between atoms: C3_4  and  C4_6 
REMARK    3  A    between atoms: C5_7  and  C6_8 
REMARK    4  A    between atoms: C14_17  and  C15_18 
REMARK    5  A    between atoms: C18_21  and  C19_22 
REMARK    6  A    between atoms: C19_22  and  N3_23 
ROOT
HETATM    1  C6  UNL     1      25.549   3.171  50.209  1.00  0.00    -0.028 C 
HETATM    2  C7  UNL     1      24.428   3.258  49.442  1.00  0.00     0.014 C 
HETATM    3  C8  UNL     1      23.023   2.872  49.783  1.00  0.00     0.030 C 
HETATM    4  C9  UNL     1      22.491   2.432  50.960  1.00  0.00     0.035 C 
HETATM    5  N2  UNL     1      22.714   2.811  52.355  1.00  0.00    -0.378 N 
HETATM    6  C10 UNL     1      23.595   1.764  52.832  1.00  0.00     0.128 C 
HETATM    7  C11 UNL     1      22.994   0.407  52.838  1.00  0.00     0.002 C 
HETATM    8  C12 UNL     1      21.941  -0.229  52.271  1.00  0.00    -0.001 C 
HETATM    9  C13 UNL     1      21.234   0.337  51.082  1.00  0.00     0.009 C 
HETATM   10  C14 UNL     1      21.600   1.395  50.310  1.00  0.00    -0.032 C 
HETATM   11  C17 UNL     1      24.969   1.816  52.313  1.00  0.00     0.011 C 
HETATM   12  C18 UNL     1      25.769   2.441  51.466  1.00  0.00    -0.022 C 
HETATM   13  H11 UNL     1      22.413   3.592  53.040  1.00  0.00     0.160 HD
ENDROOT
BRANCH   1  14
HETATM   14  C5  UNL     1      26.595   3.924  49.626  1.00  0.00     0.017 C 
HETATM   15  C4  UNL     1      27.080   4.865  48.872  1.00  0.00     0.075 C 
BRANCH  15  16
HETATM   16  C3  UNL     1      28.405   5.338  48.523  1.00  0.00     0.241 C 
HETATM   17  N1  UNL     1      28.769   6.711  48.722  1.00  0.00    -0.358 N 
HETATM   18  H6  UNL     1      28.119   7.448  49.122  1.00  0.00     0.162 HD
HETATM   19  O1  UNL     1      29.353   4.731  48.049  1.00  0.00    -0.269 OA
BRANCH  17  20
HETATM   20  C2  UNL     1      30.123   7.098  48.343  1.00  0.00     0.118 C 
HETATM   21  C1  UNL     1      30.624   8.272  49.130  1.00  0.00     0.026 C 
ENDBRANCH  17  20
ENDBRANCH  15  16
ENDBRANCH   1  14
BRANCH  12  22
HETATM   22  C19 UNL     1      27.189   2.420  51.812  1.00  0.00     0.308 C 
BRANCH  22  23
HETATM   23  N3  UNL     1      27.312   2.522  53.260  1.00  0.00     0.083 N 
HETATM   24  C20 UNL     1      28.708   2.388  53.670  1.00  0.00     0.307 C 
HETATM   25  H24 UNL     1      27.056   3.513  53.538  1.00  0.00     0.315 HD
ENDBRANCH  22  23
ENDBRANCH  12  22
BRANCH  10  26
HETATM   26  C15 UNL     1      21.243   1.648  48.941  1.00  0.00     0.036 C 
HETATM   27  C16 UNL     1      19.721   1.865  49.102  1.00  0.00     0.010 C 
ENDBRANCH  10  26
TORSDOF 6
ENDMDL
MODEL 2
REMARK VINA RESULT:      -7.5      4.177      8.303
REMARK  6 active torsions:
REMARK  status: ('A' for Active; 'I' for Inactive)
REMARK    1  A    between atoms: C2_2  and  N1_3 
REMARK       I    between atoms: N1_3  and  C3_4 
REMARK    2  A    between atoms: C3_4  and  C4_6 
REMARK    3  A    between atoms: C5_7  and  C6_8 
REMARK    4  A    between atoms: C14_17  and  C15_18 
REMARK    5  A    between atoms: C18_21  and  C19_22 
REMARK    6  A    between atoms: C19_22  and  N3_23 
ROOT
HETATM    1  C6  UNL     1      23.670   0.664  52.795  1.00  0.00    -0.028 C 
HETATM    2  C7  UNL     1      24.258  -0.561  52.878  1.00  0.00     0.014 C 
HETATM    3  C8  UNL     1      25.604  -0.923  53.419  1.00  0.00     0.030 C 
HETATM    4  C9  UNL     1      26.539  -0.152  54.047  1.00  0.00     0.035 C 
HETATM    5  N2  UNL     1      26.440   0.919  55.039  1.00  0.00    -0.378 N 
HETATM    6  C10 UNL     1      26.588   2.114  54.233  1.00  0.00     0.128 C 
HETATM    7  C11 UNL     1      27.907   2.251  53.570  1.00  0.00     0.002 C 
HETATM    8  C12 UNL     1      28.960   1.461  53.250  1.00  0.00    -0.001 C 
HETATM    9  C13 UNL     1      28.842  -0.029  53.231  1.00  0.00     0.009 C 
HETATM   10  C14 UNL     1      27.716  -0.785  53.336  1.00  0.00    -0.032 C 
HETATM   11  C17 UNL     1      25.441   2.434  53.372  1.00  0.00     0.011 C 
HETATM   12  C18 UNL     1      24.265   2.000  52.951  1.00  0.00    -0.022 C 
HETATM   13  H11 UNL     1      26.303   1.023  56.107  1.00  0.00     0.160 HD
ENDROOT
BRANCH   1  14
HETATM   14  C5  UNL     1      22.291   0.522  52.513  1.00  0.00     0.017 C 
HETATM   15  C4  UNL     1      21.108   0.013  52.685  1.00  0.00     0.075 C 
BRANCH  15  16
HETATM   16  C3  UNL     1      19.802   0.191  52.082  1.00  0.00     0.241 C 
HETATM   17  N1  UNL     1      18.640  -0.432  52.648  1.00  0.00    -0.358 N 
HETATM   18  H6  UNL     1      18.656  -1.043  53.515  1.00  0.00     0.162 HD
HETATM   19  O1  UNL     1      19.478   0.830  51.092  1.00  0.00    -0.269 OA
BRANCH  17  20
HETATM   20  C2  UNL     1      17.369  -0.196  51.975  1.00  0.00     0.118 C 
HETATM   21  C1  UNL     1      16.371  -1.283  52.242  1.00  0.00     0.026 C 
ENDBRANCH  17  20
ENDBRANCH  15  16
ENDBRANCH   1  14
BRANCH  12  22
HETATM   22  C19 UNL     1      23.324   3.037  52.535  1.00  0.00     0.308 C 
BRANCH  22  23
HETATM   23  N3  UNL     1      24.030   4.311  52.497  1.00  0.00     0.083 N 
HETATM   24  C20 UNL     1      23.759   5.016  51.246  1.00  0.00     0.307 C 
HETATM   25  H24 UNL     1      23.608   4.937  53.242  1.00  0.00     0.315 HD
ENDBRANCH  22  23
ENDBRANCH  12  22
BRANCH  10  26
HETATM   26  C15 UNL     1      27.507  -2.120  52.848  1.00  0.00     0.036 C 
HETATM   27  C16 UNL     1      28.890  -2.735  53.162  1.00  0.00     0.010 C 
ENDBRANCH  10  26
TORSDOF 6
ENDMDL
MODEL 3
REMARK VINA RESULT:      -7.5      4.069      9.044
REMARK  6 active torsions:
REMARK  status: ('A' for Active; 'I' for Inactive)
REMARK    1  A    between atoms: C2_2  and  N1_3 
REMARK       I    between atoms: N1_3  and  C3_4 
REMARK    2  A    between atoms: C3_4  and  C4_6 
REMARK    3  A    between atoms: C5_7  and  C6_8 
REMARK    4  A    between atoms: C14_17  and  C15_18 
REMARK    5  A    between atoms: C18_21  and  C19_22 
REMARK    6  A    between atoms: C19_22  and  N3_23 
ROOT
HETATM    1  C6  UNL     1      21.960   0.535  52.362  1.00  0.00    -0.028 C 
HETATM    2  C7  UNL     1      22.922  -0.055  53.124  1.00  0.00     0.014 C 
HETATM    3  C8  UNL     1      24.307   0.422  53.425  1.00  0.00     0.030 C 
HETATM    4  C9  UNL     1      24.925   1.595  53.103  1.00  0.00     0.035 C 
HETATM    5  N2  UNL     1      24.466   2.984  53.069  1.00  0.00    -0.378 N 
HETATM    6  C10 UNL     1      24.214   3.201  51.658  1.00  0.00     0.128 C 
HETATM    7  C11 UNL     1      25.418   3.117  50.796  1.00  0.00     0.002 C 
HETATM    8  C12 UNL     1      26.677   2.623  50.872  1.00  0.00    -0.001 C 
HETATM    9  C13 UNL     1      27.062   1.622  51.913  1.00  0.00     0.009 C 
HETATM   10  C14 UNL     1      26.253   0.947  52.772  1.00  0.00    -0.032 C 
HETATM   11  C17 UNL     1      23.033   2.511  51.119  1.00  0.00     0.011 C 
HETATM   12  C18 UNL     1      22.074   1.649  51.409  1.00  0.00    -0.022 C 
HETATM   13  H11 UNL     1      24.292   3.796  53.761  1.00  0.00     0.160 HD
ENDROOT
BRANCH   1  14
HETATM   14  C5  UNL     1      20.710  -0.085  52.593  1.00  0.00     0.017 C 
HETATM   15  C4  UNL     1      19.714  -0.472  53.334  1.00  0.00     0.075 C 
BRANCH  15  16
HETATM   16  C3  UNL     1      18.469  -1.179  53.114  1.00  0.00     0.241 C 
HETATM   17  N1  UNL     1      18.195  -2.413  53.794  1.00  0.00    -0.358 N 
HETATM   18  H6  UNL     1      18.860  -2.874  54.480  1.00  0.00     0.162 HD
HETATM   19  O1  UNL     1      17.525  -0.896  52.391  1.00  0.00    -0.269 OA
BRANCH  17  20
HETATM   20  C2  UNL     1      16.917  -3.055  53.511  1.00  0.00     0.118 C 
HETATM   21  C1  UNL     1      17.027  -4.550  53.464  1.00  0.00     0.026 C 
ENDBRANCH  17  20
ENDBRANCH  15  16
ENDBRANCH   1  14
BRANCH  12  22
HETATM   22  C19 UNL     1      20.844   1.792  50.632  1.00  0.00     0.308 C 
BRANCH  22  23
HETATM   23  N3  UNL     1      20.442   3.193  50.660  1.00  0.00     0.083 N 
HETATM   24  C20 UNL     1      19.479   3.432  51.731  1.00  0.00     0.307 C 
HETATM   25  H24 UNL     1      21.289   3.767  50.941  1.00  0.00     0.315 HD
ENDBRANCH  22  23
ENDBRANCH  12  22
BRANCH  10  26
HETATM   26  C15 UNL     1      26.505  -0.318  53.406  1.00  0.00     0.036 C 
HETATM   27  C16 UNL     1      28.051  -0.315  53.392  1.00  0.00     0.010 C 
ENDBRANCH  10  26
TORSDOF 6
ENDMDL
MODEL 4
REMARK VINA RESULT:      -7.4      3.737      5.637
REMARK  6 active torsions:
REMARK  status: ('A' for Active; 'I' for Inactive)
REMARK    1  A    between atoms: C2_2  and  N1_3 
REMARK       I    between atoms: N1_3  and  C3_4 
REMARK    2  A    between atoms: C3_4  and  C4_6 
REMARK    3  A    between atoms: C5_7  and  C6_8 
REMARK    4  A    between atoms: C14_17  and  C15_18 
REMARK    5  A    between atoms: C18_21  and  C19_22 
REMARK    6  A    between atoms: C19_22  and  N3_23 
ROOT
HETATM    1  C6  UNL     1      23.268   1.177  51.783  1.00  0.00    -0.028 C 
HETATM    2  C7  UNL     1      22.172   0.378  51.893  1.00  0.00     0.014 C 
HETATM    3  C8  UNL     1      20.986   0.279  50.987  1.00  0.00     0.030 C 
HETATM    4  C9  UNL     1      20.741   0.881  49.787  1.00  0.00     0.035 C 
HETATM    5  N2  UNL     1      21.587   1.173  48.630  1.00  0.00    -0.378 N 
HETATM    6  C10 UNL     1      21.899   2.577  48.809  1.00  0.00     0.128 C 
HETATM    7  C11 UNL     1      20.727   3.483  48.734  1.00  0.00     0.002 C 
HETATM    8  C12 UNL     1      19.378   3.393  48.819  1.00  0.00    -0.001 C 
HETATM    9  C13 UNL     1      18.711   2.195  49.415  1.00  0.00     0.009 C 
HETATM   10  C14 UNL     1      19.283   1.160  50.086  1.00  0.00    -0.032 C 
HETATM   11  C17 UNL     1      22.828   2.877  49.908  1.00  0.00     0.011 C 
HETATM   12  C18 UNL     1      23.491   2.348  50.922  1.00  0.00    -0.022 C 
HETATM   13  H11 UNL     1      21.988   0.655  47.769  1.00  0.00     0.160 HD
ENDROOT
BRANCH   1  14
HETATM   14  C5  UNL     1      24.280   0.736  52.668  1.00  0.00     0.017 C 
HETATM   15  C4  UNL     1      24.813  -0.090  53.518  1.00  0.00     0.075 C 
BRANCH  15  16
HETATM   16  C3  UNL     1      26.043  -0.145  54.283  1.00  0.00     0.241 C 
HETATM   17  N1  UNL     1      27.301   0.175  53.673  1.00  0.00    -0.358 N 
HETATM   18  H6  UNL     1      27.415   0.463  52.658  1.00  0.00     0.162 HD
HETATM   19  O1  UNL     1      26.223  -0.441  55.454  1.00  0.00    -0.269 OA
BRANCH  17  20
HETATM   20  C2  UNL     1      28.486   0.092  54.518  1.00  0.00     0.118 C 
HETATM   21  C1  UNL     1      29.574  -0.733  53.899  1.00  0.00     0.026 C 
ENDBRANCH  17  20
ENDBRANCH  15  16
ENDBRANCH   1  14
BRANCH  12  22
HETATM   22  C19 UNL     1      24.712   3.051  51.309  1.00  0.00     0.308 C 
BRANCH  22  23
HETATM   23  N3  UNL     1      24.382   4.450  51.551  1.00  0.00     0.083 N 
HETATM   24  C20 UNL     1      23.691   4.604  52.828  1.00  0.00     0.307 C 
HETATM   25  H24 UNL     1      25.291   4.979  51.684  1.00  0.00     0.315 HD
ENDBRANCH  22  23
ENDBRANCH  12  22
BRANCH  10  26
HETATM   26  C15 UNL     1      18.668   0.295  51.055  1.00  0.00     0.036 C 
HETATM   27  C16 UNL     1      17.350  -0.032  50.315  1.00  0.00     0.010 C 
ENDBRANCH  10  26
TORSDOF 6
ENDMDL
MODEL 5
REMARK VINA RESULT:      -7.4      2.422      3.422
REMARK  6 active torsions:
REMARK  status: ('A' for Active; 'I' for Inactive)
REMARK    1  A    between atoms: C2_2  and  N1_3 
REMARK       I    between atoms: N1_3  and  C3_4 
REMARK    2  A    between atoms: C3_4  and  C4_6 
REMARK    3  A    between atoms: C5_7  and  C6_8 
REMARK    4  A    between atoms: C14_17  and  C15_18 
REMARK    5  A    between atoms: C18_21  and  C19_22 
REMARK    6  A    between atoms: C19_22  and  N3_23 
ROOT
HETATM    1  C6  UNL     1      23.231   1.384  51.794  1.00  0.00    -0.028 C 
HETATM    2  C7  UNL     1      22.035   1.718  51.236  1.00  0.00     0.014 C 
HETATM    3  C8  UNL     1      20.654   1.421  51.725  1.00  0.00     0.030 C 
HETATM    4  C9  UNL     1      20.236   0.834  52.884  1.00  0.00     0.035 C 
HETATM    5  N2  UNL     1      20.694   0.933  54.270  1.00  0.00    -0.378 N 
HETATM    6  C10 UNL     1      21.493  -0.266  54.427  1.00  0.00     0.128 C 
HETATM    7  C11 UNL     1      20.732  -1.534  54.307  1.00  0.00     0.002 C 
HETATM    8  C12 UNL     1      19.540  -1.949  53.817  1.00  0.00    -0.001 C 
HETATM    9  C13 UNL     1      18.754  -1.113  52.861  1.00  0.00     0.009 C 
HETATM   10  C14 UNL     1      19.141   0.024  52.222  1.00  0.00    -0.032 C 
HETATM   11  C17 UNL     1      22.778  -0.260  53.715  1.00  0.00     0.011 C 
HETATM   12  C18 UNL     1      23.527   0.422  52.866  1.00  0.00    -0.022 C 
HETATM   13  H11 UNL     1      20.590   1.605  55.111  1.00  0.00     0.160 HD
ENDROOT
BRANCH   1  14
HETATM   14  C5  UNL     1      24.273   2.120  51.183  1.00  0.00     0.017 C 
HETATM   15  C4  UNL     1      24.773   2.921  50.290  1.00  0.00     0.075 C 
BRANCH  15  16
HETATM   16  C3  UNL     1      26.081   3.479  50.010  1.00  0.00     0.241 C 
HETATM   17  N1  UNL     1      26.267   4.408  48.933  1.00  0.00    -0.358 N 
HETATM   18  H6  UNL     1      25.490   4.739  48.291  1.00  0.00     0.162 HD
HETATM   19  O1  UNL     1      27.149   3.288  50.570  1.00  0.00    -0.269 OA
BRANCH  17  20
HETATM   20  C2  UNL     1      27.617   4.918  48.725  1.00  0.00     0.118 C 
HETATM   21  C1  UNL     1      27.630   6.374  48.366  1.00  0.00     0.026 C 
ENDBRANCH  17  20
ENDBRANCH  15  16
ENDBRANCH   1  14
BRANCH  12  22
HETATM   22  C19 UNL     1      24.967   0.197  52.977  1.00  0.00     0.308 C 
BRANCH  22  23
HETATM   23  N3  UNL     1      25.230  -0.500  54.229  1.00  0.00     0.083 N 
HETATM   24  C20 UNL     1      26.373   0.090  54.919  1.00  0.00     0.307 C 
HETATM   25  H24 UNL     1      24.412  -0.317  54.879  1.00  0.00     0.315 HD
ENDBRANCH  22  23
ENDBRANCH  12  22
BRANCH  10  26
HETATM   26  C15 UNL     1      18.634   0.553  50.985  1.00  0.00     0.036 C 
HETATM   27  C16 UNL     1      17.195  -0.009  51.029  1.00  0.00     0.010 C 
ENDBRANCH  10  26
TORSDOF 6
ENDMDL
MODEL 6
REMARK VINA RESULT:      -7.2      2.912      4.476
REMARK  6 active torsions:
REMARK  status: ('A' for Active; 'I' for Inactive)
REMARK    1  A    between atoms: C2_2  and  N1_3 
REMARK       I    between atoms: N1_3  and  C3_4 
REMARK    2  A    between atoms: C3_4  and  C4_6 
REMARK    3  A    between atoms: C5_7  and  C6_8 
REMARK    4  A    between atoms: C14_17  and  C15_18 
REMARK    5  A    between atoms: C18_21  and  C19_22 
REMARK    6  A    between atoms: C19_22  and  N3_23 
ROOT
HETATM    1  C6  UNL     1      26.795   5.663  49.068  1.00  0.00    -0.028 C 
HETATM    2  C7  UNL     1      27.137   4.348  49.148  1.00  0.00     0.014 C 
HETATM    3  C8  UNL     1      26.367   3.211  49.741  1.00  0.00     0.030 C 
HETATM    4  C9  UNL     1      25.105   3.175  50.258  1.00  0.00     0.035 C 
HETATM    5  N2  UNL     1      23.847   3.803  49.853  1.00  0.00    -0.378 N 
HETATM    6  C10 UNL     1      23.748   4.931  50.757  1.00  0.00     0.128 C 
HETATM    7  C11 UNL     1      23.613   4.564  52.188  1.00  0.00     0.002 C 
HETATM    8  C12 UNL     1      23.827   3.482  52.974  1.00  0.00    -0.001 C 
HETATM    9  C13 UNL     1      24.680   2.342  52.518  1.00  0.00     0.009 C 
HETATM   10  C14 UNL     1      25.473   2.272  51.416  1.00  0.00    -0.032 C 
HETATM   11  C17 UNL     1      24.693   6.026  50.499  1.00  0.00     0.011 C 
HETATM   12  C18 UNL     1      25.725   6.396  49.759  1.00  0.00    -0.022 C 
HETATM   13  H11 UNL     1      23.060   3.645  49.127  1.00  0.00     0.160 HD
ENDROOT
BRANCH   1  14
HETATM   14  C5  UNL     1      27.655   6.333  48.166  1.00  0.00     0.017 C 
HETATM   15  C4  UNL     1      28.814   6.649  47.669  1.00  0.00     0.075 C 
BRANCH  15  16
HETATM   16  C3  UNL     1      29.286   7.494  46.590  1.00  0.00     0.241 C 
HETATM   17  N1  UNL     1      30.690   7.714  46.392  1.00  0.00    -0.358 N 
HETATM   18  H6  UNL     1      31.451   7.289  46.997  1.00  0.00     0.162 HD
HETATM   19  O1  UNL     1      28.655   8.109  45.744  1.00  0.00    -0.269 OA
BRANCH  17  20
HETATM   20  C2  UNL     1      31.073   8.578  45.282  1.00  0.00     0.118 C 
HETATM   21  C1  UNL     1      31.790   9.813  45.740  1.00  0.00     0.026 C 
ENDBRANCH  17  20
ENDBRANCH  15  16
ENDBRANCH   1  14
BRANCH  12  22
HETATM   22  C19 UNL     1      25.876   7.837  49.568  1.00  0.00     0.308 C 
BRANCH  22  23
HETATM   23  N3  UNL     1      26.682   8.365  50.661  1.00  0.00     0.083 N 
HETATM   24  C20 UNL     1      27.568   9.424  50.185  1.00  0.00     0.307 C 
HETATM   25  H24 UNL     1      26.029   8.858  51.336  1.00  0.00     0.315 HD
ENDBRANCH  22  23
ENDBRANCH  12  22
BRANCH  10  26
HETATM   26  C15 UNL     1      26.628   1.440  51.216  1.00  0.00     0.036 C 
HETATM   27  C16 UNL     1      26.289   0.283  52.183  1.00  0.00     0.010 C 
ENDBRANCH  10  26
TORSDOF 6
ENDMDL
MODEL 7
REMARK VINA RESULT:      -7.2      3.892      5.059
REMARK  6 active torsions:
REMARK  status: ('A' for Active; 'I' for Inactive)
REMARK    1  A    between atoms: C2_2  and  N1_3 
REMARK       I    between atoms: N1_3  and  C3_4 
REMARK    2  A    between atoms: C3_4  and  C4_6 
REMARK    3  A    between atoms: C5_7  and  C6_8 
REMARK    4  A    between atoms: C14_17  and  C15_18 
REMARK    5  A    between atoms: C18_21  and  C19_22 
REMARK    6  A    between atoms: C19_22  and  N3_23 
ROOT
HETATM    1  C6  UNL     1      23.516   1.526  52.343  1.00  0.00    -0.028 C 
HETATM    2  C7  UNL     1      23.247   2.568  51.509  1.00  0.00     0.014 C 
HETATM    3  C8  UNL     1      21.925   3.050  51.002  1.00  0.00     0.030 C 
HETATM    4  C9  UNL     1      20.660   2.642  51.313  1.00  0.00     0.035 C 
HETATM    5  N2  UNL     1      20.024   2.248  52.570  1.00  0.00    -0.378 N 
HETATM    6  C10 UNL     1      20.033   0.801  52.492  1.00  0.00     0.128 C 
HETATM    7  C11 UNL     1      19.214   0.237  51.391  1.00  0.00     0.002 C 
HETATM    8  C12 UNL     1      18.655   0.664  50.233  1.00  0.00    -0.001 C 
HETATM    9  C13 UNL     1      19.090   1.934  49.576  1.00  0.00     0.009 C 
HETATM   10  C14 UNL     1      20.153   2.722  49.889  1.00  0.00    -0.032 C 
HETATM   11  C17 UNL     1      21.353   0.174  52.648  1.00  0.00     0.011 C 
HETATM   12  C18 UNL     1      22.646   0.421  52.771  1.00  0.00    -0.022 C 
HETATM   13  H11 UNL     1      19.593   2.721  53.443  1.00  0.00     0.160 HD
ENDROOT
BRANCH   1  14
HETATM   14  C5  UNL     1      24.849   1.611  52.810  1.00  0.00     0.017 C 
HETATM   15  C4  UNL     1      26.021   2.163  52.910  1.00  0.00     0.075 C 
BRANCH  15  16
HETATM   16  C3  UNL     1      27.261   1.853  53.594  1.00  0.00     0.241 C 
HETATM   17  N1  UNL     1      27.710   0.497  53.721  1.00  0.00    -0.358 N 
HETATM   18  H6  UNL     1      27.187  -0.342  53.337  1.00  0.00     0.162 HD
HETATM   19  O1  UNL     1      28.065   2.599  54.131  1.00  0.00    -0.269 OA
BRANCH  17  20
HETATM   20  C2  UNL     1      28.968   0.280  54.425  1.00  0.00     0.118 C 
HETATM   21  C1  UNL     1      29.945  -0.522  53.617  1.00  0.00     0.026 C 
ENDBRANCH  17  20
ENDBRANCH  15  16
ENDBRANCH   1  14
BRANCH  12  22
HETATM   22  C19 UNL     1      23.418  -0.605  53.469  1.00  0.00     0.308 C 
BRANCH  22  23
HETATM   23  N3  UNL     1      22.631  -1.085  54.598  1.00  0.00     0.083 N 
HETATM   24  C20 UNL     1      23.500  -1.487  55.701  1.00  0.00     0.307 C 
HETATM   25  H24 UNL     1      22.085  -0.263  54.986  1.00  0.00     0.315 HD
ENDBRANCH  22  23
ENDBRANCH  12  22
BRANCH  10  26
HETATM   26  C15 UNL     1      20.861   3.625  49.024  1.00  0.00     0.036 C 
HETATM   27  C16 UNL     1      19.709   4.045  48.083  1.00  0.00     0.010 C 
ENDBRANCH  10  26
TORSDOF 6
ENDMDL
MODEL 8
REMARK VINA RESULT:      -7.2      2.243      4.047
REMARK  6 active torsions:
REMARK  status: ('A' for Active; 'I' for Inactive)
REMARK    1  A    between atoms: C2_2  and  N1_3 
REMARK       I    between atoms: N1_3  and  C3_4 
REMARK    2  A    between atoms: C3_4  and  C4_6 
REMARK    3  A    between atoms: C5_7  and  C6_8 
REMARK    4  A    between atoms: C14_17  and  C15_18 
REMARK    5  A    between atoms: C18_21  and  C19_22 
REMARK    6  A    between atoms: C19_22  and  N3_23 
ROOT
HETATM    1  C6  UNL     1      24.311   2.801  51.080  1.00  0.00    -0.028 C 
HETATM    2  C7  UNL     1      24.848   1.710  51.691  1.00  0.00     0.014 C 
HETATM    3  C8  UNL     1      24.150   0.543  52.314  1.00  0.00     0.030 C 
HETATM    4  C9  UNL     1      22.824   0.224  52.348  1.00  0.00     0.035 C 
HETATM    5  N2  UNL     1      21.753   0.322  51.356  1.00  0.00    -0.378 N 
HETATM    6  C10 UNL     1      21.056   1.528  51.758  1.00  0.00     0.128 C 
HETATM    7  C11 UNL     1      20.412   1.453  53.092  1.00  0.00     0.002 C 
HETATM    8  C12 UNL     1      20.493   0.688  54.206  1.00  0.00    -0.001 C 
HETATM    9  C13 UNL     1      21.670  -0.196  54.464  1.00  0.00     0.009 C 
HETATM   10  C14 UNL     1      22.848  -0.248  53.786  1.00  0.00    -0.032 C 
HETATM   11  C17 UNL     1      21.778   2.783  51.503  1.00  0.00     0.011 C 
HETATM   12  C18 UNL     1      22.925   3.290  51.086  1.00  0.00    -0.022 C 
HETATM   13  H11 UNL     1      21.393  -0.227  50.496  1.00  0.00     0.160 HD
ENDROOT
BRANCH   1  14
HETATM   14  C5  UNL     1      25.313   3.497  50.364  1.00  0.00     0.017 C 
HETATM   15  C4  UNL     1      26.310   3.589  49.534  1.00  0.00     0.075 C 
BRANCH  15  16
HETATM   16  C3  UNL     1      27.149   4.658  49.032  1.00  0.00     0.241 C 
HETATM   17  N1  UNL     1      26.707   6.022  49.079  1.00  0.00    -0.358 N 
HETATM   18  H6  UNL     1      25.771   6.332  49.471  1.00  0.00     0.162 HD
HETATM   19  O1  UNL     1      28.262   4.609  48.530  1.00  0.00    -0.269 OA
BRANCH  17  20
HETATM   20  C2  UNL     1      27.618   7.031  48.552  1.00  0.00     0.118 C 
HETATM   21  C1  UNL     1      26.954   7.935  47.556  1.00  0.00     0.026 C 
ENDBRANCH  17  20
ENDBRANCH  15  16
ENDBRANCH   1  14
BRANCH  12  22
HETATM   22  C19 UNL     1      22.846   4.630  50.506  1.00  0.00     0.308 C 
BRANCH  22  23
HETATM   23  N3  UNL     1      22.180   5.506  51.461  1.00  0.00     0.083 N 
HETATM   24  C20 UNL     1      21.944   6.823  50.875  1.00  0.00     0.307 C 
HETATM   25  H24 UNL     1      21.207   5.121  51.631  1.00  0.00     0.315 HD
ENDBRANCH  22  23
ENDBRANCH  12  22
BRANCH  10  26
HETATM   26  C15 UNL     1      24.124  -0.696  54.274  1.00  0.00     0.036 C 
HETATM   27  C16 UNL     1      23.679  -1.367  55.594  1.00  0.00     0.010 C 
ENDBRANCH  10  26
TORSDOF 6
ENDMDL
MODEL 9
REMARK VINA RESULT:      -7.2      4.160      9.030
REMARK  6 active torsions:
REMARK  status: ('A' for Active; 'I' for Inactive)
REMARK    1  A    between atoms: C2_2  and  N1_3 
REMARK       I    between atoms: N1_3  and  C3_4 
REMARK    2  A    between atoms: C3_4  and  C4_6 
REMARK    3  A    between atoms: C5_7  and  C6_8 
REMARK    4  A    between atoms: C14_17  and  C15_18 
REMARK    5  A    between atoms: C18_21  and  C19_22 
REMARK    6  A    between atoms: C19_22  and  N3_23 
ROOT
HETATM    1  C6  UNL     1      21.465   0.605  51.837  1.00  0.00    -0.028 C 
HETATM    2  C7  UNL     1      22.242  -0.136  52.673  1.00  0.00     0.014 C 
HETATM    3  C8  UNL     1      23.628   0.142  53.161  1.00  0.00     0.030 C 
HETATM    4  C9  UNL     1      24.424   1.236  52.980  1.00  0.00     0.035 C 
HETATM    5  N2  UNL     1      24.151   2.673  52.968  1.00  0.00    -0.378 N 
HETATM    6  C10 UNL     1      24.105   2.977  51.552  1.00  0.00     0.128 C 
HETATM    7  C11 UNL     1      25.387   2.769  50.835  1.00  0.00     0.002 C 
HETATM    8  C12 UNL     1      26.554   2.111  51.032  1.00  0.00    -0.001 C 
HETATM    9  C13 UNL     1      26.679   1.028  52.054  1.00  0.00     0.009 C 
HETATM   10  C14 UNL     1      25.690   0.432  52.773  1.00  0.00    -0.032 C 
HETATM   11  C17 UNL     1      22.924   2.470  50.840  1.00  0.00     0.011 C 
HETATM   12  C18 UNL     1      21.835   1.731  50.966  1.00  0.00    -0.022 C 
HETATM   13  H11 UNL     1      23.996   3.474  53.679  1.00  0.00     0.160 HD
ENDROOT
BRANCH   1  14
HETATM   14  C5  UNL     1      20.127   0.146  51.884  1.00  0.00     0.017 C 
HETATM   15  C4  UNL     1      19.059  -0.286  52.485  1.00  0.00     0.075 C 
BRANCH  15  16
HETATM   16  C3  UNL     1      17.729  -0.692  52.076  1.00  0.00     0.241 C 
HETATM   17  N1  UNL     1      16.874  -1.415  52.972  1.00  0.00    -0.358 N 
HETATM   18  H6  UNL     1      17.145  -1.693  53.959  1.00  0.00     0.162 HD
HETATM   19  O1  UNL     1      17.149  -0.517  51.014  1.00  0.00    -0.269 OA
BRANCH  17  20
HETATM   20  C2  UNL     1      15.553  -1.781  52.475  1.00  0.00     0.118 C 
HETATM   21  C1  UNL     1      15.332  -3.265  52.477  1.00  0.00     0.026 C 
ENDBRANCH  17  20
ENDBRANCH  15  16
ENDBRANCH   1  14
BRANCH  12  22
HETATM   22  C19 UNL     1      20.739   2.065  50.058  1.00  0.00     0.308 C 
BRANCH  22  23
HETATM   23  N3  UNL     1      21.136   1.702  48.704  1.00  0.00     0.083 N 
HETATM   24  C20 UNL     1      20.711   2.723  47.750  1.00  0.00     0.307 C 
HETATM   25  H24 UNL     1      22.195   1.731  48.658  1.00  0.00     0.315 HD
ENDBRANCH  22  23
ENDBRANCH  12  22
BRANCH  10  26
HETATM   26  C15 UNL     1      25.700  -0.879  53.362  1.00  0.00     0.036 C 
HETATM   27  C16 UNL     1      26.843  -1.525  52.545  1.00  0.00     0.010 C 
ENDBRANCH  10  26
TORSDOF 6
ENDMDL
