MODEL 1
REMARK VINA RESULT:      -8.8      0.000      0.000
REMARK  6 active torsions:
REMARK  status: ('A' for Active; 'I' for Inactive)
REMARK    1  A    between atoms: C2_2  and  C3_3 
REMARK    2  A    between atoms: C3_3  and  C4_5 
REMARK    3  A    between atoms: C5_6  and  C6_7 
REMARK    4  A    between atoms: C12_13  and  C13_14 
REMARK    5  A    between atoms: N2_18  and  C16_19 
REMARK    6  A    between atoms: C17_21  and  O1_22 
ROOT
HETATM    1  C13 UNL     1      24.980   3.458  50.182  1.00  0.00     0.091 C 
HETATM    2  C14 UNL     1      26.295   3.005  49.568  1.00  0.00     0.045 C 
HETATM    3  C15 UNL     1      24.027   3.941  49.151  1.00  0.00     0.145 C 
HETATM    4  N1  UNL     1      24.231   5.228  49.018  1.00  0.00    -0.168 NA
HETATM    5  N2  UNL     1      25.251   5.625  49.885  1.00  0.00    -0.169 N 
HETATM    6  N4  UNL     1      25.285   4.678  50.908  1.00  0.00    -0.195 NA
HETATM    7  H19 UNL     1      26.228   4.554  51.330  1.00  0.00     0.150 HD
ENDROOT
BRANCH   1   8
HETATM    8  C12 UNL     1      24.390   2.425  51.038  1.00  0.00    -0.018 A 
HETATM    9  C6  UNL     1      25.017   1.751  52.062  1.00  0.00    -0.027 A 
HETATM   10  C7  UNL     1      24.419   0.787  52.844  1.00  0.00     0.018 A 
HETATM   11  C8  UNL     1      23.109   0.457  52.608  1.00  0.00    -0.061 A 
HETATM   12  C9  UNL     1      22.403  -0.566  53.405  1.00  0.00     0.048 C 
HETATM   13  C10 UNL     1      22.406   1.075  51.610  1.00  0.00     0.007 A 
HETATM   14  C11 UNL     1      23.058   2.044  50.847  1.00  0.00     0.011 A 
BRANCH   9  15
HETATM   15  C5  UNL     1      26.410   2.086  52.326  1.00  0.00     0.011 C 
HETATM   16  C4  UNL     1      27.251   1.343  53.028  1.00  0.00     0.015 C 
BRANCH  16  17
HETATM   17  C3  UNL     1      28.697   1.615  53.347  1.00  0.00     0.215 C 
HETATM   18  F1  UNL     1      28.814   2.828  53.954  1.00  0.00    -0.241 F 
BRANCH  17  19
HETATM   19  C2  UNL     1      29.177   0.487  54.177  1.00  0.00     0.004 C 
HETATM   20  C1  UNL     1      29.427  -0.722  53.636  1.00  0.00     0.010 C 
ENDBRANCH  17  19
ENDBRANCH  16  17
ENDBRANCH   9  15
ENDBRANCH   1   8
BRANCH   5  21
HETATM   21  C16 UNL     1      26.064   6.786  49.704  1.00  0.00     0.208 A 
HETATM   22  N3  UNL     1      26.211   7.841  50.501  1.00  0.00    -0.197 NA
HETATM   23  C17 UNL     1      27.057   8.763  50.030  1.00  0.00     0.171 A 
HETATM   24  C18 UNL     1      27.788   8.649  48.728  1.00  0.00     0.111 A 
HETATM   25  S1  UNL     1      27.064   6.961  48.247  1.00  0.00    -0.057 SA
BRANCH  23  26
HETATM   26  O1  UNL     1      27.120   9.820  50.968  1.00  0.00    -0.344 OA
HETATM   27  H17 UNL     1      26.413  10.548  50.937  1.00  0.00     0.219 HD
ENDBRANCH  23  26
ENDBRANCH   5  21
TORSDOF 6
ENDMDL
MODEL 2
REMARK VINA RESULT:      -8.5      4.916      6.837
REMARK  6 active torsions:
REMARK  status: ('A' for Active; 'I' for Inactive)
REMARK    1  A    between atoms: C2_2  and  C3_3 
REMARK    2  A    between atoms: C3_3  and  C4_5 
REMARK    3  A    between atoms: C5_6  and  C6_7 
REMARK    4  A    between atoms: C12_13  and  C13_14 
REMARK    5  A    between atoms: N2_18  and  C16_19 
REMARK    6  A    between atoms: C17_21  and  O1_22 
ROOT
HETATM    1  C13 UNL     1      25.254   1.996  51.784  1.00  0.00     0.091 C 
HETATM    2  C14 UNL     1      26.427   2.617  51.042  1.00  0.00     0.045 C 
HETATM    3  C15 UNL     1      25.228   2.399  53.213  1.00  0.00     0.145 C 
HETATM    4  N1  UNL     1      25.921   1.504  53.872  1.00  0.00    -0.168 NA
HETATM    5  N2  UNL     1      26.401   0.544  52.980  1.00  0.00    -0.169 N 
HETATM    6  N4  UNL     1      25.553   0.577  51.874  1.00  0.00    -0.195 NA
HETATM    7  H19 UNL     1      26.017   0.307  50.983  1.00  0.00     0.150 HD
ENDROOT
BRANCH   1   8
HETATM    8  C12 UNL     1      23.978   2.262  51.113  1.00  0.00    -0.018 A 
HETATM    9  C6  UNL     1      22.753   1.721  51.436  1.00  0.00    -0.027 A 
HETATM   10  C7  UNL     1      21.577   2.003  50.777  1.00  0.00     0.018 A 
HETATM   11  C8  UNL     1      21.599   2.880  49.722  1.00  0.00    -0.061 A 
HETATM   12  C9  UNL     1      20.378   3.231  48.969  1.00  0.00     0.048 C 
HETATM   13  C10 UNL     1      22.772   3.467  49.330  1.00  0.00     0.007 A 
HETATM   14  C11 UNL     1      23.935   3.146  50.031  1.00  0.00     0.011 A 
BRANCH   9  15
HETATM   15  C5  UNL     1      22.711   0.785  52.551  1.00  0.00     0.011 C 
HETATM   16  C4  UNL     1      21.652   0.554  53.310  1.00  0.00     0.015 C 
BRANCH  16  17
HETATM   17  C3  UNL     1      21.524  -0.391  54.476  1.00  0.00     0.215 C 
HETATM   18  F1  UNL     1      20.380  -1.120  54.353  1.00  0.00    -0.241 F 
BRANCH  17  19
HETATM   19  C2  UNL     1      22.753  -1.216  54.502  1.00  0.00     0.004 C 
HETATM   20  C1  UNL     1      23.505  -1.312  55.617  1.00  0.00     0.010 C 
ENDBRANCH  17  19
ENDBRANCH  16  17
ENDBRANCH   9  15
ENDBRANCH   1   8
BRANCH   5  21
HETATM   21  C16 UNL     1      27.544  -0.281  53.214  1.00  0.00     0.208 A 
HETATM   22  N3  UNL     1      27.639  -1.608  53.199  1.00  0.00    -0.197 NA
HETATM   23  C17 UNL     1      28.867  -2.067  53.463  1.00  0.00     0.171 A 
HETATM   24  C18 UNL     1      30.049  -1.193  53.753  1.00  0.00     0.111 A 
HETATM   25  S1  UNL     1      29.117   0.453  53.589  1.00  0.00    -0.057 SA
BRANCH  23  26
HETATM   26  O1  UNL     1      28.827  -3.480  53.415  1.00  0.00    -0.344 OA
HETATM   27  H17 UNL     1      29.601  -3.980  52.991  1.00  0.00     0.219 HD
ENDBRANCH  23  26
ENDBRANCH   5  21
TORSDOF 6
ENDMDL
MODEL 3
REMARK VINA RESULT:      -8.3      3.689      6.100
REMARK  6 active torsions:
REMARK  status: ('A' for Active; 'I' for Inactive)
REMARK    1  A    between atoms: C2_2  and  C3_3 
REMARK    2  A    between atoms: C3_3  and  C4_5 
REMARK    3  A    between atoms: C5_6  and  C6_7 
REMARK    4  A    between atoms: C12_13  and  C13_14 
REMARK    5  A    between atoms: N2_18  and  C16_19 
REMARK    6  A    between atoms: C17_21  and  O1_22 
ROOT
HETATM    1  C13 UNL     1      24.059   1.711  52.054  1.00  0.00     0.091 C 
HETATM    2  C14 UNL     1      24.198   2.934  52.946  1.00  0.00     0.045 C 
HETATM    3  C15 UNL     1      23.699   0.498  52.830  1.00  0.00     0.145 C 
HETATM    4  N1  UNL     1      24.823  -0.076  53.182  1.00  0.00    -0.168 NA
HETATM    5  N2  UNL     1      25.895   0.673  52.693  1.00  0.00    -0.169 N 
HETATM    6  N4  UNL     1      25.405   1.396  51.607  1.00  0.00    -0.195 NA
HETATM    7  H19 UNL     1      25.894   2.301  51.453  1.00  0.00     0.150 HD
ENDROOT
BRANCH   1   8
HETATM    8  C12 UNL     1      23.136   1.947  50.940  1.00  0.00    -0.018 A 
HETATM    9  C6  UNL     1      23.320   2.822  49.892  1.00  0.00    -0.027 A 
HETATM   10  C7  UNL     1      22.424   3.008  48.864  1.00  0.00     0.018 A 
HETATM   11  C8  UNL     1      21.258   2.285  48.858  1.00  0.00    -0.061 A 
HETATM   12  C9  UNL     1      20.251   2.431  47.788  1.00  0.00     0.048 C 
HETATM   13  C10 UNL     1      20.989   1.391  49.859  1.00  0.00     0.007 A 
HETATM   14  C11 UNL     1      21.931   1.241  50.877  1.00  0.00     0.011 A 
BRANCH   9  15
HETATM   15  C5  UNL     1      24.551   3.601  49.884  1.00  0.00     0.011 C 
HETATM   16  C4  UNL     1      24.721   4.747  49.244  1.00  0.00     0.015 C 
BRANCH  16  17
HETATM   17  C3  UNL     1      25.952   5.611  49.183  1.00  0.00     0.215 C 
HETATM   18  F1  UNL     1      26.019   6.396  50.294  1.00  0.00    -0.241 F 
BRANCH  17  19
HETATM   19  C2  UNL     1      27.112   4.704  49.028  1.00  0.00     0.004 C 
HETATM   20  C1  UNL     1      28.237   5.110  48.407  1.00  0.00     0.010 C 
ENDBRANCH  17  19
ENDBRANCH  16  17
ENDBRANCH   9  15
ENDBRANCH   1   8
BRANCH   5  21
HETATM   21  C16 UNL     1      27.213   0.656  53.244  1.00  0.00     0.208 A 
HETATM   22  N3  UNL     1      27.895   1.643  53.820  1.00  0.00    -0.197 NA
HETATM   23  C17 UNL     1      29.117   1.290  54.232  1.00  0.00     0.171 A 
HETATM   24  C18 UNL     1      29.695  -0.083  54.073  1.00  0.00     0.111 A 
HETATM   25  S1  UNL     1      28.178  -0.834  53.214  1.00  0.00    -0.057 SA
BRANCH  23  26
HETATM   26  O1  UNL     1      29.726   2.423  54.820  1.00  0.00    -0.344 OA
HETATM   27  H17 UNL     1      29.347   2.791  55.686  1.00  0.00     0.219 HD
ENDBRANCH  23  26
ENDBRANCH   5  21
TORSDOF 6
ENDMDL
MODEL 4
REMARK VINA RESULT:      -8.3      1.334      1.669
REMARK  6 active torsions:
REMARK  status: ('A' for Active; 'I' for Inactive)
REMARK    1  A    between atoms: C2_2  and  C3_3 
REMARK    2  A    between atoms: C3_3  and  C4_5 
REMARK    3  A    between atoms: C5_6  and  C6_7 
REMARK    4  A    between atoms: C12_13  and  C13_14 
REMARK    5  A    between atoms: N2_18  and  C16_19 
REMARK    6  A    between atoms: C17_21  and  O1_22 
ROOT
HETATM    1  C13 UNL     1      23.339   3.050  51.275  1.00  0.00     0.091 C 
HETATM    2  C14 UNL     1      23.677   2.587  49.867  1.00  0.00     0.045 C 
HETATM    3  C15 UNL     1      22.218   4.022  51.284  1.00  0.00     0.145 C 
HETATM    4  N1  UNL     1      22.749   5.216  51.185  1.00  0.00    -0.168 NA
HETATM    5  N2  UNL     1      24.138   5.096  51.111  1.00  0.00    -0.169 N 
HETATM    6  N4  UNL     1      24.458   3.873  51.698  1.00  0.00    -0.195 NA
HETATM    7  H19 UNL     1      25.321   3.438  51.311  1.00  0.00     0.150 HD
ENDROOT
BRANCH   1   8
HETATM    8  C12 UNL     1      23.097   1.921  52.180  1.00  0.00    -0.018 A 
HETATM    9  C6  UNL     1      24.049   1.093  52.732  1.00  0.00    -0.027 A 
HETATM   10  C7  UNL     1      23.774   0.045  53.581  1.00  0.00     0.018 A 
HETATM   11  C8  UNL     1      22.469  -0.215  53.917  1.00  0.00    -0.061 A 
HETATM   12  C9  UNL     1      22.098  -1.322  54.822  1.00  0.00     0.048 C 
HETATM   13  C10 UNL     1      21.456   0.556  53.416  1.00  0.00     0.007 A 
HETATM   14  C11 UNL     1      21.789   1.605  52.559  1.00  0.00     0.011 A 
BRANCH   9  15
HETATM   15  C5  UNL     1      25.440   1.351  52.384  1.00  0.00     0.011 C 
HETATM   16  C4  UNL     1      26.474   1.149  53.185  1.00  0.00     0.015 C 
BRANCH  16  17
HETATM   17  C3  UNL     1      27.934   1.389  52.906  1.00  0.00     0.215 C 
HETATM   18  F1  UNL     1      28.187   2.727  52.900  1.00  0.00    -0.241 F 
BRANCH  17  19
HETATM   19  C2  UNL     1      28.700   0.646  53.932  1.00  0.00     0.004 C 
HETATM   20  C1  UNL     1      29.436  -0.436  53.607  1.00  0.00     0.010 C 
ENDBRANCH  17  19
ENDBRANCH  16  17
ENDBRANCH   9  15
ENDBRANCH   1   8
BRANCH   5  21
HETATM   21  C16 UNL     1      25.006   6.074  50.534  1.00  0.00     0.208 A 
HETATM   22  N3  UNL     1      25.174   7.350  50.870  1.00  0.00    -0.197 NA
HETATM   23  C17 UNL     1      26.074   7.995  50.119  1.00  0.00     0.171 A 
HETATM   24  C18 UNL     1      26.839   7.366  48.995  1.00  0.00     0.111 A 
HETATM   25  S1  UNL     1      26.057   5.644  49.168  1.00  0.00    -0.057 SA
BRANCH  23  26
HETATM   26  O1  UNL     1      26.154   9.330  50.580  1.00  0.00    -0.344 OA
HETATM   27  H17 UNL     1      25.414   9.980  50.336  1.00  0.00     0.219 HD
ENDBRANCH  23  26
ENDBRANCH   5  21
TORSDOF 6
ENDMDL
MODEL 5
REMARK VINA RESULT:      -8.1      4.481      6.786
REMARK  6 active torsions:
REMARK  status: ('A' for Active; 'I' for Inactive)
REMARK    1  A    between atoms: C2_2  and  C3_3 
REMARK    2  A    between atoms: C3_3  and  C4_5 
REMARK    3  A    between atoms: C5_6  and  C6_7 
REMARK    4  A    between atoms: C12_13  and  C13_14 
REMARK    5  A    between atoms: N2_18  and  C16_19 
REMARK    6  A    between atoms: C17_21  and  O1_22 
ROOT
HETATM    1  C13 UNL     1      23.008   3.080  51.009  1.00  0.00     0.091 C 
HETATM    2  C14 UNL     1      22.686   3.831  52.291  1.00  0.00     0.045 C 
HETATM    3  C15 UNL     1      21.890   3.147  50.034  1.00  0.00     0.145 C 
HETATM    4  N1  UNL     1      21.121   2.111  50.266  1.00  0.00    -0.168 NA
HETATM    5  N2  UNL     1      21.654   1.371  51.323  1.00  0.00    -0.169 N 
HETATM    6  N4  UNL     1      23.014   1.673  51.367  1.00  0.00    -0.195 NA
HETATM    7  H19 UNL     1      23.425   1.603  52.320  1.00  0.00     0.150 HD
ENDROOT
BRANCH   1   8
HETATM    8  C12 UNL     1      24.278   3.517  50.421  1.00  0.00    -0.018 A 
HETATM    9  C6  UNL     1      25.515   2.944  50.620  1.00  0.00    -0.027 A 
HETATM   10  C7  UNL     1      26.683   3.389  50.043  1.00  0.00     0.018 A 
HETATM   11  C8  UNL     1      26.641   4.476  49.207  1.00  0.00    -0.061 A 
HETATM   12  C9  UNL     1      27.853   5.008  48.552  1.00  0.00     0.048 C 
HETATM   13  C10 UNL     1      25.456   5.110  48.950  1.00  0.00     0.007 A 
HETATM   14  C11 UNL     1      24.301   4.619  49.561  1.00  0.00     0.011 A 
BRANCH   9  15
HETATM   15  C5  UNL     1      25.580   1.791  51.507  1.00  0.00     0.011 C 
HETATM   16  C4  UNL     1      26.671   1.086  51.760  1.00  0.00     0.015 C 
BRANCH  16  17
HETATM   17  C3  UNL     1      26.824  -0.113  52.658  1.00  0.00     0.215 C 
HETATM   18  F1  UNL     1      26.683  -1.254  51.929  1.00  0.00    -0.241 F 
BRANCH  17  19
HETATM   19  C2  UNL     1      28.141   0.008  53.322  1.00  0.00     0.004 C 
HETATM   20  C1  UNL     1      28.992  -1.037  53.379  1.00  0.00     0.010 C 
ENDBRANCH  17  19
ENDBRANCH  16  17
ENDBRANCH   9  15
ENDBRANCH   1   8
BRANCH   5  21
HETATM   21  C16 UNL     1      20.897   0.491  52.158  1.00  0.00     0.208 A 
HETATM   22  N3  UNL     1      21.299  -0.221  53.207  1.00  0.00    -0.197 NA
HETATM   23  C17 UNL     1      20.329  -0.949  53.772  1.00  0.00     0.171 A 
HETATM   24  C18 UNL     1      18.911  -0.980  53.291  1.00  0.00     0.111 A 
HETATM   25  S1  UNL     1      19.168   0.232  51.852  1.00  0.00    -0.057 SA
BRANCH  23  26
HETATM   26  O1  UNL     1      20.888  -1.651  54.865  1.00  0.00    -0.344 OA
HETATM   27  H17 UNL     1      20.887  -1.216  55.781  1.00  0.00     0.219 HD
ENDBRANCH  23  26
ENDBRANCH   5  21
TORSDOF 6
ENDMDL
MODEL 6
REMARK VINA RESULT:      -7.9      3.937      6.059
REMARK  6 active torsions:
REMARK  status: ('A' for Active; 'I' for Inactive)
REMARK    1  A    between atoms: C2_2  and  C3_3 
REMARK    2  A    between atoms: C3_3  and  C4_5 
REMARK    3  A    between atoms: C5_6  and  C6_7 
REMARK    4  A    between atoms: C12_13  and  C13_14 
REMARK    5  A    between atoms: N2_18  and  C16_19 
REMARK    6  A    between atoms: C17_21  and  O1_22 
ROOT
HETATM    1  C13 UNL     1      24.950   2.420  51.976  1.00  0.00     0.091 C 
HETATM    2  C14 UNL     1      24.243   3.166  53.096  1.00  0.00     0.045 C 
HETATM    3  C15 UNL     1      25.446   3.343  50.924  1.00  0.00     0.145 C 
HETATM    4  N1  UNL     1      24.489   3.456  50.036  1.00  0.00    -0.168 NA
HETATM    5  N2  UNL     1      23.401   2.675  50.430  1.00  0.00    -0.169 N 
HETATM    6  N4  UNL     1      23.911   1.689  51.273  1.00  0.00    -0.195 NA
HETATM    7  H19 UNL     1      23.232   1.360  51.989  1.00  0.00     0.150 HD
ENDROOT
BRANCH   1   8
HETATM    8  C12 UNL     1      26.010   1.544  52.484  1.00  0.00    -0.018 A 
HETATM    9  C6  UNL     1      25.856   0.262  52.965  1.00  0.00    -0.027 A 
HETATM   10  C7  UNL     1      26.885  -0.526  53.430  1.00  0.00     0.018 A 
HETATM   11  C8  UNL     1      28.162  -0.025  53.426  1.00  0.00    -0.061 A 
HETATM   12  C9  UNL     1      29.314  -0.812  53.910  1.00  0.00     0.048 C 
HETATM   13  C10 UNL     1      28.411   1.239  52.966  1.00  0.00     0.007 A 
HETATM   14  C11 UNL     1      27.333   1.997  52.506  1.00  0.00     0.011 A 
BRANCH   9  15
HETATM   15  C5  UNL     1      24.506  -0.285  52.980  1.00  0.00     0.011 C 
HETATM   16  C4  UNL     1      23.804  -0.548  54.071  1.00  0.00     0.015 C 
BRANCH  16  17
HETATM   17  C3  UNL     1      22.412  -1.111  54.175  1.00  0.00     0.215 C 
HETATM   18  F1  UNL     1      21.925  -0.903  55.429  1.00  0.00    -0.241 F 
BRANCH  17  19
HETATM   19  C2  UNL     1      21.605  -0.472  53.111  1.00  0.00     0.004 C 
HETATM   20  C1  UNL     1      20.971   0.699  53.324  1.00  0.00     0.010 C 
ENDBRANCH  17  19
ENDBRANCH  16  17
ENDBRANCH   9  15
ENDBRANCH   1   8
BRANCH   5  21
HETATM   21  C16 UNL     1      22.051   2.897  50.015  1.00  0.00     0.208 A 
HETATM   22  N3  UNL     1      21.433   2.479  48.914  1.00  0.00    -0.197 NA
HETATM   23  C17 UNL     1      20.155   2.865  48.830  1.00  0.00     0.171 A 
HETATM   24  C18 UNL     1      19.456   3.693  49.864  1.00  0.00     0.111 A 
HETATM   25  S1  UNL     1      20.947   3.850  51.028  1.00  0.00    -0.057 SA
BRANCH  23  26
HETATM   26  O1  UNL     1      19.623   2.358  47.622  1.00  0.00    -0.344 OA
HETATM   27  H17 UNL     1      18.826   2.824  47.201  1.00  0.00     0.219 HD
ENDBRANCH  23  26
ENDBRANCH   5  21
TORSDOF 6
ENDMDL
MODEL 7
REMARK VINA RESULT:      -7.8      2.722      4.723
REMARK  6 active torsions:
REMARK  status: ('A' for Active; 'I' for Inactive)
REMARK    1  A    between atoms: C2_2  and  C3_3 
REMARK    2  A    between atoms: C3_3  and  C4_5 
REMARK    3  A    between atoms: C5_6  and  C6_7 
REMARK    4  A    between atoms: C12_13  and  C13_14 
REMARK    5  A    between atoms: N2_18  and  C16_19 
REMARK    6  A    between atoms: C17_21  and  O1_22 
ROOT
HETATM    1  C13 UNL     1      24.163   3.029  51.461  1.00  0.00     0.091 C 
HETATM    2  C14 UNL     1      23.340   2.803  50.203  1.00  0.00     0.045 C 
HETATM    3  C15 UNL     1      23.344   3.589  52.565  1.00  0.00     0.145 C 
HETATM    4  N1  UNL     1      23.416   4.893  52.468  1.00  0.00    -0.168 NA
HETATM    5  N2  UNL     1      24.223   5.230  51.380  1.00  0.00    -0.169 N 
HETATM    6  N4  UNL     1      25.054   4.134  51.155  1.00  0.00    -0.195 NA
HETATM    7  H19 UNL     1      25.343   4.027  50.161  1.00  0.00     0.150 HD
ENDROOT
BRANCH   1   8
HETATM    8  C12 UNL     1      24.885   1.820  51.869  1.00  0.00    -0.018 A 
HETATM    9  C6  UNL     1      24.371   0.758  52.580  1.00  0.00    -0.027 A 
HETATM   10  C7  UNL     1      25.089  -0.361  52.939  1.00  0.00     0.018 A 
HETATM   11  C8  UNL     1      26.409  -0.451  52.576  1.00  0.00    -0.061 A 
HETATM   12  C9  UNL     1      27.240  -1.620  52.926  1.00  0.00     0.048 C 
HETATM   13  C10 UNL     1      27.005   0.557  51.867  1.00  0.00     0.007 A 
HETATM   14  C11 UNL     1      26.233   1.669  51.529  1.00  0.00     0.011 A 
BRANCH   9  15
HETATM   15  C5  UNL     1      22.973   0.837  52.978  1.00  0.00     0.011 C 
HETATM   16  C4  UNL     1      22.281  -0.149  53.527  1.00  0.00     0.015 C 
BRANCH  16  17
HETATM   17  C3  UNL     1      20.841  -0.152  53.964  1.00  0.00     0.215 C 
HETATM   18  F1  UNL     1      20.729   0.450  55.181  1.00  0.00    -0.241 F 
BRANCH  17  19
HETATM   19  C2  UNL     1      20.062   0.517  52.898  1.00  0.00     0.004 C 
HETATM   20  C1  UNL     1      19.066  -0.124  52.254  1.00  0.00     0.010 C 
ENDBRANCH  17  19
ENDBRANCH  16  17
ENDBRANCH   9  15
ENDBRANCH   1   8
BRANCH   5  21
HETATM   21  C16 UNL     1      24.159   6.473  50.677  1.00  0.00     0.208 A 
HETATM   22  N3  UNL     1      23.096   7.211  50.372  1.00  0.00    -0.197 NA
HETATM   23  C17 UNL     1      23.387   8.331  49.701  1.00  0.00     0.171 A 
HETATM   24  C18 UNL     1      24.774   8.744  49.314  1.00  0.00     0.111 A 
HETATM   25  S1  UNL     1      25.644   7.240  50.077  1.00  0.00    -0.057 SA
BRANCH  23  26
HETATM   26  O1  UNL     1      22.176   9.015  49.443  1.00  0.00    -0.344 OA
HETATM   27  H17 UNL     1      21.342   8.749  49.955  1.00  0.00     0.219 HD
ENDBRANCH  23  26
ENDBRANCH   5  21
TORSDOF 6
ENDMDL
MODEL 8
REMARK VINA RESULT:      -7.8      4.586      7.113
REMARK  6 active torsions:
REMARK  status: ('A' for Active; 'I' for Inactive)
REMARK    1  A    between atoms: C2_2  and  C3_3 
REMARK    2  A    between atoms: C3_3  and  C4_5 
REMARK    3  A    between atoms: C5_6  and  C6_7 
REMARK    4  A    between atoms: C12_13  and  C13_14 
REMARK    5  A    between atoms: N2_18  and  C16_19 
REMARK    6  A    between atoms: C17_21  and  O1_22 
ROOT
HETATM    1  C13 UNL     1      25.003   1.882  52.542  1.00  0.00     0.091 C 
HETATM    2  C14 UNL     1      25.805   2.162  51.282  1.00  0.00     0.045 C 
HETATM    3  C15 UNL     1      25.554   2.599  53.720  1.00  0.00     0.145 C 
HETATM    4  N1  UNL     1      26.426   1.797  54.280  1.00  0.00    -0.168 NA
HETATM    5  N2  UNL     1      26.487   0.606  53.555  1.00  0.00    -0.169 N 
HETATM    6  N4  UNL     1      25.272   0.495  52.879  1.00  0.00    -0.195 NA
HETATM    7  H19 UNL     1      25.340  -0.029  51.983  1.00  0.00     0.150 HD
ENDROOT
BRANCH   1   8
HETATM    8  C12 UNL     1      23.574   2.148  52.354  1.00  0.00    -0.018 A 
HETATM    9  C6  UNL     1      23.016   3.279  51.800  1.00  0.00    -0.027 A 
HETATM   10  C7  UNL     1      21.663   3.484  51.640  1.00  0.00     0.018 A 
HETATM   11  C8  UNL     1      20.789   2.511  52.053  1.00  0.00    -0.061 A 
HETATM   12  C9  UNL     1      19.327   2.662  51.914  1.00  0.00     0.048 C 
HETATM   13  C10 UNL     1      21.253   1.353  52.616  1.00  0.00     0.007 A 
HETATM   14  C11 UNL     1      22.632   1.195  52.755  1.00  0.00     0.011 A 
BRANCH   9  15
HETATM   15  C5  UNL     1      23.929   4.325  51.359  1.00  0.00     0.011 C 
HETATM   16  C4  UNL     1      23.828   4.991  50.219  1.00  0.00     0.015 C 
BRANCH  16  17
HETATM   17  C3  UNL     1      24.724   6.079  49.690  1.00  0.00     0.215 C 
HETATM   18  F1  UNL     1      25.425   5.616  48.618  1.00  0.00    -0.241 F 
BRANCH  17  19
HETATM   19  C2  UNL     1      23.858   7.239  49.376  1.00  0.00     0.004 C 
HETATM   20  C1  UNL     1      23.411   8.058  50.348  1.00  0.00     0.010 C 
ENDBRANCH  17  19
ENDBRANCH  16  17
ENDBRANCH   9  15
ENDBRANCH   1   8
BRANCH   5  21
HETATM   21  C16 UNL     1      27.606  -0.283  53.549  1.00  0.00     0.208 A 
HETATM   22  N3  UNL     1      27.628  -1.604  53.390  1.00  0.00    -0.197 NA
HETATM   23  C17 UNL     1      28.854  -2.136  53.439  1.00  0.00     0.171 A 
HETATM   24  C18 UNL     1      30.108  -1.344  53.651  1.00  0.00     0.111 A 
HETATM   25  S1  UNL     1      29.251   0.345  53.779  1.00  0.00    -0.057 SA
BRANCH  23  26
HETATM   26  O1  UNL     1      28.733  -3.533  53.257  1.00  0.00    -0.344 OA
HETATM   27  H17 UNL     1      29.412  -4.147  53.696  1.00  0.00     0.219 HD
ENDBRANCH  23  26
ENDBRANCH   5  21
TORSDOF 6
ENDMDL
MODEL 9
REMARK VINA RESULT:      -7.7      4.307      6.264
REMARK  6 active torsions:
REMARK  status: ('A' for Active; 'I' for Inactive)
REMARK    1  A    between atoms: C2_2  and  C3_3 
REMARK    2  A    between atoms: C3_3  and  C4_5 
REMARK    3  A    between atoms: C5_6  and  C6_7 
REMARK    4  A    between atoms: C12_13  and  C13_14 
REMARK    5  A    between atoms: N2_18  and  C16_19 
REMARK    6  A    between atoms: C17_21  and  O1_22 
ROOT
HETATM    1  C13 UNL     1      22.978   3.120  50.784  1.00  0.00     0.091 C 
HETATM    2  C14 UNL     1      22.737   1.653  50.467  1.00  0.00     0.045 C 
HETATM    3  C15 UNL     1      22.830   3.404  52.234  1.00  0.00     0.145 C 
HETATM    4  N1  UNL     1      21.576   3.726  52.432  1.00  0.00    -0.168 NA
HETATM    5  N2  UNL     1      20.890   3.673  51.217  1.00  0.00    -0.169 N 
HETATM    6  N4  UNL     1      21.849   3.836  50.218  1.00  0.00    -0.195 NA
HETATM    7  H19 UNL     1      21.604   3.362  49.325  1.00  0.00     0.150 HD
ENDROOT
BRANCH   1   8
HETATM    8  C12 UNL     1      24.264   3.590  50.259  1.00  0.00    -0.018 A 
HETATM    9  C6  UNL     1      25.507   3.067  50.542  1.00  0.00    -0.027 A 
HETATM   10  C7  UNL     1      26.690   3.542  50.021  1.00  0.00     0.018 A 
HETATM   11  C8  UNL     1      26.658   4.607  49.158  1.00  0.00    -0.061 A 
HETATM   12  C9  UNL     1      27.885   5.170  48.560  1.00  0.00     0.048 C 
HETATM   13  C10 UNL     1      25.467   5.192  48.819  1.00  0.00     0.007 A 
HETATM   14  C11 UNL     1      24.297   4.673  49.376  1.00  0.00     0.011 A 
BRANCH   9  15
HETATM   15  C5  UNL     1      25.561   1.937  51.459  1.00  0.00     0.011 C 
HETATM   16  C4  UNL     1      26.617   1.161  51.648  1.00  0.00     0.015 C 
BRANCH  16  17
HETATM   17  C3  UNL     1      26.756  -0.021  52.570  1.00  0.00     0.215 C 
HETATM   18  F1  UNL     1      26.624  -1.175  51.861  1.00  0.00    -0.241 F 
BRANCH  17  19
HETATM   19  C2  UNL     1      28.065   0.111  53.249  1.00  0.00     0.004 C 
HETATM   20  C1  UNL     1      28.844  -0.965  53.477  1.00  0.00     0.010 C 
ENDBRANCH  17  19
ENDBRANCH  16  17
ENDBRANCH   9  15
ENDBRANCH   1   8
BRANCH   5  21
HETATM   21  C16 UNL     1      19.479   3.487  51.090  1.00  0.00     0.208 A 
HETATM   22  N3  UNL     1      18.507   3.841  51.927  1.00  0.00    -0.197 NA
HETATM   23  C17 UNL     1      17.281   3.515  51.504  1.00  0.00     0.171 A 
HETATM   24  C18 UNL     1      16.995   2.816  50.210  1.00  0.00     0.111 A 
HETATM   25  S1  UNL     1      18.806   2.682  49.657  1.00  0.00    -0.057 SA
BRANCH  23  26
HETATM   26  O1  UNL     1      16.352   3.944  52.479  1.00  0.00    -0.344 OA
HETATM   27  H17 UNL     1      15.761   3.256  52.933  1.00  0.00     0.219 HD
ENDBRANCH  23  26
ENDBRANCH   5  21
TORSDOF 6
ENDMDL
