MODEL 1
REMARK VINA RESULT:     -10.0      0.000      0.000
REMARK  4 active torsions:
REMARK  status: ('A' for Active; 'I' for Inactive)
REMARK    1  A    between atoms: N4_15  and  C12_16 
REMARK    2  A    between atoms: C12_16  and  N5_17 
REMARK    3  A    between atoms: N5_17  and  C13_18 
REMARK    4  A    between atoms: C13_18  and  C14_19 
ROOT
HETATM    1  C1  UNL     1      28.115   1.497  53.109  1.00  0.00     0.131 C 
HETATM    2  C2  UNL     1      27.197   1.029  52.313  1.00  0.00     0.008 C 
HETATM    3  C3  UNL     1      25.926   0.285  52.640  1.00  0.00     0.065 C 
HETATM    4  C4  UNL     1      25.961  -0.059  54.054  1.00  0.00    -0.045 C 
HETATM    5  C5  UNL     1      25.029  -0.493  54.925  1.00  0.00     0.022 C 
HETATM    6  C6  UNL     1      23.635  -0.723  54.543  1.00  0.00     0.028 A 
HETATM    7  C7  UNL     1      22.961  -1.592  55.363  1.00  0.00     0.133 A 
HETATM    8  N1  UNL     1      21.668  -1.853  55.078  1.00  0.00    -0.253 NA
HETATM    9  C8  UNL     1      21.009  -1.306  54.031  1.00  0.00     0.234 A 
HETATM   10  N2  UNL     1      21.636  -0.435  53.187  1.00  0.00    -0.224 NA
HETATM   11  C9  UNL     1      22.941  -0.175  53.480  1.00  0.00     0.139 A 
HETATM   12  N3  UNL     1      23.473   0.741  52.532  1.00  0.00    -0.356 N 
HETATM   13  C10 UNL     1      22.448   1.563  51.880  1.00  0.00     0.155 C 
HETATM   14  C11 UNL     1      22.802   3.001  52.153  1.00  0.00     0.294 C 
HETATM   15  N4  UNL     1      24.042   3.289  51.500  1.00  0.00     0.119 N 
HETATM   16  C20 UNL     1      25.081   2.518  52.148  1.00  0.00     0.300 C 
HETATM   17  C21 UNL     1      24.792   1.027  52.089  1.00  0.00     0.126 C 
HETATM   18  C22 UNL     1      27.259   0.053  54.814  1.00  0.00     0.209 C 
HETATM   19  O1  UNL     1      27.905   1.285  54.465  1.00  0.00    -0.359 OA
ENDROOT
BRANCH  15  20
HETATM   20  C12 UNL     1      24.006   3.133  50.079  1.00  0.00     0.540 C 
BRANCH  20  21
HETATM   21  N5  UNL     1      25.276   3.564  49.523  1.00  0.00     0.115 N 
HETATM   22  H13 UNL     1      26.083   3.322  50.113  1.00  0.00     0.318 HD
BRANCH  21  23
HETATM   23  C13 UNL     1      25.161   4.987  49.281  1.00  0.00     0.310 C 
BRANCH  23  24
HETATM   24  C14 UNL     1      26.407   5.591  48.742  1.00  0.00    -0.030 A 
HETATM   25  C15 UNL     1      26.463   6.889  48.221  1.00  0.00     0.009 A 
HETATM   26  C16 UNL     1      27.651   7.388  47.738  1.00  0.00     0.001 A 
HETATM   27  C17 UNL     1      28.822   6.658  47.737  1.00  0.00     0.000 A 
HETATM   28  C18 UNL     1      28.808   5.368  48.245  1.00  0.00     0.001 A 
HETATM   29  C19 UNL     1      27.596   4.900  48.723  1.00  0.00     0.009 A 
ENDBRANCH  23  24
ENDBRANCH  21  23
ENDBRANCH  20  21
ENDBRANCH  15  20
TORSDOF 4
ENDMDL
MODEL 2
REMARK VINA RESULT:      -9.6      1.234      1.643
REMARK  4 active torsions:
REMARK  status: ('A' for Active; 'I' for Inactive)
REMARK    1  A    between atoms: N4_15  and  C12_16 
REMARK    2  A    between atoms: C12_16  and  N5_17 
REMARK    3  A    between atoms: N5_17  and  C13_18 
REMARK    4  A    between atoms: C13_18  and  C14_19 
ROOT
HETATM    1  C1  UNL     1      26.940   0.137  54.321  1.00  0.00     0.131 C 
HETATM    2  C2  UNL     1      26.276   0.138  53.201  1.00  0.00     0.008 C 
HETATM    3  C3  UNL     1      24.814  -0.135  52.946  1.00  0.00     0.065 C 
HETATM    4  C4  UNL     1      24.235  -0.649  54.179  1.00  0.00    -0.045 C 
HETATM    5  C5  UNL     1      22.968  -0.827  54.603  1.00  0.00     0.022 C 
HETATM    6  C6  UNL     1      21.805  -0.489  53.784  1.00  0.00     0.028 A 
HETATM    7  C7  UNL     1      20.656  -1.155  54.130  1.00  0.00     0.133 A 
HETATM    8  N1  UNL     1      19.538  -0.895  53.422  1.00  0.00    -0.253 NA
HETATM    9  C8  UNL     1      19.492  -0.017  52.394  1.00  0.00     0.234 A 
HETATM   10  N2  UNL     1      20.608   0.672  52.012  1.00  0.00    -0.224 NA
HETATM   11  C9  UNL     1      21.734   0.404  52.730  1.00  0.00     0.139 A 
HETATM   12  N3  UNL     1      22.816   1.183  52.235  1.00  0.00    -0.356 N 
HETATM   13  C10 UNL     1      22.385   2.395  51.530  1.00  0.00     0.155 C 
HETATM   14  C11 UNL     1      23.023   3.561  52.238  1.00  0.00     0.294 C 
HETATM   15  N4  UNL     1      24.440   3.466  52.070  1.00  0.00     0.119 N 
HETATM   16  C20 UNL     1      24.901   2.295  52.788  1.00  0.00     0.300 C 
HETATM   17  C21 UNL     1      24.227   1.029  52.284  1.00  0.00     0.126 C 
HETATM   18  C22 UNL     1      25.143  -1.111  55.290  1.00  0.00     0.209 C 
HETATM   19  O1  UNL     1      26.204  -0.159  55.459  1.00  0.00    -0.359 OA
ENDROOT
BRANCH  15  20
HETATM   20  C12 UNL     1      24.875   3.518  50.710  1.00  0.00     0.540 C 
BRANCH  20  21
HETATM   21  N5  UNL     1      26.141   4.224  50.643  1.00  0.00     0.115 N 
HETATM   22  H13 UNL     1      26.063   5.226  50.863  1.00  0.00     0.318 HD
BRANCH  21  23
HETATM   23  C13 UNL     1      26.683   3.978  49.323  1.00  0.00     0.310 C 
BRANCH  23  24
HETATM   24  C14 UNL     1      27.272   5.190  48.697  1.00  0.00    -0.030 A 
HETATM   25  C15 UNL     1      26.527   6.340  48.410  1.00  0.00     0.009 A 
HETATM   26  C16 UNL     1      27.134   7.430  47.829  1.00  0.00     0.001 A 
HETATM   27  C17 UNL     1      28.475   7.451  47.505  1.00  0.00     0.000 A 
HETATM   28  C18 UNL     1      29.248   6.331  47.773  1.00  0.00     0.001 A 
HETATM   29  C19 UNL     1      28.603   5.255  48.358  1.00  0.00     0.009 A 
ENDBRANCH  23  24
ENDBRANCH  21  23
ENDBRANCH  20  21
ENDBRANCH  15  20
TORSDOF 4
ENDMDL
MODEL 3
REMARK VINA RESULT:      -9.4      3.047      5.105
REMARK  4 active torsions:
REMARK  status: ('A' for Active; 'I' for Inactive)
REMARK    1  A    between atoms: N4_15  and  C12_16 
REMARK    2  A    between atoms: C12_16  and  N5_17 
REMARK    3  A    between atoms: N5_17  and  C13_18 
REMARK    4  A    between atoms: C13_18  and  C14_19 
ROOT
HETATM    1  C1  UNL     1      23.814  -0.908  54.739  1.00  0.00     0.131 C 
HETATM    2  C2  UNL     1      23.666  -0.656  53.470  1.00  0.00     0.008 C 
HETATM    3  C3  UNL     1      22.403  -0.506  52.657  1.00  0.00     0.065 C 
HETATM    4  C4  UNL     1      21.284  -0.921  53.491  1.00  0.00    -0.045 C 
HETATM    5  C5  UNL     1      19.949  -0.776  53.386  1.00  0.00     0.022 C 
HETATM    6  C6  UNL     1      19.313  -0.083  52.266  1.00  0.00     0.028 A 
HETATM    7  C7  UNL     1      18.003  -0.434  52.054  1.00  0.00     0.133 A 
HETATM    8  N1  UNL     1      17.346   0.164  51.038  1.00  0.00    -0.253 NA
HETATM    9  C8  UNL     1      17.910   1.084  50.223  1.00  0.00     0.234 A 
HETATM   10  N2  UNL     1      19.210   1.468  50.394  1.00  0.00    -0.224 NA
HETATM   11  C9  UNL     1      19.868   0.860  51.420  1.00  0.00     0.139 A 
HETATM   12  N3  UNL     1      21.203   1.346  51.490  1.00  0.00    -0.356 N 
HETATM   13  C10 UNL     1      21.370   2.672  50.885  1.00  0.00     0.155 C 
HETATM   14  C11 UNL     1      21.921   3.574  51.958  1.00  0.00     0.294 C 
HETATM   15  N4  UNL     1      23.228   3.109  52.307  1.00  0.00     0.119 N 
HETATM   16  C20 UNL     1      23.090   1.815  52.941  1.00  0.00     0.300 C 
HETATM   17  C21 UNL     1      22.405   0.813  52.026  1.00  0.00     0.126 C 
HETATM   18  C22 UNL     1      21.549  -1.680  54.766  1.00  0.00     0.209 C 
HETATM   19  O1  UNL     1      22.640  -1.064  55.464  1.00  0.00    -0.359 OA
ENDROOT
BRANCH  15  20
HETATM   20  C12 UNL     1      24.165   3.128  51.228  1.00  0.00     0.540 C 
BRANCH  20  21
HETATM   21  N5  UNL     1      25.498   3.341  51.761  1.00  0.00     0.115 N 
HETATM   22  H13 UNL     1      25.824   4.312  51.669  1.00  0.00     0.318 HD
BRANCH  21  23
HETATM   23  C13 UNL     1      26.366   2.391  51.096  1.00  0.00     0.310 C 
BRANCH  23  24
HETATM   24  C14 UNL     1      27.002   1.426  52.032  1.00  0.00    -0.030 A 
HETATM   25  C15 UNL     1      26.762   0.048  51.986  1.00  0.00     0.009 A 
HETATM   26  C16 UNL     1      27.383  -0.791  52.882  1.00  0.00     0.001 A 
HETATM   27  C17 UNL     1      28.253  -0.335  53.851  1.00  0.00     0.000 A 
HETATM   28  C18 UNL     1      28.517   1.024  53.930  1.00  0.00     0.001 A 
HETATM   29  C19 UNL     1      27.874   1.837  53.012  1.00  0.00     0.009 A 
ENDBRANCH  23  24
ENDBRANCH  21  23
ENDBRANCH  20  21
ENDBRANCH  15  20
TORSDOF 4
ENDMDL
MODEL 4
REMARK VINA RESULT:      -9.0      3.440      6.118
REMARK  4 active torsions:
REMARK  status: ('A' for Active; 'I' for Inactive)
REMARK    1  A    between atoms: N4_15  and  C12_16 
REMARK    2  A    between atoms: C12_16  and  N5_17 
REMARK    3  A    between atoms: N5_17  and  C13_18 
REMARK    4  A    between atoms: C13_18  and  C14_19 
ROOT
HETATM    1  C1  UNL     1      22.581  -0.868  54.745  1.00  0.00     0.131 C 
HETATM    2  C2  UNL     1      23.080  -0.735  53.550  1.00  0.00     0.008 C 
HETATM    3  C3  UNL     1      22.450  -0.175  52.298  1.00  0.00     0.065 C 
HETATM    4  C4  UNL     1      21.031   0.018  52.562  1.00  0.00    -0.045 C 
HETATM    5  C5  UNL     1      20.054   0.690  51.922  1.00  0.00     0.022 C 
HETATM    6  C6  UNL     1      20.287   1.441  50.688  1.00  0.00     0.028 A 
HETATM    7  C7  UNL     1      19.162   1.642  49.928  1.00  0.00     0.133 A 
HETATM    8  N1  UNL     1      19.295   2.329  48.774  1.00  0.00    -0.253 NA
HETATM    9  C8  UNL     1      20.473   2.825  48.332  1.00  0.00     0.234 A 
HETATM   10  N2  UNL     1      21.620   2.652  49.053  1.00  0.00    -0.224 NA
HETATM   11  C9  UNL     1      21.480   1.958  50.216  1.00  0.00     0.139 A 
HETATM   12  N3  UNL     1      22.740   1.850  50.867  1.00  0.00    -0.356 N 
HETATM   13  C10 UNL     1      23.686   2.902  50.478  1.00  0.00     0.155 C 
HETATM   14  C11 UNL     1      24.084   3.618  51.741  1.00  0.00     0.294 C 
HETATM   15  N4  UNL     1      24.803   2.699  52.569  1.00  0.00     0.119 N 
HETATM   16  C20 UNL     1      23.883   1.667  53.000  1.00  0.00     0.300 C 
HETATM   17  C21 UNL     1      23.269   0.936  51.816  1.00  0.00     0.126 C 
HETATM   18  C22 UNL     1      20.407  -0.621  53.776  1.00  0.00     0.209 C 
HETATM   19  O1  UNL     1      21.273  -0.433  54.905  1.00  0.00    -0.359 OA
ENDROOT
BRANCH  15  20
HETATM   20  C12 UNL     1      26.005   2.195  51.981  1.00  0.00     0.540 C 
BRANCH  20  21
HETATM   21  N5  UNL     1      27.099   2.365  52.918  1.00  0.00     0.115 N 
HETATM   22  H13 UNL     1      28.026   2.329  52.474  1.00  0.00     0.318 HD
BRANCH  21  23
HETATM   23  C13 UNL     1      26.927   1.358  53.944  1.00  0.00     0.310 C 
BRANCH  23  24
HETATM   24  C14 UNL     1      27.532   0.048  53.586  1.00  0.00    -0.030 A 
HETATM   25  C15 UNL     1      26.794  -1.012  53.049  1.00  0.00     0.009 A 
HETATM   26  C16 UNL     1      27.416  -2.200  52.739  1.00  0.00     0.001 A 
HETATM   27  C17 UNL     1      28.766  -2.407  52.933  1.00  0.00     0.000 A 
HETATM   28  C18 UNL     1      29.533  -1.380  53.463  1.00  0.00     0.001 A 
HETATM   29  C19 UNL     1      28.873  -0.201  53.762  1.00  0.00     0.009 A 
ENDBRANCH  23  24
ENDBRANCH  21  23
ENDBRANCH  20  21
ENDBRANCH  15  20
TORSDOF 4
ENDMDL
MODEL 5
REMARK VINA RESULT:      -8.6      2.341      3.732
REMARK  4 active torsions:
REMARK  status: ('A' for Active; 'I' for Inactive)
REMARK    1  A    between atoms: N4_15  and  C12_16 
REMARK    2  A    between atoms: C12_16  and  N5_17 
REMARK    3  A    between atoms: N5_17  and  C13_18 
REMARK    4  A    between atoms: C13_18  and  C14_19 
ROOT
HETATM    1  C1  UNL     1      23.864  -0.950  54.756  1.00  0.00     0.131 C 
HETATM    2  C2  UNL     1      23.699  -0.797  53.474  1.00  0.00     0.008 C 
HETATM    3  C3  UNL     1      22.426  -0.650  52.676  1.00  0.00     0.065 C 
HETATM    4  C4  UNL     1      21.309  -0.937  53.564  1.00  0.00    -0.045 C 
HETATM    5  C5  UNL     1      19.980  -0.733  53.474  1.00  0.00     0.022 C 
HETATM    6  C6  UNL     1      19.352  -0.104  52.312  1.00  0.00     0.028 A 
HETATM    7  C7  UNL     1      18.022  -0.404  52.156  1.00  0.00     0.133 A 
HETATM    8  N1  UNL     1      17.372   0.141  51.106  1.00  0.00    -0.253 NA
HETATM    9  C8  UNL     1      17.960   0.960  50.206  1.00  0.00     0.234 A 
HETATM   10  N2  UNL     1      19.281   1.290  50.319  1.00  0.00    -0.224 NA
HETATM   11  C9  UNL     1      19.933   0.737  51.380  1.00  0.00     0.139 A 
HETATM   12  N3  UNL     1      21.291   1.157  51.382  1.00  0.00    -0.356 N 
HETATM   13  C10 UNL     1      21.510   2.419  50.664  1.00  0.00     0.155 C 
HETATM   14  C11 UNL     1      22.129   3.377  51.647  1.00  0.00     0.294 C 
HETATM   15  N4  UNL     1      23.420   2.876  52.008  1.00  0.00     0.119 N 
HETATM   16  C20 UNL     1      23.234   1.648  52.751  1.00  0.00     0.300 C 
HETATM   17  C21 UNL     1      22.478   0.610  51.937  1.00  0.00     0.126 C 
HETATM   18  C22 UNL     1      21.566  -1.601  54.893  1.00  0.00     0.209 C 
HETATM   19  O1  UNL     1      22.703  -0.986  55.515  1.00  0.00    -0.359 OA
ENDROOT
BRANCH  15  20
HETATM   20  C12 UNL     1      24.331   2.758  50.913  1.00  0.00     0.540 C 
BRANCH  20  21
HETATM   21  N5  UNL     1      25.460   3.641  51.137  1.00  0.00     0.115 N 
HETATM   22  H13 UNL     1      25.190   4.626  51.258  1.00  0.00     0.318 HD
BRANCH  21  23
HETATM   23  C13 UNL     1      26.371   3.438  50.030  1.00  0.00     0.310 C 
BRANCH  23  24
HETATM   24  C14 UNL     1      26.669   4.688  49.282  1.00  0.00    -0.030 A 
HETATM   25  C15 UNL     1      27.929   4.972  48.743  1.00  0.00     0.009 A 
HETATM   26  C16 UNL     1      28.139   6.149  48.060  1.00  0.00     0.001 A 
HETATM   27  C17 UNL     1      27.147   7.090  47.875  1.00  0.00     0.000 A 
HETATM   28  C18 UNL     1      25.884   6.846  48.394  1.00  0.00     0.001 A 
HETATM   29  C19 UNL     1      25.712   5.652  49.073  1.00  0.00     0.009 A 
ENDBRANCH  23  24
ENDBRANCH  21  23
ENDBRANCH  20  21
ENDBRANCH  15  20
TORSDOF 4
ENDMDL
MODEL 6
REMARK VINA RESULT:      -8.5      2.448      3.991
REMARK  4 active torsions:
REMARK  status: ('A' for Active; 'I' for Inactive)
REMARK    1  A    between atoms: N4_15  and  C12_16 
REMARK    2  A    between atoms: C12_16  and  N5_17 
REMARK    3  A    between atoms: N5_17  and  C13_18 
REMARK    4  A    between atoms: C13_18  and  C14_19 
ROOT
HETATM    1  C1  UNL     1      21.122   1.728  51.794  1.00  0.00     0.131 C 
HETATM    2  C2  UNL     1      22.101   2.483  52.202  1.00  0.00     0.008 C 
HETATM    3  C3  UNL     1      23.459   2.097  52.735  1.00  0.00     0.065 C 
HETATM    4  C4  UNL     1      23.458   0.658  52.955  1.00  0.00    -0.045 C 
HETATM    5  C5  UNL     1      24.434  -0.244  53.180  1.00  0.00     0.022 C 
HETATM    6  C6  UNL     1      25.849   0.121  53.252  1.00  0.00     0.028 A 
HETATM    7  C7  UNL     1      26.628  -0.770  53.946  1.00  0.00     0.133 A 
HETATM    8  N1  UNL     1      27.946  -0.504  54.054  1.00  0.00    -0.253 NA
HETATM    9  C8  UNL     1      28.534   0.590  53.518  1.00  0.00     0.234 A 
HETATM   10  N2  UNL     1      27.801   1.505  52.818  1.00  0.00    -0.224 NA
HETATM   11  C9  UNL     1      26.471   1.231  52.712  1.00  0.00     0.139 A 
HETATM   12  N3  UNL     1      25.828   2.255  51.963  1.00  0.00    -0.356 N 
HETATM   13  C10 UNL     1      26.738   2.982  51.072  1.00  0.00     0.155 C 
HETATM   14  C11 UNL     1      26.191   2.836  49.677  1.00  0.00     0.294 C 
HETATM   15  N4  UNL     1      24.929   3.507  49.618  1.00  0.00     0.119 N 
HETATM   16  C20 UNL     1      23.998   2.788  50.462  1.00  0.00     0.300 C 
HETATM   17  C21 UNL     1      24.486   2.716  51.899  1.00  0.00     0.126 C 
HETATM   18  C22 UNL     1      22.152  -0.094  52.953  1.00  0.00     0.209 C 
HETATM   19  O1  UNL     1      21.348   0.360  51.854  1.00  0.00    -0.359 OA
ENDROOT
BRANCH  15  20
HETATM   20  C12 UNL     1      24.996   4.908  49.892  1.00  0.00     0.540 C 
BRANCH  20  21
HETATM   21  N5  UNL     1      25.196   5.627  48.647  1.00  0.00     0.115 N 
HETATM   22  H13 UNL     1      25.601   5.046  47.901  1.00  0.00     0.318 HD
BRANCH  21  23
HETATM   23  C13 UNL     1      26.006   6.785  48.963  1.00  0.00     0.310 C 
BRANCH  23  24
HETATM   24  C14 UNL     1      27.355   6.743  48.340  1.00  0.00    -0.030 A 
HETATM   25  C15 UNL     1      27.842   7.755  47.506  1.00  0.00     0.009 A 
HETATM   26  C16 UNL     1      29.102   7.654  46.960  1.00  0.00     0.001 A 
HETATM   27  C17 UNL     1      29.933   6.578  47.197  1.00  0.00     0.000 A 
HETATM   28  C18 UNL     1      29.485   5.553  48.017  1.00  0.00     0.001 A 
HETATM   29  C19 UNL     1      28.215   5.690  48.548  1.00  0.00     0.009 A 
ENDBRANCH  23  24
ENDBRANCH  21  23
ENDBRANCH  20  21
ENDBRANCH  15  20
TORSDOF 4
ENDMDL
MODEL 7
REMARK VINA RESULT:      -8.3      3.413      7.949
REMARK  4 active torsions:
REMARK  status: ('A' for Active; 'I' for Inactive)
REMARK    1  A    between atoms: N4_15  and  C12_16 
REMARK    2  A    between atoms: C12_16  and  N5_17 
REMARK    3  A    between atoms: N5_17  and  C13_18 
REMARK    4  A    between atoms: C13_18  and  C14_19 
ROOT
HETATM    1  C1  UNL     1      20.867  -0.927  54.008  1.00  0.00     0.131 C 
HETATM    2  C2  UNL     1      20.952   0.299  53.579  1.00  0.00     0.008 C 
HETATM    3  C3  UNL     1      22.152   1.065  53.080  1.00  0.00     0.065 C 
HETATM    4  C4  UNL     1      23.338   0.268  53.360  1.00  0.00    -0.045 C 
HETATM    5  C5  UNL     1      24.616   0.331  52.938  1.00  0.00     0.022 C 
HETATM    6  C6  UNL     1      25.091   1.348  52.000  1.00  0.00     0.028 A 
HETATM    7  C7  UNL     1      26.443   1.578  52.053  1.00  0.00     0.133 A 
HETATM    8  N1  UNL     1      26.959   2.502  51.216  1.00  0.00    -0.253 NA
HETATM    9  C8  UNL     1      26.216   3.210  50.335  1.00  0.00     0.234 A 
HETATM   10  N2  UNL     1      24.866   3.017  50.244  1.00  0.00    -0.224 NA
HETATM   11  C9  UNL     1      24.351   2.083  51.092  1.00  0.00     0.139 A 
HETATM   12  N3  UNL     1      22.947   1.979  50.897  1.00  0.00    -0.356 N 
HETATM   13  C10 UNL     1      22.511   2.423  49.568  1.00  0.00     0.155 C 
HETATM   14  C11 UNL     1      21.798   1.259  48.932  1.00  0.00     0.294 C 
HETATM   15  N4  UNL     1      20.613   0.992  49.689  1.00  0.00     0.119 N 
HETATM   16  C20 UNL     1      21.014   0.515  50.997  1.00  0.00     0.300 C 
HETATM   17  C21 UNL     1      21.880   1.533  51.721  1.00  0.00     0.126 C 
HETATM   18  C22 UNL     1      23.241  -0.901  54.307  1.00  0.00     0.209 C 
HETATM   19  O1  UNL     1      22.052  -1.649  54.012  1.00  0.00    -0.359 OA
ENDROOT
BRANCH  15  20
HETATM   20  C12 UNL     1      19.684   2.077  49.728  1.00  0.00     0.540 C 
BRANCH  20  21
HETATM   21  N5  UNL     1      18.651   1.783  50.704  1.00  0.00     0.115 N 
HETATM   22  H13 UNL     1      19.006   1.300  51.540  1.00  0.00     0.318 HD
BRANCH  21  23
HETATM   23  C13 UNL     1      17.627   1.030  50.010  1.00  0.00     0.310 C 
BRANCH  23  24
HETATM   24  C14 UNL     1      17.050  -0.066  50.831  1.00  0.00    -0.030 A 
HETATM   25  C15 UNL     1      15.880  -0.749  50.479  1.00  0.00     0.009 A 
HETATM   26  C16 UNL     1      15.398  -1.755  51.285  1.00  0.00     0.001 A 
HETATM   27  C17 UNL     1      16.022  -2.137  52.454  1.00  0.00     0.000 A 
HETATM   28  C18 UNL     1      17.184  -1.484  52.839  1.00  0.00     0.001 A 
HETATM   29  C19 UNL     1      17.638  -0.479  52.003  1.00  0.00     0.009 A 
ENDBRANCH  23  24
ENDBRANCH  21  23
ENDBRANCH  20  21
ENDBRANCH  15  20
TORSDOF 4
ENDMDL
MODEL 8
REMARK VINA RESULT:      -8.3      2.191      3.912
REMARK  4 active torsions:
REMARK  status: ('A' for Active; 'I' for Inactive)
REMARK    1  A    between atoms: N4_15  and  C12_16 
REMARK    2  A    between atoms: C12_16  and  N5_17 
REMARK    3  A    between atoms: N5_17  and  C13_18 
REMARK    4  A    between atoms: C13_18  and  C14_19 
ROOT
HETATM    1  C1  UNL     1      21.252   3.007  49.363  1.00  0.00     0.131 C 
HETATM    2  C2  UNL     1      21.841   3.198  50.509  1.00  0.00     0.008 C 
HETATM    3  C3  UNL     1      21.922   2.294  51.715  1.00  0.00     0.065 C 
HETATM    4  C4  UNL     1      21.008   1.182  51.500  1.00  0.00    -0.045 C 
HETATM    5  C5  UNL     1      20.845  -0.012  52.103  1.00  0.00     0.022 C 
HETATM    6  C6  UNL     1      21.673  -0.451  53.227  1.00  0.00     0.028 A 
HETATM    7  C7  UNL     1      21.095  -1.416  54.012  1.00  0.00     0.133 A 
HETATM    8  N1  UNL     1      21.798  -1.875  55.068  1.00  0.00    -0.253 NA
HETATM    9  C8  UNL     1      23.035  -1.432  55.391  1.00  0.00     0.234 A 
HETATM   10  N2  UNL     1      23.653  -0.473  54.640  1.00  0.00    -0.224 NA
HETATM   11  C9  UNL     1      22.938  -0.014  53.575  1.00  0.00     0.139 A 
HETATM   12  N3  UNL     1      23.690   0.974  52.881  1.00  0.00    -0.356 N 
HETATM   13  C10 UNL     1      25.137   0.859  53.097  1.00  0.00     0.155 C 
HETATM   14  C11 UNL     1      25.767   0.689  51.740  1.00  0.00     0.294 C 
HETATM   15  N4  UNL     1      25.553   1.889  50.992  1.00  0.00     0.119 N 
HETATM   16  C20 UNL     1      24.133   2.009  50.732  1.00  0.00     0.300 C 
HETATM   17  C21 UNL     1      23.329   2.045  52.022  1.00  0.00     0.126 C 
HETATM   18  C22 UNL     1      19.979   1.267  50.401  1.00  0.00     0.209 C 
HETATM   19  O1  UNL     1      20.596   1.792  49.217  1.00  0.00    -0.359 OA
ENDROOT
BRANCH  15  20
HETATM   20  C12 UNL     1      26.135   3.057  51.576  1.00  0.00     0.540 C 
BRANCH  20  21
HETATM   21  N5  UNL     1      25.982   4.172  50.661  1.00  0.00     0.115 N 
HETATM   22  H13 UNL     1      25.004   4.353  50.398  1.00  0.00     0.318 HD
BRANCH  21  23
HETATM   23  C13 UNL     1      26.829   3.892  49.520  1.00  0.00     0.310 C 
BRANCH  23  24
HETATM   24  C14 UNL     1      27.275   5.118  48.808  1.00  0.00    -0.030 A 
HETATM   25  C15 UNL     1      28.589   5.311  48.369  1.00  0.00     0.009 A 
HETATM   26  C16 UNL     1      28.936   6.471  47.715  1.00  0.00     0.001 A 
HETATM   27  C17 UNL     1      28.033   7.482  47.461  1.00  0.00     0.000 A 
HETATM   28  C18 UNL     1      26.720   7.329  47.880  1.00  0.00     0.001 A 
HETATM   29  C19 UNL     1      26.409   6.150  48.534  1.00  0.00     0.009 A 
ENDBRANCH  23  24
ENDBRANCH  21  23
ENDBRANCH  20  21
ENDBRANCH  15  20
TORSDOF 4
ENDMDL
MODEL 9
REMARK VINA RESULT:      -8.0      3.449      8.875
REMARK  4 active torsions:
REMARK  status: ('A' for Active; 'I' for Inactive)
REMARK    1  A    between atoms: N4_15  and  C12_16 
REMARK    2  A    between atoms: C12_16  and  N5_17 
REMARK    3  A    between atoms: N5_17  and  C13_18 
REMARK    4  A    between atoms: C13_18  and  C14_19 
ROOT
HETATM    1  C1  UNL     1      21.410   3.266  49.840  1.00  0.00     0.131 C 
HETATM    2  C2  UNL     1      21.744   2.037  50.109  1.00  0.00     0.008 C 
HETATM    3  C3  UNL     1      22.870   1.508  50.963  1.00  0.00     0.065 C 
HETATM    4  C4  UNL     1      23.735   2.629  51.303  1.00  0.00    -0.045 C 
HETATM    5  C5  UNL     1      24.720   2.796  52.208  1.00  0.00     0.022 C 
HETATM    6  C6  UNL     1      25.143   1.737  53.124  1.00  0.00     0.028 A 
HETATM    7  C7  UNL     1      26.417   1.885  53.611  1.00  0.00     0.133 A 
HETATM    8  N1  UNL     1      26.879   0.948  54.465  1.00  0.00    -0.253 NA
HETATM    9  C8  UNL     1      26.155  -0.123  54.861  1.00  0.00     0.234 A 
HETATM   10  N2  UNL     1      24.881  -0.315  54.405  1.00  0.00    -0.224 NA
HETATM   11  C9  UNL     1      24.421   0.634  53.543  1.00  0.00     0.139 A 
HETATM   12  N3  UNL     1      23.091   0.319  53.147  1.00  0.00    -0.356 N 
HETATM   13  C10 UNL     1      22.387  -0.537  54.108  1.00  0.00     0.155 C 
HETATM   14  C11 UNL     1      21.148   0.208  54.528  1.00  0.00     0.294 C 
HETATM   15  N4  UNL     1      20.295   0.339  53.387  1.00  0.00     0.119 N 
HETATM   16  C20 UNL     1      20.950   1.211  52.434  1.00  0.00     0.300 C 
HETATM   17  C21 UNL     1      22.306   0.665  52.016  1.00  0.00     0.126 C 
HETATM   18  C22 UNL     1      23.595   3.930  50.555  1.00  0.00     0.209 C 
HETATM   19  O1  UNL     1      22.203   4.248  50.418  1.00  0.00    -0.359 OA
ENDROOT
BRANCH  15  20
HETATM   20  C12 UNL     1      19.863  -0.905  52.831  1.00  0.00     0.540 C 
BRANCH  20  21
HETATM   21  N5  UNL     1      18.480  -0.782  52.411  1.00  0.00     0.115 N 
HETATM   22  H13 UNL     1      18.227   0.169  52.111  1.00  0.00     0.318 HD
BRANCH  21  23
HETATM   23  C13 UNL     1      17.669  -1.260  53.511  1.00  0.00     0.310 C 
BRANCH  23  24
HETATM   24  C14 UNL     1      16.892  -2.483  53.177  1.00  0.00    -0.030 A 
HETATM   25  C15 UNL     1      17.219  -3.753  53.665  1.00  0.00     0.009 A 
HETATM   26  C16 UNL     1      16.457  -4.844  53.316  1.00  0.00     0.001 A 
HETATM   27  C17 UNL     1      15.357  -4.752  52.488  1.00  0.00     0.000 A 
HETATM   28  C18 UNL     1      15.000  -3.511  51.983  1.00  0.00     0.001 A 
HETATM   29  C19 UNL     1      15.789  -2.437  52.356  1.00  0.00     0.009 A 
ENDBRANCH  23  24
ENDBRANCH  21  23
ENDBRANCH  20  21
ENDBRANCH  15  20
TORSDOF 4
ENDMDL
