MODEL 1
REMARK VINA RESULT:      -8.3      0.000      0.000
REMARK  5 active torsions:
REMARK  status: ('A' for Active; 'I' for Inactive)
REMARK       I    between atoms: C1_2  and  N1_3 
REMARK    1  A    between atoms: C1_2  and  C15_21 
REMARK    2  A    between atoms: N1_3  and  C2_4 
REMARK    3  A    between atoms: C6_8  and  N2_9 
REMARK    4  A    between atoms: N2_9  and  C7_10 
REMARK    5  A    between atoms: C10_14  and  C11_15 
ROOT
HETATM    1  C2  UNL     1      28.719   5.747  48.220  1.00  0.00     0.037 A 
HETATM    2  C3  UNL     1      28.180   6.977  48.423  1.00  0.00     0.029 A 
HETATM    3  C4  UNL     1      26.913   7.217  48.913  1.00  0.00     0.004 A 
HETATM    4  C5  UNL     1      26.105   6.143  49.231  1.00  0.00     0.030 A 
HETATM    5  C6  UNL     1      26.606   4.891  49.043  1.00  0.00     0.051 A 
HETATM    6  C14 UNL     1      27.878   4.706  48.552  1.00  0.00     0.059 A 
ENDROOT
BRANCH   5   7
HETATM    7  N2  UNL     1      25.809   3.766  49.358  1.00  0.00    -0.188 N 
HETATM    8  H5  UNL     1      25.242   3.232  48.671  1.00  0.00     0.184 HD
BRANCH   7   9
HETATM    9  C7  UNL     1      25.720   3.268  50.671  1.00  0.00     0.727 A 
HETATM   10  N3  UNL     1      24.494   3.276  51.216  1.00  0.00    -0.075 NA
HETATM   11  C8  UNL     1      24.315   2.817  52.466  1.00  0.00     0.139 A 
HETATM   12  C9  UNL     1      25.437   2.350  53.139  1.00  0.00     0.054 A 
HETATM   13  C10 UNL     1      26.697   2.333  52.598  1.00  0.00     0.101 A 
HETATM   14  N5  UNL     1      26.783   2.806  51.352  1.00  0.00    -0.061 NA
BRANCH  13  15
HETATM   15  C11 UNL     1      27.831   1.832  53.348  1.00  0.00     0.059 A 
HETATM   16  N4  UNL     1      28.652   2.404  54.157  1.00  0.00    -0.291 NA
HETATM   17  C12 UNL     1      29.424   1.222  54.429  1.00  0.00     0.155 A 
HETATM   18  C13 UNL     1      28.489   0.534  53.497  1.00  0.00     0.083 A 
ENDBRANCH  13  15
ENDBRANCH   7   9
ENDBRANCH   5   7
BRANCH   1  19
HETATM   19  N1  UNL     1      30.001   5.444  47.725  1.00  0.00    -0.323 N 
HETATM   20  C1  UNL     1      31.220   5.300  48.408  1.00  0.00     0.256 C 
HETATM   21  O1  UNL     1      31.218   5.459  49.655  1.00  0.00    -0.267 OA
HETATM   22  H1  UNL     1      30.122   5.291  46.695  1.00  0.00     0.169 HD
BRANCH  20  23
HETATM   23  C15 UNL     1      32.493   4.981  47.773  1.00  0.00     0.035 A 
HETATM   24  C16 UNL     1      33.733   5.382  48.227  1.00  0.00     0.036 A 
HETATM   25  C17 UNL     1      34.907   5.050  47.584  1.00  0.00     0.117 A 
HETATM   26  N6  UNL     1      34.879   4.305  46.465  1.00  0.00    -0.273 NA
HETATM   27  C18 UNL     1      33.704   3.882  45.970  1.00  0.00     0.117 A 
HETATM   28  C19 UNL     1      32.540   4.221  46.623  1.00  0.00     0.036 A 
ENDBRANCH  20  23
ENDBRANCH   1  19
TORSDOF 5
ENDMDL
MODEL 2
REMARK VINA RESULT:      -8.2      2.418      7.162
REMARK  5 active torsions:
REMARK  status: ('A' for Active; 'I' for Inactive)
REMARK       I    between atoms: C1_2  and  N1_3 
REMARK    1  A    between atoms: C1_2  and  C15_21 
REMARK    2  A    between atoms: N1_3  and  C2_4 
REMARK    3  A    between atoms: C6_8  and  N2_9 
REMARK    4  A    between atoms: N2_9  and  C7_10 
REMARK    5  A    between atoms: C10_14  and  C11_15 
ROOT
HETATM    1  C2  UNL     1      24.916   2.669  52.096  1.00  0.00     0.037 A 
HETATM    2  C3  UNL     1      24.159   3.378  52.972  1.00  0.00     0.029 A 
HETATM    3  C4  UNL     1      23.489   4.546  52.676  1.00  0.00     0.004 A 
HETATM    4  C5  UNL     1      23.576   5.061  51.398  1.00  0.00     0.030 A 
HETATM    5  C6  UNL     1      24.325   4.382  50.486  1.00  0.00     0.051 A 
HETATM    6  C14 UNL     1      24.973   3.218  50.833  1.00  0.00     0.059 A 
ENDROOT
BRANCH   5   7
HETATM    7  N2  UNL     1      24.437   4.877  49.167  1.00  0.00    -0.188 N 
HETATM    8  H5  UNL     1      23.830   4.591  48.374  1.00  0.00     0.184 HD
BRANCH   7   9
HETATM    9  C7  UNL     1      25.412   5.829  48.815  1.00  0.00     0.727 A 
HETATM   10  N3  UNL     1      24.976   7.091  48.687  1.00  0.00    -0.075 NA
HETATM   11  C8  UNL     1      25.838   8.067  48.355  1.00  0.00     0.139 A 
HETATM   12  C9  UNL     1      27.165   7.703  48.158  1.00  0.00     0.054 A 
HETATM   13  C10 UNL     1      27.629   6.418  48.285  1.00  0.00     0.101 A 
HETATM   14  N5  UNL     1      26.704   5.514  48.618  1.00  0.00    -0.061 NA
BRANCH  13  15
HETATM   15  C11 UNL     1      29.025   6.099  48.068  1.00  0.00     0.059 A 
HETATM   16  N4  UNL     1      29.681   4.994  48.151  1.00  0.00    -0.291 NA
HETATM   17  C12 UNL     1      30.952   5.561  47.787  1.00  0.00     0.155 A 
HETATM   18  C13 UNL     1      30.218   6.852  47.683  1.00  0.00     0.083 A 
ENDBRANCH  13  15
ENDBRANCH   7   9
ENDBRANCH   5   7
BRANCH   1  19
HETATM   19  N1  UNL     1      25.620   1.474  52.341  1.00  0.00    -0.323 N 
HETATM   20  C1  UNL     1      26.993   1.264  52.548  1.00  0.00     0.256 C 
HETATM   21  O1  UNL     1      27.752   2.265  52.519  1.00  0.00    -0.267 OA
HETATM   22  H1  UNL     1      25.086   0.573  52.387  1.00  0.00     0.169 HD
BRANCH  20  23
HETATM   23  C15 UNL     1      27.604  -0.037  52.794  1.00  0.00     0.035 A 
HETATM   24  C16 UNL     1      28.863  -0.239  53.324  1.00  0.00     0.036 A 
HETATM   25  C17 UNL     1      29.391  -1.495  53.535  1.00  0.00     0.117 A 
HETATM   26  N6  UNL     1      28.677  -2.591  53.223  1.00  0.00    -0.273 NA
HETATM   27  C18 UNL     1      27.444  -2.464  52.704  1.00  0.00     0.117 A 
HETATM   28  C19 UNL     1      26.930  -1.203  52.499  1.00  0.00     0.036 A 
ENDBRANCH  20  23
ENDBRANCH   1  19
TORSDOF 5
ENDMDL
MODEL 3
REMARK VINA RESULT:      -8.1      2.876      4.636
REMARK  5 active torsions:
REMARK  status: ('A' for Active; 'I' for Inactive)
REMARK       I    between atoms: C1_2  and  N1_3 
REMARK    1  A    between atoms: C1_2  and  C15_21 
REMARK    2  A    between atoms: N1_3  and  C2_4 
REMARK    3  A    between atoms: C6_8  and  N2_9 
REMARK    4  A    between atoms: N2_9  and  C7_10 
REMARK    5  A    between atoms: C10_14  and  C11_15 
ROOT
HETATM    1  C2  UNL     1      24.277   3.955  49.376  1.00  0.00     0.037 A 
HETATM    2  C3  UNL     1      23.437   3.289  48.543  1.00  0.00     0.029 A 
HETATM    3  C4  UNL     1      22.484   2.375  48.942  1.00  0.00     0.004 A 
HETATM    4  C5  UNL     1      22.349   2.095  50.287  1.00  0.00     0.030 A 
HETATM    5  C6  UNL     1      23.171   2.741  51.159  1.00  0.00     0.051 A 
HETATM    6  C14 UNL     1      24.106   3.646  50.709  1.00  0.00     0.059 A 
ENDROOT
BRANCH   5   7
HETATM    7  N2  UNL     1      23.063   2.481  52.545  1.00  0.00    -0.188 N 
HETATM    8  H5  UNL     1      22.533   3.068  53.216  1.00  0.00     0.184 HD
BRANCH   7   9
HETATM    9  C7  UNL     1      23.686   1.368  53.138  1.00  0.00     0.727 A 
HETATM   10  N3  UNL     1      22.868   0.374  53.518  1.00  0.00    -0.075 NA
HETATM   11  C8  UNL     1      23.376  -0.728  54.093  1.00  0.00     0.139 A 
HETATM   12  C9  UNL     1      24.754  -0.778  54.266  1.00  0.00     0.054 A 
HETATM   13  C10 UNL     1      25.606   0.227  53.883  1.00  0.00     0.101 A 
HETATM   14  N5  UNL     1      25.016   1.284  53.320  1.00  0.00    -0.061 NA
BRANCH  13  15
HETATM   15  C11 UNL     1      27.036   0.118  54.087  1.00  0.00     0.059 A 
HETATM   16  N4  UNL     1      27.831   0.667  54.938  1.00  0.00    -0.291 NA
HETATM   17  C12 UNL     1      29.022   0.029  54.446  1.00  0.00     0.155 A 
HETATM   18  C13 UNL     1      28.126  -0.620  53.450  1.00  0.00     0.083 A 
ENDBRANCH  13  15
ENDBRANCH   7   9
ENDBRANCH   5   7
BRANCH   1  19
HETATM   19  N1  UNL     1      25.265   4.896  49.026  1.00  0.00    -0.323 N 
HETATM   20  C1  UNL     1      26.662   4.755  48.968  1.00  0.00     0.256 C 
HETATM   21  O1  UNL     1      27.153   3.637  49.265  1.00  0.00    -0.267 OA
HETATM   22  H1  UNL     1      24.969   5.865  48.760  1.00  0.00     0.169 HD
BRANCH  20  23
HETATM   23  C15 UNL     1      27.586   5.816  48.587  1.00  0.00     0.035 A 
HETATM   24  C16 UNL     1      27.273   7.158  48.517  1.00  0.00     0.036 A 
HETATM   25  C17 UNL     1      28.190   8.121  48.149  1.00  0.00     0.117 A 
HETATM   26  N6  UNL     1      29.451   7.771  47.838  1.00  0.00    -0.273 NA
HETATM   27  C18 UNL     1      29.821   6.480  47.887  1.00  0.00     0.117 A 
HETATM   28  C19 UNL     1      28.894   5.531  48.256  1.00  0.00     0.036 A 
ENDBRANCH  20  23
ENDBRANCH   1  19
TORSDOF 5
ENDMDL
MODEL 4
REMARK VINA RESULT:      -8.1      3.587      7.594
REMARK  5 active torsions:
REMARK  status: ('A' for Active; 'I' for Inactive)
REMARK       I    between atoms: C1_2  and  N1_3 
REMARK    1  A    between atoms: C1_2  and  C15_21 
REMARK    2  A    between atoms: N1_3  and  C2_4 
REMARK    3  A    between atoms: C6_8  and  N2_9 
REMARK    4  A    between atoms: N2_9  and  C7_10 
REMARK    5  A    between atoms: C10_14  and  C11_15 
ROOT
HETATM    1  C2  UNL     1      23.754   2.163  52.703  1.00  0.00     0.037 A 
HETATM    2  C3  UNL     1      22.441   1.954  52.429  1.00  0.00     0.029 A 
HETATM    3  C4  UNL     1      21.516   2.946  52.177  1.00  0.00     0.004 A 
HETATM    4  C5  UNL     1      21.927   4.264  52.197  1.00  0.00     0.030 A 
HETATM    5  C6  UNL     1      23.236   4.519  52.468  1.00  0.00     0.051 A 
HETATM    6  C14 UNL     1      24.120   3.492  52.712  1.00  0.00     0.059 A 
ENDROOT
BRANCH   5   7
HETATM    7  N2  UNL     1      23.695   5.857  52.498  1.00  0.00    -0.188 N 
HETATM    8  H5  UNL     1      23.766   6.438  53.355  1.00  0.00     0.184 HD
BRANCH   7   9
HETATM    9  C7  UNL     1      24.104   6.523  51.328  1.00  0.00     0.727 A 
HETATM   10  N3  UNL     1      23.263   7.463  50.868  1.00  0.00    -0.075 NA
HETATM   11  C8  UNL     1      23.573   8.151  49.757  1.00  0.00     0.139 A 
HETATM   12  C9  UNL     1      24.775   7.843  49.132  1.00  0.00     0.054 A 
HETATM   13  C10 UNL     1      25.647   6.887  49.588  1.00  0.00     0.101 A 
HETATM   14  N5  UNL     1      25.260   6.253  50.698  1.00  0.00    -0.061 NA
BRANCH  13  15
HETATM   15  C11 UNL     1      26.888   6.609  48.895  1.00  0.00     0.059 A 
HETATM   16  N4  UNL     1      27.778   7.380  48.375  1.00  0.00    -0.291 NA
HETATM   17  C12 UNL     1      28.633   6.317  47.919  1.00  0.00     0.155 A 
HETATM   18  C13 UNL     1      27.620   5.402  48.513  1.00  0.00     0.083 A 
ENDBRANCH  13  15
ENDBRANCH   7   9
ENDBRANCH   5   7
BRANCH   1  19
HETATM   19  N1  UNL     1      24.741   1.193  52.967  1.00  0.00    -0.323 N 
HETATM   20  C1  UNL     1      25.907   0.876  52.251  1.00  0.00     0.256 C 
HETATM   21  O1  UNL     1      26.151   1.530  51.206  1.00  0.00    -0.267 OA
HETATM   22  H1  UNL     1      24.639   0.588  53.816  1.00  0.00     0.169 HD
BRANCH  20  23
HETATM   23  C15 UNL     1      26.857  -0.161  52.633  1.00  0.00     0.035 A 
HETATM   24  C16 UNL     1      26.698  -1.513  52.403  1.00  0.00     0.036 A 
HETATM   25  C17 UNL     1      27.631  -2.451  52.789  1.00  0.00     0.117 A 
HETATM   26  N6  UNL     1      28.757  -2.068  53.417  1.00  0.00    -0.273 NA
HETATM   27  C18 UNL     1      28.974  -0.767  53.672  1.00  0.00     0.117 A 
HETATM   28  C19 UNL     1      28.032   0.159  53.281  1.00  0.00     0.036 A 
ENDBRANCH  20  23
ENDBRANCH   1  19
TORSDOF 5
ENDMDL
MODEL 5
REMARK VINA RESULT:      -8.0      4.895      8.088
REMARK  5 active torsions:
REMARK  status: ('A' for Active; 'I' for Inactive)
REMARK       I    between atoms: C1_2  and  N1_3 
REMARK    1  A    between atoms: C1_2  and  C15_21 
REMARK    2  A    between atoms: N1_3  and  C2_4 
REMARK    3  A    between atoms: C6_8  and  N2_9 
REMARK    4  A    between atoms: N2_9  and  C7_10 
REMARK    5  A    between atoms: C10_14  and  C11_15 
ROOT
HETATM    1  C2  UNL     1      23.559  -0.334  53.684  1.00  0.00     0.037 A 
HETATM    2  C3  UNL     1      22.671  -0.892  54.546  1.00  0.00     0.029 A 
HETATM    3  C4  UNL     1      21.329  -0.580  54.614  1.00  0.00     0.004 A 
HETATM    4  C5  UNL     1      20.819   0.370  53.751  1.00  0.00     0.030 A 
HETATM    5  C6  UNL     1      21.675   0.956  52.870  1.00  0.00     0.051 A 
HETATM    6  C14 UNL     1      23.007   0.608  52.841  1.00  0.00     0.059 A 
ENDROOT
BRANCH   5   7
HETATM    7  N2  UNL     1      21.190   1.933  51.970  1.00  0.00    -0.188 N 
HETATM    8  H5  UNL     1      20.345   2.516  52.129  1.00  0.00     0.184 HD
BRANCH   7   9
HETATM    9  C7  UNL     1      21.837   2.200  50.750  1.00  0.00     0.727 A 
HETATM   10  N3  UNL     1      21.390   1.511  49.689  1.00  0.00    -0.075 NA
HETATM   11  C8  UNL     1      21.949   1.702  48.482  1.00  0.00     0.139 A 
HETATM   12  C9  UNL     1      22.984   2.625  48.400  1.00  0.00     0.054 A 
HETATM   13  C10 UNL     1      23.455   3.339  49.473  1.00  0.00     0.101 A 
HETATM   14  N5  UNL     1      22.842   3.087  50.632  1.00  0.00    -0.061 NA
BRANCH  13  15
HETATM   15  C11 UNL     1      24.538   4.290  49.327  1.00  0.00     0.059 A 
HETATM   16  N4  UNL     1      24.554   5.540  49.021  1.00  0.00    -0.291 NA
HETATM   17  C12 UNL     1      25.982   5.684  49.102  1.00  0.00     0.155 A 
HETATM   18  C13 UNL     1      25.993   4.238  49.457  1.00  0.00     0.083 A 
ENDBRANCH  13  15
ENDBRANCH   7   9
ENDBRANCH   5   7
BRANCH   1  19
HETATM   19  N1  UNL     1      24.935  -0.613  53.569  1.00  0.00    -0.323 N 
HETATM   20  C1  UNL     1      26.045   0.193  53.872  1.00  0.00     0.256 C 
HETATM   21  O1  UNL     1      25.829   1.349  54.316  1.00  0.00    -0.267 OA
HETATM   22  H1  UNL     1      25.232  -1.550  53.209  1.00  0.00     0.169 HD
BRANCH  20  23
HETATM   23  C15 UNL     1      27.434  -0.216  53.708  1.00  0.00     0.035 A 
HETATM   24  C16 UNL     1      27.853  -1.436  53.216  1.00  0.00     0.036 A 
HETATM   25  C17 UNL     1      29.184  -1.770  53.082  1.00  0.00     0.117 A 
HETATM   26  N6  UNL     1      30.141  -0.894  53.436  1.00  0.00    -0.273 NA
HETATM   27  C18 UNL     1      29.801   0.312  53.922  1.00  0.00     0.117 A 
HETATM   28  C19 UNL     1      28.467   0.631  54.050  1.00  0.00     0.036 A 
ENDBRANCH  20  23
ENDBRANCH   1  19
TORSDOF 5
ENDMDL
MODEL 6
REMARK VINA RESULT:      -8.0      4.145      7.827
REMARK  5 active torsions:
REMARK  status: ('A' for Active; 'I' for Inactive)
REMARK       I    between atoms: C1_2  and  N1_3 
REMARK    1  A    between atoms: C1_2  and  C15_21 
REMARK    2  A    between atoms: N1_3  and  C2_4 
REMARK    3  A    between atoms: C6_8  and  N2_9 
REMARK    4  A    between atoms: N2_9  and  C7_10 
REMARK    5  A    between atoms: C10_14  and  C11_15 
ROOT
HETATM    1  C2  UNL     1      23.238   0.225  53.044  1.00  0.00     0.037 A 
HETATM    2  C3  UNL     1      22.193   0.017  53.885  1.00  0.00     0.029 A 
HETATM    3  C4  UNL     1      20.970   0.650  53.801  1.00  0.00     0.004 A 
HETATM    4  C5  UNL     1      20.763   1.573  52.794  1.00  0.00     0.030 A 
HETATM    5  C6  UNL     1      21.785   1.812  51.929  1.00  0.00     0.051 A 
HETATM    6  C14 UNL     1      22.987   1.152  52.055  1.00  0.00     0.059 A 
ENDROOT
BRANCH   5   7
HETATM    7  N2  UNL     1      21.611   2.750  50.885  1.00  0.00    -0.188 N 
HETATM    8  H5  UNL     1      20.888   2.681  50.143  1.00  0.00     0.184 HD
BRANCH   7   9
HETATM    9  C7  UNL     1      22.432   3.887  50.768  1.00  0.00     0.727 A 
HETATM   10  N3  UNL     1      21.922   5.028  51.256  1.00  0.00    -0.075 NA
HETATM   11  C8  UNL     1      22.636   6.163  51.188  1.00  0.00     0.139 A 
HETATM   12  C9  UNL     1      23.894   6.089  50.602  1.00  0.00     0.054 A 
HETATM   13  C10 UNL     1      24.433   4.932  50.098  1.00  0.00     0.101 A 
HETATM   14  N5  UNL     1      23.654   3.852  50.208  1.00  0.00    -0.061 NA
BRANCH  13  15
HETATM   15  C11 UNL     1      25.751   4.915  49.498  1.00  0.00     0.059 A 
HETATM   16  N4  UNL     1      26.424   5.813  48.867  1.00  0.00    -0.291 NA
HETATM   17  C12 UNL     1      27.576   4.984  48.636  1.00  0.00     0.155 A 
HETATM   18  C13 UNL     1      26.820   3.927  49.362  1.00  0.00     0.083 A 
ENDBRANCH  13  15
ENDBRANCH   7   9
ENDBRANCH   5   7
BRANCH   1  19
HETATM   19  N1  UNL     1      24.505  -0.390  53.082  1.00  0.00    -0.323 N 
HETATM   20  C1  UNL     1      25.759   0.151  53.408  1.00  0.00     0.256 C 
HETATM   21  O1  UNL     1      25.812   1.367  53.720  1.00  0.00    -0.267 OA
HETATM   22  H1  UNL     1      24.580  -1.406  52.838  1.00  0.00     0.169 HD
BRANCH  20  23
HETATM   23  C15 UNL     1      27.010  -0.599  53.408  1.00  0.00     0.035 A 
HETATM   24  C16 UNL     1      28.204  -0.157  53.940  1.00  0.00     0.036 A 
HETATM   25  C17 UNL     1      29.359  -0.910  53.912  1.00  0.00     0.117 A 
HETATM   26  N6  UNL     1      29.356  -2.132  53.351  1.00  0.00    -0.273 NA
HETATM   27  C18 UNL     1      28.225  -2.623  52.815  1.00  0.00     0.117 A 
HETATM   28  C19 UNL     1      27.080  -1.858  52.850  1.00  0.00     0.036 A 
ENDBRANCH  20  23
ENDBRANCH   1  19
TORSDOF 5
ENDMDL
MODEL 7
REMARK VINA RESULT:      -7.9      4.659      6.811
REMARK  5 active torsions:
REMARK  status: ('A' for Active; 'I' for Inactive)
REMARK       I    between atoms: C1_2  and  N1_3 
REMARK    1  A    between atoms: C1_2  and  C15_21 
REMARK    2  A    between atoms: N1_3  and  C2_4 
REMARK    3  A    between atoms: C6_8  and  N2_9 
REMARK    4  A    between atoms: N2_9  and  C7_10 
REMARK    5  A    between atoms: C10_14  and  C11_15 
ROOT
HETATM    1  C2  UNL     1      26.052   2.915  50.742  1.00  0.00     0.037 A 
HETATM    2  C3  UNL     1      26.551   3.765  49.808  1.00  0.00     0.029 A 
HETATM    3  C4  UNL     1      25.982   4.968  49.447  1.00  0.00     0.004 A 
HETATM    4  C5  UNL     1      24.813   5.366  50.064  1.00  0.00     0.030 A 
HETATM    5  C6  UNL     1      24.277   4.544  51.006  1.00  0.00     0.051 A 
HETATM    6  C14 UNL     1      24.885   3.353  51.332  1.00  0.00     0.059 A 
ENDROOT
BRANCH   5   7
HETATM    7  N2  UNL     1      23.080   4.918  51.661  1.00  0.00    -0.188 N 
HETATM    8  H5  UNL     1      22.880   5.868  52.029  1.00  0.00     0.184 HD
BRANCH   7   9
HETATM    9  C7  UNL     1      22.034   4.000  51.870  1.00  0.00     0.727 A 
HETATM   10  N3  UNL     1      20.817   4.403  51.475  1.00  0.00    -0.075 NA
HETATM   11  C8  UNL     1      19.759   3.591  51.635  1.00  0.00     0.139 A 
HETATM   12  C9  UNL     1      19.991   2.349  52.214  1.00  0.00     0.054 A 
HETATM   13  C10 UNL     1      21.229   1.919  52.622  1.00  0.00     0.101 A 
HETATM   14  N5  UNL     1      22.222   2.790  52.425  1.00  0.00    -0.061 NA
BRANCH  13  15
HETATM   15  C11 UNL     1      21.411   0.612  53.219  1.00  0.00     0.059 A 
HETATM   16  N4  UNL     1      22.025  -0.444  52.814  1.00  0.00    -0.291 NA
HETATM   17  C12 UNL     1      21.718  -1.236  53.974  1.00  0.00     0.155 A 
HETATM   18  C13 UNL     1      21.000  -0.029  54.468  1.00  0.00     0.083 A 
ENDBRANCH  13  15
ENDBRANCH   7   9
ENDBRANCH   5   7
BRANCH   1  19
HETATM   19  N1  UNL     1      26.588   1.678  51.151  1.00  0.00    -0.323 N 
HETATM   20  C1  UNL     1      27.048   1.269  52.413  1.00  0.00     0.256 C 
HETATM   21  O1  UNL     1      26.994   2.098  53.356  1.00  0.00    -0.267 OA
HETATM   22  H1  UNL     1      26.681   0.910  50.445  1.00  0.00     0.169 HD
BRANCH  20  23
HETATM   23  C15 UNL     1      27.586  -0.053  52.710  1.00  0.00     0.035 A 
HETATM   24  C16 UNL     1      26.931  -1.248  52.491  1.00  0.00     0.036 A 
HETATM   25  C17 UNL     1      27.490  -2.472  52.793  1.00  0.00     0.117 A 
HETATM   26  N6  UNL     1      28.724  -2.541  53.324  1.00  0.00    -0.273 NA
HETATM   27  C18 UNL     1      29.416  -1.414  53.562  1.00  0.00     0.117 A 
HETATM   28  C19 UNL     1      28.844  -0.199  53.256  1.00  0.00     0.036 A 
ENDBRANCH  20  23
ENDBRANCH   1  19
TORSDOF 5
ENDMDL
MODEL 8
REMARK VINA RESULT:      -7.7      5.118      9.193
REMARK  5 active torsions:
REMARK  status: ('A' for Active; 'I' for Inactive)
REMARK       I    between atoms: C1_2  and  N1_3 
REMARK    1  A    between atoms: C1_2  and  C15_21 
REMARK    2  A    between atoms: N1_3  and  C2_4 
REMARK    3  A    between atoms: C6_8  and  N2_9 
REMARK    4  A    between atoms: N2_9  and  C7_10 
REMARK    5  A    between atoms: C10_14  and  C11_15 
ROOT
HETATM    1  C2  UNL     1      23.678   2.275  50.648  1.00  0.00     0.037 A 
HETATM    2  C3  UNL     1      23.631   3.129  49.593  1.00  0.00     0.029 A 
HETATM    3  C4  UNL     1      24.670   3.936  49.179  1.00  0.00     0.004 A 
HETATM    4  C5  UNL     1      25.864   3.896  49.872  1.00  0.00     0.030 A 
HETATM    5  C6  UNL     1      25.955   3.053  50.937  1.00  0.00     0.051 A 
HETATM    6  C14 UNL     1      24.888   2.267  51.309  1.00  0.00     0.059 A 
ENDROOT
BRANCH   5   7
HETATM    7  N2  UNL     1      27.162   2.984  51.671  1.00  0.00    -0.188 N 
HETATM    8  H5  UNL     1      27.967   3.627  51.545  1.00  0.00     0.184 HD
BRANCH   7   9
HETATM    9  C7  UNL     1      27.370   2.005  52.660  1.00  0.00     0.727 A 
HETATM   10  N3  UNL     1      28.646   1.808  53.026  1.00  0.00    -0.075 NA
HETATM   11  C8  UNL     1      28.938   0.893  53.965  1.00  0.00     0.139 A 
HETATM   12  C9  UNL     1      27.877   0.185  54.517  1.00  0.00     0.054 A 
HETATM   13  C10 UNL     1      26.567   0.374  54.155  1.00  0.00     0.101 A 
HETATM   14  N5  UNL     1      26.368   1.302  53.216  1.00  0.00    -0.061 NA
BRANCH  13  15
HETATM   15  C11 UNL     1      25.501  -0.393  54.766  1.00  0.00     0.059 A 
HETATM   16  N4  UNL     1      25.412  -0.997  55.900  1.00  0.00    -0.291 NA
HETATM   17  C12 UNL     1      24.071  -1.475  55.696  1.00  0.00     0.155 A 
HETATM   18  C13 UNL     1      24.147  -0.786  54.378  1.00  0.00     0.083 A 
ENDBRANCH  13  15
ENDBRANCH   7   9
ENDBRANCH   5   7
BRANCH   1  19
HETATM   19  N1  UNL     1      22.652   1.430  51.114  1.00  0.00    -0.323 N 
HETATM   20  C1  UNL     1      21.522   1.730  51.893  1.00  0.00     0.256 C 
HETATM   21  O1  UNL     1      21.357   2.922  52.254  1.00  0.00    -0.267 OA
HETATM   22  H1  UNL     1      22.688   0.411  50.872  1.00  0.00     0.169 HD
BRANCH  20  23
HETATM   23  C15 UNL     1      20.524   0.754  52.314  1.00  0.00     0.035 A 
HETATM   24  C16 UNL     1      19.317   0.527  51.686  1.00  0.00     0.036 A 
HETATM   25  C17 UNL     1      18.409  -0.411  52.130  1.00  0.00     0.117 A 
HETATM   26  N6  UNL     1      18.679  -1.153  53.219  1.00  0.00    -0.273 NA
HETATM   27  C18 UNL     1      19.838  -0.981  53.877  1.00  0.00     0.117 A 
HETATM   28  C19 UNL     1      20.735  -0.041  53.421  1.00  0.00     0.036 A 
ENDBRANCH  20  23
ENDBRANCH   1  19
TORSDOF 5
ENDMDL
MODEL 9
REMARK VINA RESULT:      -7.7      1.347      1.723
REMARK  5 active torsions:
REMARK  status: ('A' for Active; 'I' for Inactive)
REMARK       I    between atoms: C1_2  and  N1_3 
REMARK    1  A    between atoms: C1_2  and  C15_21 
REMARK    2  A    between atoms: N1_3  and  C2_4 
REMARK    3  A    between atoms: C6_8  and  N2_9 
REMARK    4  A    between atoms: N2_9  and  C7_10 
REMARK    5  A    between atoms: C10_14  and  C11_15 
ROOT
HETATM    1  C2  UNL     1      28.045   5.751  48.529  1.00  0.00     0.037 A 
HETATM    2  C3  UNL     1      27.196   6.778  48.270  1.00  0.00     0.029 A 
HETATM    3  C4  UNL     1      25.825   6.730  48.418  1.00  0.00     0.004 A 
HETATM    4  C5  UNL     1      25.241   5.560  48.861  1.00  0.00     0.030 A 
HETATM    5  C6  UNL     1      26.056   4.504  49.132  1.00  0.00     0.051 A 
HETATM    6  C14 UNL     1      27.419   4.604  48.969  1.00  0.00     0.059 A 
ENDROOT
BRANCH   5   7
HETATM    7  N2  UNL     1      25.495   3.289  49.588  1.00  0.00    -0.188 N 
HETATM    8  H5  UNL     1      25.096   2.554  48.972  1.00  0.00     0.184 HD
BRANCH   7   9
HETATM    9  C7  UNL     1      25.432   2.972  50.957  1.00  0.00     0.727 A 
HETATM   10  N3  UNL     1      24.392   3.492  51.629  1.00  0.00    -0.075 NA
HETATM   11  C8  UNL     1      24.251   3.241  52.941  1.00  0.00     0.139 A 
HETATM   12  C9  UNL     1      25.214   2.440  53.543  1.00  0.00     0.054 A 
HETATM   13  C10 UNL     1      26.282   1.900  52.873  1.00  0.00     0.101 A 
HETATM   14  N5  UNL     1      26.344   2.200  51.573  1.00  0.00    -0.061 NA
BRANCH  13  15
HETATM   15  C11 UNL     1      27.255   1.070  53.553  1.00  0.00     0.059 A 
HETATM   16  N4  UNL     1      27.796   1.151  54.718  1.00  0.00    -0.291 NA
HETATM   17  C12 UNL     1      28.605  -0.029  54.578  1.00  0.00     0.155 A 
HETATM   18  C13 UNL     1      27.995  -0.148  53.225  1.00  0.00     0.083 A 
ENDBRANCH  13  15
ENDBRANCH   7   9
ENDBRANCH   5   7
BRANCH   1  19
HETATM   19  N1  UNL     1      29.447   5.743  48.397  1.00  0.00    -0.323 N 
HETATM   20  C1  UNL     1      30.375   6.782  48.577  1.00  0.00     0.256 C 
HETATM   21  O1  UNL     1      29.935   7.913  48.905  1.00  0.00    -0.267 OA
HETATM   22  H1  UNL     1      29.923   4.850  48.126  1.00  0.00     0.169 HD
BRANCH  20  23
HETATM   23  C15 UNL     1      31.816   6.644  48.408  1.00  0.00     0.035 A 
HETATM   24  C16 UNL     1      32.474   5.469  48.104  1.00  0.00     0.036 A 
HETATM   25  C17 UNL     1      33.843   5.397  47.956  1.00  0.00     0.117 A 
HETATM   26  N6  UNL     1      34.600   6.498  48.109  1.00  0.00    -0.273 NA
HETATM   27  C18 UNL     1      34.022   7.674  48.406  1.00  0.00     0.117 A 
HETATM   28  C19 UNL     1      32.653   7.730  48.550  1.00  0.00     0.036 A 
ENDBRANCH  20  23
ENDBRANCH   1  19
TORSDOF 5
ENDMDL
