MODEL 1
REMARK VINA RESULT:      -8.4      0.000      0.000
REMARK  4 active torsions:
REMARK  status: ('A' for Active; 'I' for Inactive)
REMARK    1  A    between atoms: O1_2  and  C2_3 
REMARK    2  A    between atoms: C4_5  and  O2_6 
REMARK    3  A    between atoms: C11_16  and  N3_17 
REMARK    4  A    between atoms: N3_17  and  C12_18 
ROOT
HETATM    1  C2  UNL     1      17.074  -0.495  52.648  1.00  0.00     0.073 A 
HETATM    2  C3  UNL     1      17.434   0.353  51.622  1.00  0.00     0.074 A 
HETATM    3  C4  UNL     1      18.765   0.581  51.257  1.00  0.00     0.081 A 
HETATM    4  C6  UNL     1      19.792  -0.067  51.946  1.00  0.00     0.027 A 
HETATM    5  C7  UNL     1      19.388  -0.907  52.966  1.00  0.00     0.091 A 
HETATM    6  C8  UNL     1      18.083  -1.140  53.336  1.00  0.00     0.074 A 
HETATM    7  O3  UNL     1      20.305  -1.635  53.758  1.00  0.00    -0.289 OA
HETATM    8  C9  UNL     1      21.653  -1.294  54.015  1.00  0.00     0.202 A 
HETATM    9  N1  UNL     1      22.107  -1.693  55.239  1.00  0.00    -0.215 NA
HETATM   10  C10 UNL     1      23.373  -1.433  55.617  1.00  0.00     0.238 A 
HETATM   11  N2  UNL     1      24.164  -0.785  54.777  1.00  0.00    -0.222 NA
HETATM   12  C11 UNL     1      23.841  -0.344  53.560  1.00  0.00     0.160 A 
HETATM   13  C18 UNL     1      22.546  -0.620  53.193  1.00  0.00     0.129 A 
HETATM   14  N4  UNL     1      22.237  -0.153  51.876  1.00  0.00    -0.379 N 
HETATM   15  C19 UNL     1      21.027   0.396  51.314  1.00  0.00     0.164 C 
HETATM   16  H15 UNL     1      23.076  -0.250  51.225  1.00  0.00     0.160 HD
ENDROOT
BRANCH  12  17
HETATM   17  N3  UNL     1      24.733   0.352  52.712  1.00  0.00    -0.339 N 
HETATM   18  H10 UNL     1      24.540   0.731  51.765  1.00  0.00     0.167 HD
BRANCH  17  19
HETATM   19  C12 UNL     1      26.076   0.661  53.050  1.00  0.00     0.035 A 
HETATM   20  C13 UNL     1      26.554   1.921  53.319  1.00  0.00     0.029 A 
HETATM   21  C14 UNL     1      27.857   2.239  53.628  1.00  0.00     0.004 A 
HETATM   22  C15 UNL     1      28.791   1.233  53.684  1.00  0.00     0.019 A 
HETATM   23  C16 UNL     1      28.405  -0.061  53.430  1.00  0.00     0.013 A 
HETATM   24 BR1  UNL     1      29.683  -1.470  53.502  1.00  0.00    -0.051 Br
HETATM   25  C17 UNL     1      27.096  -0.283  53.131  1.00  0.00     0.048 A 
ENDBRANCH  17  19
ENDBRANCH  12  17
BRANCH   3  26
HETATM   26  O2  UNL     1      18.965   1.452  50.214  1.00  0.00    -0.355 OA
HETATM   27  C5  UNL     1      18.271   2.672  50.045  1.00  0.00     0.210 C 
ENDBRANCH   3  26
BRANCH   1  28
HETATM   28  O1  UNL     1      15.770  -0.731  53.023  1.00  0.00    -0.356 OA
HETATM   29  C1  UNL     1      14.782   0.262  52.959  1.00  0.00     0.210 C 
ENDBRANCH   1  28
TORSDOF 4
ENDMDL
MODEL 2
REMARK VINA RESULT:      -8.4      4.674      7.943
REMARK  4 active torsions:
REMARK  status: ('A' for Active; 'I' for Inactive)
REMARK    1  A    between atoms: O1_2  and  C2_3 
REMARK    2  A    between atoms: C4_5  and  O2_6 
REMARK    3  A    between atoms: C11_16  and  N3_17 
REMARK    4  A    between atoms: N3_17  and  C12_18 
ROOT
HETATM    1  C2  UNL     1      27.008  -1.160  53.201  1.00  0.00     0.073 A 
HETATM    2  C3  UNL     1      27.763  -0.096  53.648  1.00  0.00     0.074 A 
HETATM    3  C4  UNL     1      27.266   1.210  53.720  1.00  0.00     0.081 A 
HETATM    4  C6  UNL     1      25.953   1.472  53.328  1.00  0.00     0.027 A 
HETATM    5  C7  UNL     1      25.232   0.379  52.887  1.00  0.00     0.091 A 
HETATM    6  C8  UNL     1      25.708  -0.910  52.811  1.00  0.00     0.074 A 
HETATM    7  O3  UNL     1      23.890   0.479  52.456  1.00  0.00    -0.289 OA
HETATM    8  C9  UNL     1      23.256   1.628  51.929  1.00  0.00     0.202 A 
HETATM    9  N1  UNL     1      22.283   1.360  51.010  1.00  0.00    -0.215 NA
HETATM   10  C10 UNL     1      21.598   2.361  50.427  1.00  0.00     0.238 A 
HETATM   11  N2  UNL     1      21.889   3.607  50.764  1.00  0.00    -0.222 NA
HETATM   12  C11 UNL     1      22.812   3.999  51.644  1.00  0.00     0.160 A 
HETATM   13  C18 UNL     1      23.499   2.962  52.229  1.00  0.00     0.129 A 
HETATM   14  N4  UNL     1      24.467   3.413  53.181  1.00  0.00    -0.379 N 
HETATM   15  C19 UNL     1      25.775   2.910  53.529  1.00  0.00     0.164 C 
HETATM   16  H15 UNL     1      24.120   4.272  53.708  1.00  0.00     0.160 HD
ENDROOT
BRANCH  12  17
HETATM   17  N3  UNL     1      23.081   5.352  51.955  1.00  0.00    -0.339 N 
HETATM   18  H10 UNL     1      22.764   5.884  52.788  1.00  0.00     0.167 HD
BRANCH  17  19
HETATM   19  C12 UNL     1      23.869   6.213  51.148  1.00  0.00     0.035 A 
HETATM   20  C13 UNL     1      23.650   7.559  50.982  1.00  0.00     0.029 A 
HETATM   21  C14 UNL     1      24.393   8.403  50.187  1.00  0.00     0.004 A 
HETATM   22  C15 UNL     1      25.456   7.890  49.485  1.00  0.00     0.019 A 
HETATM   23  C16 UNL     1      25.752   6.552  49.590  1.00  0.00     0.013 A 
HETATM   24 BR1  UNL     1      27.220   5.820  48.625  1.00  0.00    -0.051 Br
HETATM   25  C17 UNL     1      24.963   5.792  50.398  1.00  0.00     0.048 A 
ENDBRANCH  17  19
ENDBRANCH  12  17
BRANCH   3  26
HETATM   26  O2  UNL     1      28.138   2.163  54.187  1.00  0.00    -0.355 OA
HETATM   27  C5  UNL     1      29.497   1.925  54.494  1.00  0.00     0.210 C 
ENDBRANCH   3  26
BRANCH   1  28
HETATM   28  O1  UNL     1      27.480  -2.452  53.122  1.00  0.00    -0.356 OA
HETATM   29  C1  UNL     1      28.849  -2.753  53.172  1.00  0.00     0.210 C 
ENDBRANCH   1  28
TORSDOF 4
ENDMDL
MODEL 3
REMARK VINA RESULT:      -8.3      5.081      7.047
REMARK  4 active torsions:
REMARK  status: ('A' for Active; 'I' for Inactive)
REMARK    1  A    between atoms: O1_2  and  C2_3 
REMARK    2  A    between atoms: C4_5  and  O2_6 
REMARK    3  A    between atoms: C11_16  and  N3_17 
REMARK    4  A    between atoms: N3_17  and  C12_18 
ROOT
HETATM    1  C2  UNL     1      22.561  -0.436  53.222  1.00  0.00     0.073 A 
HETATM    2  C3  UNL     1      23.918  -0.288  53.422  1.00  0.00     0.074 A 
HETATM    3  C4  UNL     1      24.568   0.947  53.335  1.00  0.00     0.081 A 
HETATM    4  C6  UNL     1      23.833   2.095  53.033  1.00  0.00     0.027 A 
HETATM    5  C7  UNL     1      22.479   1.903  52.840  1.00  0.00     0.091 A 
HETATM    6  C8  UNL     1      21.827   0.693  52.923  1.00  0.00     0.074 A 
HETATM    7  O3  UNL     1      21.598   2.963  52.528  1.00  0.00    -0.289 OA
HETATM    8  C9  UNL     1      21.936   4.180  51.891  1.00  0.00     0.202 A 
HETATM    9  N1  UNL     1      20.937   4.705  51.122  1.00  0.00    -0.215 NA
HETATM   10  C10 UNL     1      21.121   5.860  50.457  1.00  0.00     0.238 A 
HETATM   11  N2  UNL     1      22.289   6.473  50.564  1.00  0.00    -0.222 NA
HETATM   12  C11 UNL     1      23.339   6.065  51.280  1.00  0.00     0.160 A 
HETATM   13  C18 UNL     1      23.130   4.885  51.952  1.00  0.00     0.129 A 
HETATM   14  N4  UNL     1      24.266   4.485  52.724  1.00  0.00    -0.379 N 
HETATM   15  C19 UNL     1      24.811   3.182  53.021  1.00  0.00     0.164 C 
HETATM   16  H15 UNL     1      24.767   5.329  53.141  1.00  0.00     0.160 HD
ENDROOT
BRANCH  12  17
HETATM   17  N3  UNL     1      24.567   6.764  51.347  1.00  0.00    -0.339 N 
HETATM   18  H10 UNL     1      24.917   7.353  52.126  1.00  0.00     0.167 HD
BRANCH  17  19
HETATM   19  C12 UNL     1      25.547   6.751  50.321  1.00  0.00     0.035 A 
HETATM   20  C13 UNL     1      25.921   5.644  49.599  1.00  0.00     0.029 A 
HETATM   21  C14 UNL     1      26.884   5.611  48.615  1.00  0.00     0.004 A 
HETATM   22  C15 UNL     1      27.550   6.770  48.299  1.00  0.00     0.019 A 
HETATM   23  C16 UNL     1      27.243   7.930  48.970  1.00  0.00     0.013 A 
HETATM   24 BR1  UNL     1      28.154   9.547  48.549  1.00  0.00    -0.051 Br
HETATM   25  C17 UNL     1      26.278   7.869  49.928  1.00  0.00     0.048 A 
ENDBRANCH  17  19
ENDBRANCH  12  17
BRANCH   3  26
HETATM   26  O2  UNL     1      25.923   0.935  53.560  1.00  0.00    -0.355 OA
HETATM   27  C5  UNL     1      26.553   0.235  54.614  1.00  0.00     0.210 C 
ENDBRANCH   3  26
BRANCH   1  28
HETATM   28  O1  UNL     1      21.904  -1.644  53.303  1.00  0.00    -0.356 OA
HETATM   29  C1  UNL     1      20.877  -1.877  54.228  1.00  0.00     0.210 C 
ENDBRANCH   1  28
TORSDOF 4
ENDMDL
MODEL 4
REMARK VINA RESULT:      -8.3      5.268      7.489
REMARK  4 active torsions:
REMARK  status: ('A' for Active; 'I' for Inactive)
REMARK    1  A    between atoms: O1_2  and  C2_3 
REMARK    2  A    between atoms: C4_5  and  O2_6 
REMARK    3  A    between atoms: C11_16  and  N3_17 
REMARK    4  A    between atoms: N3_17  and  C12_18 
ROOT
HETATM    1  C2  UNL     1      23.409  -0.294  53.612  1.00  0.00     0.073 A 
HETATM    2  C3  UNL     1      24.703  -0.755  53.484  1.00  0.00     0.074 A 
HETATM    3  C4  UNL     1      25.715  -0.012  52.868  1.00  0.00     0.081 A 
HETATM    4  C6  UNL     1      25.428   1.252  52.351  1.00  0.00     0.027 A 
HETATM    5  C7  UNL     1      24.121   1.675  52.499  1.00  0.00     0.091 A 
HETATM    6  C8  UNL     1      23.116   0.955  53.103  1.00  0.00     0.074 A 
HETATM    7  O3  UNL     1      23.672   2.930  52.031  1.00  0.00    -0.289 OA
HETATM    8  C9  UNL     1      24.231   3.685  50.973  1.00  0.00     0.202 A 
HETATM    9  N1  UNL     1      23.325   4.438  50.283  1.00  0.00    -0.215 NA
HETATM   10  C10 UNL     1      23.718   5.205  49.250  1.00  0.00     0.238 A 
HETATM   11  N2  UNL     1      25.000   5.213  48.919  1.00  0.00    -0.222 NA
HETATM   12  C11 UNL     1      25.978   4.526  49.512  1.00  0.00     0.160 A 
HETATM   13  C18 UNL     1      25.556   3.750  50.564  1.00  0.00     0.129 A 
HETATM   14  N4  UNL     1      26.630   3.042  51.190  1.00  0.00    -0.379 N 
HETATM   15  C19 UNL     1      26.692   1.731  51.790  1.00  0.00     0.164 C 
HETATM   16  H15 UNL     1      27.524   3.623  51.197  1.00  0.00     0.160 HD
ENDROOT
BRANCH  12  17
HETATM   17  N3  UNL     1      27.332   4.571  49.104  1.00  0.00    -0.339 N 
HETATM   18  H10 UNL     1      28.048   3.827  49.206  1.00  0.00     0.167 HD
BRANCH  17  19
HETATM   19  C12 UNL     1      27.932   5.682  48.456  1.00  0.00     0.035 A 
HETATM   20  C13 UNL     1      27.280   6.841  48.109  1.00  0.00     0.029 A 
HETATM   21  C14 UNL     1      27.843   7.918  47.462  1.00  0.00     0.004 A 
HETATM   22  C15 UNL     1      29.172   7.867  47.121  1.00  0.00     0.019 A 
HETATM   23  C16 UNL     1      29.906   6.747  47.429  1.00  0.00     0.013 A 
HETATM   24 BR1  UNL     1      31.750   6.655  46.964  1.00  0.00    -0.051 Br
HETATM   25  C17 UNL     1      29.267   5.729  48.068  1.00  0.00     0.048 A 
ENDBRANCH  17  19
ENDBRANCH  12  17
BRANCH   3  26
HETATM   26  O2  UNL     1      26.953  -0.604  52.818  1.00  0.00    -0.355 OA
HETATM   27  C5  UNL     1      27.173  -1.989  52.637  1.00  0.00     0.210 C 
ENDBRANCH   3  26
BRANCH   1  28
HETATM   28  O1  UNL     1      22.398  -1.011  54.214  1.00  0.00    -0.356 OA
HETATM   29  C1  UNL     1      21.170  -0.428  54.559  1.00  0.00     0.210 C 
ENDBRANCH   1  28
TORSDOF 4
ENDMDL
MODEL 5
REMARK VINA RESULT:      -8.2      5.690      8.728
REMARK  4 active torsions:
REMARK  status: ('A' for Active; 'I' for Inactive)
REMARK    1  A    between atoms: O1_2  and  C2_3 
REMARK    2  A    between atoms: C4_5  and  O2_6 
REMARK    3  A    between atoms: C11_16  and  N3_17 
REMARK    4  A    between atoms: N3_17  and  C12_18 
ROOT
HETATM    1  C2  UNL     1      27.194   8.081  48.304  1.00  0.00     0.073 A 
HETATM    2  C3  UNL     1      28.190   7.157  48.067  1.00  0.00     0.074 A 
HETATM    3  C4  UNL     1      28.071   5.807  48.415  1.00  0.00     0.081 A 
HETATM    4  C6  UNL     1      26.903   5.352  49.029  1.00  0.00     0.027 A 
HETATM    5  C7  UNL     1      25.932   6.309  49.248  1.00  0.00     0.091 A 
HETATM    6  C8  UNL     1      26.036   7.640  48.912  1.00  0.00     0.074 A 
HETATM    7  O3  UNL     1      24.694   6.008  49.859  1.00  0.00    -0.289 OA
HETATM    8  C9  UNL     1      24.431   4.944  50.753  1.00  0.00     0.202 A 
HETATM    9  N1  UNL     1      23.470   5.219  51.683  1.00  0.00    -0.215 NA
HETATM   10  C10 UNL     1      23.119   4.295  52.598  1.00  0.00     0.238 A 
HETATM   11  N2  UNL     1      23.726   3.120  52.575  1.00  0.00    -0.222 NA
HETATM   12  C11 UNL     1      24.676   2.731  51.721  1.00  0.00     0.160 A 
HETATM   13  C18 UNL     1      25.018   3.687  50.796  1.00  0.00     0.129 A 
HETATM   14  N4  UNL     1      26.023   3.233  49.884  1.00  0.00    -0.379 N 
HETATM   15  C19 UNL     1      27.120   3.922  49.248  1.00  0.00     0.164 C 
HETATM   16  H15 UNL     1      25.901   2.198  49.657  1.00  0.00     0.160 HD
ENDROOT
BRANCH  12  17
HETATM   17  N3  UNL     1      25.293   1.459  51.755  1.00  0.00    -0.339 N 
HETATM   18  H10 UNL     1      24.964   0.585  51.302  1.00  0.00     0.167 HD
BRANCH  17  19
HETATM   19  C12 UNL     1      26.510   1.181  52.429  1.00  0.00     0.035 A 
HETATM   20  C13 UNL     1      27.298   2.118  53.054  1.00  0.00     0.029 A 
HETATM   21  C14 UNL     1      28.491   1.868  53.694  1.00  0.00     0.004 A 
HETATM   22  C15 UNL     1      28.965   0.580  53.735  1.00  0.00     0.019 A 
HETATM   23  C16 UNL     1      28.243  -0.426  53.138  1.00  0.00     0.013 A 
HETATM   24 BR1  UNL     1      28.883  -2.218  53.181  1.00  0.00    -0.051 Br
HETATM   25  C17 UNL     1      27.075  -0.086  52.526  1.00  0.00     0.048 A 
ENDBRANCH  17  19
ENDBRANCH  12  17
BRANCH   3  26
HETATM   26  O2  UNL     1      29.147   5.009  48.114  1.00  0.00    -0.355 OA
HETATM   27  C5  UNL     1      30.435   5.490  47.785  1.00  0.00     0.210 C 
ENDBRANCH   3  26
BRANCH   1  28
HETATM   28  O1  UNL     1      27.293   9.414  47.971  1.00  0.00    -0.356 OA
HETATM   29  C1  UNL     1      26.300  10.345  48.306  1.00  0.00     0.210 C 
ENDBRANCH   1  28
TORSDOF 4
ENDMDL
MODEL 6
REMARK VINA RESULT:      -8.1      5.432      8.927
REMARK  4 active torsions:
REMARK  status: ('A' for Active; 'I' for Inactive)
REMARK    1  A    between atoms: O1_2  and  C2_3 
REMARK    2  A    between atoms: C4_5  and  O2_6 
REMARK    3  A    between atoms: C11_16  and  N3_17 
REMARK    4  A    between atoms: N3_17  and  C12_18 
ROOT
HETATM    1  C2  UNL     1      26.669   0.061  53.722  1.00  0.00     0.073 A 
HETATM    2  C3  UNL     1      25.307  -0.066  53.895  1.00  0.00     0.074 A 
HETATM    3  C4  UNL     1      24.374   0.534  53.043  1.00  0.00     0.081 A 
HETATM    4  C6  UNL     1      24.817   1.298  51.962  1.00  0.00     0.027 A 
HETATM    5  C7  UNL     1      26.188   1.400  51.825  1.00  0.00     0.091 A 
HETATM    6  C8  UNL     1      27.117   0.815  52.656  1.00  0.00     0.074 A 
HETATM    7  O3  UNL     1      26.794   2.137  50.783  1.00  0.00    -0.289 OA
HETATM    8  C9  UNL     1      26.230   3.228  50.083  1.00  0.00     0.202 A 
HETATM    9  N1  UNL     1      27.140   4.153  49.659  1.00  0.00    -0.215 NA
HETATM   10  C10 UNL     1      26.741   5.245  48.980  1.00  0.00     0.238 A 
HETATM   11  N2  UNL     1      25.450   5.401  48.734  1.00  0.00    -0.222 NA
HETATM   12  C11 UNL     1      24.467   4.573  49.093  1.00  0.00     0.160 A 
HETATM   13  C18 UNL     1      24.895   3.465  49.784  1.00  0.00     0.129 A 
HETATM   14  N4  UNL     1      23.820   2.589  50.136  1.00  0.00    -0.379 N 
HETATM   15  C19 UNL     1      23.599   1.765  51.300  1.00  0.00     0.164 C 
HETATM   16  H15 UNL     1      23.073   2.568  49.375  1.00  0.00     0.160 HD
ENDROOT
BRANCH  12  17
HETATM   17  N3  UNL     1      23.101   4.802  48.806  1.00  0.00    -0.339 N 
HETATM   18  H10 UNL     1      22.335   4.986  49.482  1.00  0.00     0.167 HD
BRANCH  17  19
HETATM   19  C12 UNL     1      22.555   4.828  47.496  1.00  0.00     0.035 A 
HETATM   20  C13 UNL     1      21.991   3.752  46.854  1.00  0.00     0.029 A 
HETATM   21  C14 UNL     1      21.476   3.757  45.577  1.00  0.00     0.004 A 
HETATM   22  C15 UNL     1      21.511   4.922  44.851  1.00  0.00     0.019 A 
HETATM   23  C16 UNL     1      22.057   6.051  45.412  1.00  0.00     0.013 A 
HETATM   24 BR1  UNL     1      22.117   7.676  44.423  1.00  0.00    -0.051 Br
HETATM   25  C17 UNL     1      22.544   5.955  46.680  1.00  0.00     0.048 A 
ENDBRANCH  17  19
ENDBRANCH  12  17
BRANCH   3  26
HETATM   26  O2  UNL     1      23.052   0.316  53.344  1.00  0.00    -0.355 OA
HETATM   27  C5  UNL     1      22.512  -0.933  53.724  1.00  0.00     0.210 C 
ENDBRANCH   3  26
BRANCH   1  28
HETATM   28  O1  UNL     1      27.603  -0.521  54.552  1.00  0.00    -0.356 OA
HETATM   29  C1  UNL     1      28.945  -0.115  54.568  1.00  0.00     0.210 C 
ENDBRANCH   1  28
TORSDOF 4
ENDMDL
MODEL 7
REMARK VINA RESULT:      -8.1      6.399     10.049
REMARK  4 active torsions:
REMARK  status: ('A' for Active; 'I' for Inactive)
REMARK    1  A    between atoms: O1_2  and  C2_3 
REMARK    2  A    between atoms: C4_5  and  O2_6 
REMARK    3  A    between atoms: C11_16  and  N3_17 
REMARK    4  A    between atoms: N3_17  and  C12_18 
ROOT
HETATM    1  C2  UNL     1      29.143   8.454  48.463  1.00  0.00     0.073 A 
HETATM    2  C3  UNL     1      29.784   7.278  48.130  1.00  0.00     0.074 A 
HETATM    3  C4  UNL     1      29.170   6.025  48.229  1.00  0.00     0.081 A 
HETATM    4  C6  UNL     1      27.853   5.934  48.682  1.00  0.00     0.027 A 
HETATM    5  C7  UNL     1      27.249   7.134  49.004  1.00  0.00     0.091 A 
HETATM    6  C8  UNL     1      27.840   8.373  48.912  1.00  0.00     0.074 A 
HETATM    7  O3  UNL     1      25.919   7.211  49.476  1.00  0.00    -0.289 OA
HETATM    8  C9  UNL     1      25.204   6.196  50.153  1.00  0.00     0.202 A 
HETATM    9  N1  UNL     1      24.291   6.660  51.056  1.00  0.00    -0.215 NA
HETATM   10  C10 UNL     1      23.540   5.803  51.773  1.00  0.00     0.238 A 
HETATM   11  N2  UNL     1      23.707   4.505  51.582  1.00  0.00    -0.222 NA
HETATM   12  C11 UNL     1      24.560   3.928  50.735  1.00  0.00     0.160 A 
HETATM   13  C18 UNL     1      25.317   4.819  50.012  1.00  0.00     0.129 A 
HETATM   14  N4  UNL     1      26.207   4.171  49.099  1.00  0.00    -0.379 N 
HETATM   15  C19 UNL     1      27.541   4.505  48.661  1.00  0.00     0.164 C 
HETATM   16  H15 UNL     1      25.766   3.291  48.689  1.00  0.00     0.160 HD
ENDROOT
BRANCH  12  17
HETATM   17  N3  UNL     1      24.697   2.528  50.584  1.00  0.00    -0.339 N 
HETATM   18  H10 UNL     1      24.657   1.980  49.703  1.00  0.00     0.167 HD
BRANCH  17  19
HETATM   19  C12 UNL     1      24.932   1.631  51.658  1.00  0.00     0.035 A 
HETATM   20  C13 UNL     1      23.956   1.054  52.434  1.00  0.00     0.029 A 
HETATM   21  C14 UNL     1      24.170   0.198  53.492  1.00  0.00     0.004 A 
HETATM   22  C15 UNL     1      25.459  -0.134  53.827  1.00  0.00     0.019 A 
HETATM   23  C16 UNL     1      26.502   0.395  53.105  1.00  0.00     0.013 A 
HETATM   24 BR1  UNL     1      28.298  -0.051  53.555  1.00  0.00    -0.051 Br
HETATM   25  C17 UNL     1      26.198   1.233  52.077  1.00  0.00     0.048 A 
ENDBRANCH  17  19
ENDBRANCH  12  17
BRANCH   3  26
HETATM   26  O2  UNL     1      29.937   4.946  47.861  1.00  0.00    -0.355 OA
HETATM   27  C5  UNL     1      31.323   5.003  47.592  1.00  0.00     0.210 C 
ENDBRANCH   3  26
BRANCH   1  28
HETATM   28  O1  UNL     1      29.731   9.696  48.373  1.00  0.00    -0.356 OA
HETATM   29  C1  UNL     1      30.639  10.165  49.333  1.00  0.00     0.210 C 
ENDBRANCH   1  28
TORSDOF 4
ENDMDL
MODEL 8
REMARK VINA RESULT:      -7.9      7.375     11.172
REMARK  4 active torsions:
REMARK  status: ('A' for Active; 'I' for Inactive)
REMARK    1  A    between atoms: O1_2  and  C2_3 
REMARK    2  A    between atoms: C4_5  and  O2_6 
REMARK    3  A    between atoms: C11_16  and  N3_17 
REMARK    4  A    between atoms: N3_17  and  C12_18 
ROOT
HETATM    1  C2  UNL     1      30.421   9.182  48.545  1.00  0.00     0.073 A 
HETATM    2  C3  UNL     1      30.979   7.972  48.187  1.00  0.00     0.074 A 
HETATM    3  C4  UNL     1      30.242   6.785  48.127  1.00  0.00     0.081 A 
HETATM    4  C6  UNL     1      28.882   6.799  48.437  1.00  0.00     0.027 A 
HETATM    5  C7  UNL     1      28.363   8.030  48.791  1.00  0.00     0.091 A 
HETATM    6  C8  UNL     1      29.076   9.205  48.854  1.00  0.00     0.074 A 
HETATM    7  O3  UNL     1      27.004   8.211  49.132  1.00  0.00    -0.289 OA
HETATM    8  C9  UNL     1      26.127   7.231  49.654  1.00  0.00     0.202 A 
HETATM    9  N1  UNL     1      25.172   7.724  50.494  1.00  0.00    -0.215 NA
HETATM   10  C10 UNL     1      24.270   6.902  51.064  1.00  0.00     0.238 A 
HETATM   11  N2  UNL     1      24.332   5.609  50.791  1.00  0.00    -0.222 NA
HETATM   12  C11 UNL     1      25.213   5.006  49.989  1.00  0.00     0.160 A 
HETATM   13  C18 UNL     1      26.123   5.863  49.418  1.00  0.00     0.129 A 
HETATM   14  N4  UNL     1      27.040   5.190  48.550  1.00  0.00    -0.379 N 
HETATM   15  C19 UNL     1      28.439   5.415  48.275  1.00  0.00     0.164 C 
HETATM   16  H15 UNL     1      26.564   4.389  48.030  1.00  0.00     0.160 HD
ENDROOT
BRANCH  12  17
HETATM   17  N3  UNL     1      25.231   3.614  49.744  1.00  0.00    -0.339 N 
HETATM   18  H10 UNL     1      25.106   3.130  48.835  1.00  0.00     0.167 HD
BRANCH  17  19
HETATM   19  C12 UNL     1      25.445   2.632  50.746  1.00  0.00     0.035 A 
HETATM   20  C13 UNL     1      26.676   2.187  51.167  1.00  0.00     0.029 A 
HETATM   21  C14 UNL     1      26.899   1.221  52.122  1.00  0.00     0.004 A 
HETATM   22  C15 UNL     1      25.821   0.629  52.732  1.00  0.00     0.019 A 
HETATM   23  C16 UNL     1      24.550   1.010  52.376  1.00  0.00     0.013 A 
HETATM   24 BR1  UNL     1      23.041   0.200  53.208  1.00  0.00    -0.051 Br
HETATM   25  C17 UNL     1      24.423   1.972  51.421  1.00  0.00     0.048 A 
ENDBRANCH  17  19
ENDBRANCH  12  17
BRANCH   3  26
HETATM   26  O2  UNL     1      30.937   5.661  47.754  1.00  0.00    -0.355 OA
HETATM   27  C5  UNL     1      32.297   5.421  48.058  1.00  0.00     0.210 C 
ENDBRANCH   3  26
BRANCH   1  28
HETATM   28  O1  UNL     1      31.130  10.361  48.611  1.00  0.00    -0.356 OA
HETATM   29  C1  UNL     1      30.611  11.513  49.218  1.00  0.00     0.210 C 
ENDBRANCH   1  28
TORSDOF 4
ENDMDL
MODEL 9
REMARK VINA RESULT:      -7.9      5.434      8.843
REMARK  4 active torsions:
REMARK  status: ('A' for Active; 'I' for Inactive)
REMARK    1  A    between atoms: O1_2  and  C2_3 
REMARK    2  A    between atoms: C4_5  and  O2_6 
REMARK    3  A    between atoms: C11_16  and  N3_17 
REMARK    4  A    between atoms: N3_17  and  C12_18 
ROOT
HETATM    1  C2  UNL     1      26.807   0.071  53.774  1.00  0.00     0.073 A 
HETATM    2  C3  UNL     1      25.450  -0.052  53.990  1.00  0.00     0.074 A 
HETATM    3  C4  UNL     1      24.493   0.535  53.156  1.00  0.00     0.081 A 
HETATM    4  C6  UNL     1      24.904   1.284  52.052  1.00  0.00     0.027 A 
HETATM    5  C7  UNL     1      26.270   1.382  51.873  1.00  0.00     0.091 A 
HETATM    6  C8  UNL     1      27.223   0.809  52.685  1.00  0.00     0.074 A 
HETATM    7  O3  UNL     1      26.846   2.104  50.803  1.00  0.00    -0.289 OA
HETATM    8  C9  UNL     1      26.261   3.186  50.105  1.00  0.00     0.202 A 
HETATM    9  N1  UNL     1      27.158   4.104  49.641  1.00  0.00    -0.215 NA
HETATM   10  C10 UNL     1      26.740   5.186  48.958  1.00  0.00     0.238 A 
HETATM   11  N2  UNL     1      25.442   5.339  48.748  1.00  0.00    -0.222 NA
HETATM   12  C11 UNL     1      24.469   4.518  49.148  1.00  0.00     0.160 A 
HETATM   13  C18 UNL     1      24.917   3.419  49.842  1.00  0.00     0.129 A 
HETATM   14  N4  UNL     1      23.854   2.549  50.238  1.00  0.00    -0.379 N 
HETATM   15  C19 UNL     1      23.667   1.741  51.420  1.00  0.00     0.164 C 
HETATM   16  H15 UNL     1      23.085   2.517  49.500  1.00  0.00     0.160 HD
ENDROOT
BRANCH  12  17
HETATM   17  N3  UNL     1      23.096   4.743  48.898  1.00  0.00    -0.339 N 
HETATM   18  H10 UNL     1      22.411   4.080  48.488  1.00  0.00     0.167 HD
BRANCH  17  19
HETATM   19  C12 UNL     1      22.420   5.955  49.198  1.00  0.00     0.035 A 
HETATM   20  C13 UNL     1      22.075   6.375  50.460  1.00  0.00     0.029 A 
HETATM   21  C14 UNL     1      21.402   7.537  50.765  1.00  0.00     0.004 A 
HETATM   22  C15 UNL     1      21.029   8.376  49.743  1.00  0.00     0.019 A 
HETATM   23  C16 UNL     1      21.332   8.038  48.446  1.00  0.00     0.013 A 
HETATM   24 BR1  UNL     1      20.823   9.185  47.015  1.00  0.00    -0.051 Br
HETATM   25  C17 UNL     1      21.999   6.869  48.238  1.00  0.00     0.048 A 
ENDBRANCH  17  19
ENDBRANCH  12  17
BRANCH   3  26
HETATM   26  O2  UNL     1      23.180   0.323  53.500  1.00  0.00    -0.355 OA
HETATM   27  C5  UNL     1      22.682  -0.876  54.057  1.00  0.00     0.210 C 
ENDBRANCH   3  26
BRANCH   1  28
HETATM   28  O1  UNL     1      27.765  -0.500  54.584  1.00  0.00    -0.356 OA
HETATM   29  C1  UNL     1      29.122  -0.522  54.236  1.00  0.00     0.210 C 
ENDBRANCH   1  28
TORSDOF 4
ENDMDL
