MODEL 1
REMARK VINA RESULT:      -8.0      0.000      0.000
REMARK  5 active torsions:
REMARK  status: ('A' for Active; 'I' for Inactive)
REMARK    1  A    between atoms: C2_2  and  C3_3 
REMARK       I    between atoms: C3_3  and  N1_5 
REMARK    2  A    between atoms: N1_5  and  C4_6 
REMARK    3  A    between atoms: C7_9  and  N2_10 
REMARK    4  A    between atoms: N2_10  and  C8_11 
REMARK    5  A    between atoms: C17_24  and  O2_25 
ROOT
HETATM    1  C4  UNL     1      23.079   3.042  50.188  1.00  0.00     0.069 A 
HETATM    2  C5  UNL     1      23.435   2.025  51.045  1.00  0.00     0.048 A 
HETATM    3  C6  UNL     1      22.600   1.515  52.015  1.00  0.00     0.023 A 
HETATM    4  C7  UNL     1      22.927   0.499  52.887  1.00  0.00     0.067 A 
HETATM    5  C12 UNL     1      21.984   0.098  53.800  1.00  0.00     0.089 A 
HETATM    6  C13 UNL     1      22.235  -0.947  54.741  1.00  0.00     0.103 C 
HETATM    7  N3  UNL     1      22.424  -1.782  55.513  1.00  0.00    -0.191 NA
HETATM    8  C14 UNL     1      20.721   0.686  53.869  1.00  0.00     0.142 A 
HETATM    9  N4  UNL     1      20.445   1.681  52.992  1.00  0.00    -0.259 NA
HETATM   10  C15 UNL     1      21.351   2.093  52.085  1.00  0.00     0.071 A 
HETATM   11  C16 UNL     1      20.982   3.112  51.233  1.00  0.00     0.071 A 
HETATM   12  C17 UNL     1      21.825   3.607  50.275  1.00  0.00     0.097 A 
ENDROOT
BRANCH   4  13
HETATM   13  N2  UNL     1      24.206  -0.086  52.805  1.00  0.00    -0.357 N 
HETATM   14  H6  UNL     1      24.540  -0.799  52.147  1.00  0.00     0.166 HD
BRANCH  13  15
HETATM   15  C8  UNL     1      25.363   0.129  53.575  1.00  0.00     0.023 A 
HETATM   16  C9  UNL     1      26.159  -0.620  54.287  1.00  0.00     0.017 A 
HETATM   17  C10 UNL     1      27.034   0.468  54.686  1.00  0.00     0.102 A 
HETATM   18 BR1  UNL     1      28.849   0.350  54.017  1.00  0.00    -0.085 Br
HETATM   19  C11 UNL     1      26.137   1.320  53.870  1.00  0.00     0.125 A 
HETATM   20 BR2  UNL     1      27.099   2.015  52.313  1.00  0.00    -0.083 Br
ENDBRANCH  13  15
ENDBRANCH   4  13
BRANCH   1  21
HETATM   21  N1  UNL     1      23.954   3.552  49.197  1.00  0.00    -0.321 N 
HETATM   22  C3  UNL     1      24.836   4.472  49.800  1.00  0.00     0.245 C 
HETATM   23  O1  UNL     1      24.798   4.754  51.045  1.00  0.00    -0.268 OA
HETATM   24  H4  UNL     1      24.154   3.469  48.177  1.00  0.00     0.169 HD
BRANCH  22  25
HETATM   25  C2  UNL     1      25.928   5.284  49.253  1.00  0.00     0.064 C 
HETATM   26  C1  UNL     1      26.747   4.244  49.222  1.00  0.00     0.017 C 
ENDBRANCH  22  25
ENDBRANCH   1  21
BRANCH  12  27
HETATM   27  O2  UNL     1      21.449   4.631  49.421  1.00  0.00    -0.354 OA
HETATM   28  C18 UNL     1      20.792   5.789  49.879  1.00  0.00     0.210 C 
ENDBRANCH  12  27
TORSDOF 5
ENDMDL
MODEL 2
REMARK VINA RESULT:      -7.9      2.949      5.793
REMARK  5 active torsions:
REMARK  status: ('A' for Active; 'I' for Inactive)
REMARK    1  A    between atoms: C2_2  and  C3_3 
REMARK       I    between atoms: C3_3  and  N1_5 
REMARK    2  A    between atoms: N1_5  and  C4_6 
REMARK    3  A    between atoms: C7_9  and  N2_10 
REMARK    4  A    between atoms: N2_10  and  C8_11 
REMARK    5  A    between atoms: C17_24  and  O2_25 
ROOT
HETATM    1  C4  UNL     1      25.666   0.853  52.593  1.00  0.00     0.069 A 
HETATM    2  C5  UNL     1      24.655   1.741  52.299  1.00  0.00     0.048 A 
HETATM    3  C6  UNL     1      23.321   1.481  52.523  1.00  0.00     0.023 A 
HETATM    4  C7  UNL     1      22.287   2.347  52.240  1.00  0.00     0.067 A 
HETATM    5  C12 UNL     1      21.006   1.943  52.523  1.00  0.00     0.089 A 
HETATM    6  C13 UNL     1      19.874   2.775  52.263  1.00  0.00     0.103 C 
HETATM    7  N3  UNL     1      18.949   3.429  52.052  1.00  0.00    -0.191 NA
HETATM    8  C14 UNL     1      20.728   0.696  53.081  1.00  0.00     0.142 A 
HETATM    9  N4  UNL     1      21.776  -0.121  53.342  1.00  0.00    -0.259 NA
HETATM   10  C15 UNL     1      23.043   0.249  53.075  1.00  0.00     0.071 A 
HETATM   11  C16 UNL     1      24.046  -0.648  53.374  1.00  0.00     0.071 A 
HETATM   12  C17 UNL     1      25.366  -0.373  53.144  1.00  0.00     0.097 A 
ENDROOT
BRANCH   4  13
HETATM   13  N2  UNL     1      22.583   3.603  51.678  1.00  0.00    -0.357 N 
HETATM   14  H6  UNL     1      22.859   4.468  52.158  1.00  0.00     0.166 HD
BRANCH  13  15
HETATM   15  C8  UNL     1      22.589   4.030  50.338  1.00  0.00     0.023 A 
HETATM   16  C9  UNL     1      21.808   4.760  49.590  1.00  0.00     0.017 A 
HETATM   17  C10 UNL     1      22.621   4.631  48.393  1.00  0.00     0.102 A 
HETATM   18 BR1  UNL     1      23.418   6.279  47.758  1.00  0.00    -0.085 Br
HETATM   19  C11 UNL     1      23.515   3.808  49.243  1.00  0.00     0.125 A 
HETATM   20 BR2  UNL     1      25.231   4.716  49.492  1.00  0.00    -0.083 Br
ENDBRANCH  13  15
ENDBRANCH   4  13
BRANCH   1  21
HETATM   21  N1  UNL     1      27.033   1.141  52.353  1.00  0.00    -0.321 N 
HETATM   22  C3  UNL     1      27.526   1.925  53.417  1.00  0.00     0.245 C 
HETATM   23  O1  UNL     1      26.802   2.282  54.407  1.00  0.00    -0.268 OA
HETATM   24  H4  UNL     1      27.785   0.964  51.651  1.00  0.00     0.169 HD
BRANCH  22  25
HETATM   25  C2  UNL     1      28.850   2.498  53.679  1.00  0.00     0.064 C 
HETATM   26  C1  UNL     1      29.280   1.369  54.224  1.00  0.00     0.017 C 
ENDBRANCH  22  25
ENDBRANCH   1  21
BRANCH  12  27
HETATM   27  O2  UNL     1      26.371  -1.278  53.446  1.00  0.00    -0.354 OA
HETATM   28  C18 UNL     1      26.818  -2.241  52.522  1.00  0.00     0.210 C 
ENDBRANCH  12  27
TORSDOF 5
ENDMDL
MODEL 3
REMARK VINA RESULT:      -7.7      3.548      6.269
REMARK  5 active torsions:
REMARK  status: ('A' for Active; 'I' for Inactive)
REMARK    1  A    between atoms: C2_2  and  C3_3 
REMARK       I    between atoms: C3_3  and  N1_5 
REMARK    2  A    between atoms: N1_5  and  C4_6 
REMARK    3  A    between atoms: C7_9  and  N2_10 
REMARK    4  A    between atoms: N2_10  and  C8_11 
REMARK    5  A    between atoms: C17_24  and  O2_25 
ROOT
HETATM    1  C4  UNL     1      25.147   0.545  53.479  1.00  0.00     0.069 A 
HETATM    2  C5  UNL     1      23.910   0.657  52.885  1.00  0.00     0.048 A 
HETATM    3  C6  UNL     1      23.330   1.860  52.549  1.00  0.00     0.023 A 
HETATM    4  C7  UNL     1      22.095   2.005  51.954  1.00  0.00     0.067 A 
HETATM    5  C12 UNL     1      21.651   3.274  51.679  1.00  0.00     0.089 A 
HETATM    6  C13 UNL     1      20.386   3.519  51.064  1.00  0.00     0.103 C 
HETATM    7  N3  UNL     1      19.364   3.735  50.577  1.00  0.00    -0.191 NA
HETATM    8  C14 UNL     1      22.408   4.406  51.982  1.00  0.00     0.142 A 
HETATM    9  N4  UNL     1      23.616   4.214  52.566  1.00  0.00    -0.259 NA
HETATM   10  C15 UNL     1      24.075   2.980  52.846  1.00  0.00     0.071 A 
HETATM   11  C16 UNL     1      25.315   2.881  53.441  1.00  0.00     0.071 A 
HETATM   12  C17 UNL     1      25.876   1.678  53.769  1.00  0.00     0.097 A 
ENDROOT
BRANCH   4  13
HETATM   13  N2  UNL     1      21.343   0.853  51.653  1.00  0.00    -0.357 N 
HETATM   14  H6  UNL     1      21.474   0.189  50.882  1.00  0.00     0.166 HD
BRANCH  13  15
HETATM   15  C8  UNL     1      20.227   0.292  52.300  1.00  0.00     0.023 A 
HETATM   16  C9  UNL     1      19.051  -0.132  51.927  1.00  0.00     0.017 A 
HETATM   17  C10 UNL     1      18.625  -0.517  53.261  1.00  0.00     0.102 A 
HETATM   18 BR1  UNL     1      18.330  -2.415  53.514  1.00  0.00    -0.085 Br
HETATM   19  C11 UNL     1      19.965  -0.045  53.686  1.00  0.00     0.125 A 
HETATM   20 BR2  UNL     1      21.038  -1.552  54.327  1.00  0.00    -0.083 Br
ENDBRANCH  13  15
ENDBRANCH   4  13
BRANCH   1  21
HETATM   21  N1  UNL     1      25.725  -0.704  53.817  1.00  0.00    -0.321 N 
HETATM   22  C3  UNL     1      26.553  -1.124  52.756  1.00  0.00     0.245 C 
HETATM   23  O1  UNL     1      26.711  -0.439  51.689  1.00  0.00    -0.268 OA
HETATM   24  H4  UNL     1      25.736  -1.407  54.589  1.00  0.00     0.169 HD
BRANCH  22  25
HETATM   25  C2  UNL     1      27.379  -2.322  52.573  1.00  0.00     0.064 C 
HETATM   26  C1  UNL     1      28.438  -1.726  53.100  1.00  0.00     0.017 C 
ENDBRANCH  22  25
ENDBRANCH   1  21
BRANCH  12  27
HETATM   27  O2  UNL     1      27.123   1.583  54.366  1.00  0.00    -0.354 OA
HETATM   28  C18 UNL     1      28.293   2.056  53.742  1.00  0.00     0.210 C 
ENDBRANCH  12  27
TORSDOF 5
ENDMDL
MODEL 4
REMARK VINA RESULT:      -7.6      3.186      5.327
REMARK  5 active torsions:
REMARK  status: ('A' for Active; 'I' for Inactive)
REMARK    1  A    between atoms: C2_2  and  C3_3 
REMARK       I    between atoms: C3_3  and  N1_5 
REMARK    2  A    between atoms: N1_5  and  C4_6 
REMARK    3  A    between atoms: C7_9  and  N2_10 
REMARK    4  A    between atoms: N2_10  and  C8_11 
REMARK    5  A    between atoms: C17_24  and  O2_25 
ROOT
HETATM    1  C4  UNL     1      26.304   1.671  51.903  1.00  0.00     0.069 A 
HETATM    2  C5  UNL     1      25.027   1.170  52.018  1.00  0.00     0.048 A 
HETATM    3  C6  UNL     1      24.613   0.365  53.057  1.00  0.00     0.023 A 
HETATM    4  C7  UNL     1      23.344  -0.152  53.201  1.00  0.00     0.067 A 
HETATM    5  C12 UNL     1      23.083  -0.940  54.294  1.00  0.00     0.089 A 
HETATM    6  C13 UNL     1      21.797  -1.517  54.524  1.00  0.00     0.103 C 
HETATM    7  N3  UNL     1      20.768  -1.998  54.720  1.00  0.00    -0.191 NA
HETATM    8  C14 UNL     1      24.057  -1.228  55.250  1.00  0.00     0.142 A 
HETATM    9  N4  UNL     1      25.290  -0.697  55.066  1.00  0.00    -0.259 NA
HETATM   10  C15 UNL     1      25.573   0.079  54.003  1.00  0.00     0.071 A 
HETATM   11  C16 UNL     1      26.855   0.575  53.899  1.00  0.00     0.071 A 
HETATM   12  C17 UNL     1      27.249   1.373  52.860  1.00  0.00     0.097 A 
ENDROOT
BRANCH   4  13
HETATM   13  N2  UNL     1      22.370   0.148  52.228  1.00  0.00    -0.357 N 
HETATM   14  H6  UNL     1      22.195  -0.326  51.334  1.00  0.00     0.166 HD
BRANCH  13  15
HETATM   15  C8  UNL     1      21.383   1.149  52.196  1.00  0.00     0.023 A 
HETATM   16  C9  UNL     1      21.273   2.330  51.653  1.00  0.00     0.017 A 
HETATM   17  C10 UNL     1      19.939   2.583  52.168  1.00  0.00     0.102 A 
HETATM   18 BR1  UNL     1      18.552   2.730  50.823  1.00  0.00    -0.085 Br
HETATM   19  C11 UNL     1      20.058   1.237  52.779  1.00  0.00     0.125 A 
HETATM   20 BR2  UNL     1      18.774   0.009  51.957  1.00  0.00    -0.083 Br
ENDBRANCH  13  15
ENDBRANCH   4  13
BRANCH   1  21
HETATM   21  N1  UNL     1      26.708   2.498  50.825  1.00  0.00    -0.321 N 
HETATM   22  C3  UNL     1      25.791   3.561  50.699  1.00  0.00     0.245 C 
HETATM   23  O1  UNL     1      24.780   3.698  51.467  1.00  0.00    -0.268 OA
HETATM   24  H4  UNL     1      27.457   2.574  50.102  1.00  0.00     0.169 HD
BRANCH  22  25
HETATM   25  C2  UNL     1      25.725   4.692  49.767  1.00  0.00     0.064 C 
HETATM   26  C1  UNL     1      26.852   4.328  49.174  1.00  0.00     0.017 C 
ENDBRANCH  22  25
ENDBRANCH   1  21
BRANCH  12  27
HETATM   27  O2  UNL     1      28.539   1.869  52.759  1.00  0.00    -0.354 OA
HETATM   28  C18 UNL     1      29.222   2.417  53.862  1.00  0.00     0.210 C 
ENDBRANCH  12  27
TORSDOF 5
ENDMDL
MODEL 5
REMARK VINA RESULT:      -7.6      3.010      5.965
REMARK  5 active torsions:
REMARK  status: ('A' for Active; 'I' for Inactive)
REMARK    1  A    between atoms: C2_2  and  C3_3 
REMARK       I    between atoms: C3_3  and  N1_5 
REMARK    2  A    between atoms: N1_5  and  C4_6 
REMARK    3  A    between atoms: C7_9  and  N2_10 
REMARK    4  A    between atoms: N2_10  and  C8_11 
REMARK    5  A    between atoms: C17_24  and  O2_25 
ROOT
HETATM    1  C4  UNL     1      25.309   1.840  53.550  1.00  0.00     0.069 A 
HETATM    2  C5  UNL     1      24.573   2.883  53.034  1.00  0.00     0.048 A 
HETATM    3  C6  UNL     1      23.411   2.716  52.314  1.00  0.00     0.023 A 
HETATM    4  C7  UNL     1      22.653   3.738  51.785  1.00  0.00     0.067 A 
HETATM    5  C12 UNL     1      21.515   3.411  51.090  1.00  0.00     0.089 A 
HETATM    6  C13 UNL     1      20.669   4.404  50.509  1.00  0.00     0.103 C 
HETATM    7  N3  UNL     1      19.981   5.192  50.025  1.00  0.00    -0.191 NA
HETATM    8  C14 UNL     1      21.112   2.088  50.908  1.00  0.00     0.142 A 
HETATM    9  N4  UNL     1      21.889   1.117  51.446  1.00  0.00    -0.259 NA
HETATM   10  C15 UNL     1      23.010   1.410  52.132  1.00  0.00     0.071 A 
HETATM   11  C16 UNL     1      23.737   0.357  52.644  1.00  0.00     0.071 A 
HETATM   12  C17 UNL     1      24.890   0.541  53.356  1.00  0.00     0.097 A 
ENDROOT
BRANCH   4  13
HETATM   13  N2  UNL     1      23.071   5.069  51.978  1.00  0.00    -0.357 N 
HETATM   14  H6  UNL     1      23.036   5.630  52.837  1.00  0.00     0.166 HD
BRANCH  13  15
HETATM   15  C8  UNL     1      23.643   5.989  51.082  1.00  0.00     0.023 A 
HETATM   16  C9  UNL     1      23.957   7.255  51.122  1.00  0.00     0.017 A 
HETATM   17  C10 UNL     1      24.469   7.302  49.764  1.00  0.00     0.102 A 
HETATM   18 BR1  UNL     1      26.366   7.671  49.613  1.00  0.00    -0.085 Br
HETATM   19  C11 UNL     1      24.122   5.862  49.719  1.00  0.00     0.125 A 
HETATM   20 BR2  UNL     1      25.748   4.781  49.575  1.00  0.00    -0.083 Br
ENDBRANCH  13  15
ENDBRANCH   4  13
BRANCH   1  21
HETATM   21  N1  UNL     1      26.503   2.035  54.288  1.00  0.00    -0.321 N 
HETATM   22  C3  UNL     1      27.569   2.228  53.385  1.00  0.00     0.245 C 
HETATM   23  O1  UNL     1      27.413   2.217  52.117  1.00  0.00    -0.268 OA
HETATM   24  H4  UNL     1      26.845   2.080  55.272  1.00  0.00     0.169 HD
BRANCH  22  25
HETATM   25  C2  UNL     1      29.000   2.468  53.596  1.00  0.00     0.064 C 
HETATM   26  C1  UNL     1      29.157   1.292  54.184  1.00  0.00     0.017 C 
ENDBRANCH  22  25
ENDBRANCH   1  21
BRANCH  12  27
HETATM   27  O2  UNL     1      25.618  -0.520  53.869  1.00  0.00    -0.354 OA
HETATM   28  C18 UNL     1      26.458  -1.313  53.064  1.00  0.00     0.210 C 
ENDBRANCH  12  27
TORSDOF 5
ENDMDL
MODEL 6
REMARK VINA RESULT:      -7.6      3.495      6.171
REMARK  5 active torsions:
REMARK  status: ('A' for Active; 'I' for Inactive)
REMARK    1  A    between atoms: C2_2  and  C3_3 
REMARK       I    between atoms: C3_3  and  N1_5 
REMARK    2  A    between atoms: N1_5  and  C4_6 
REMARK    3  A    between atoms: C7_9  and  N2_10 
REMARK    4  A    between atoms: N2_10  and  C8_11 
REMARK    5  A    between atoms: C17_24  and  O2_25 
ROOT
HETATM    1  C4  UNL     1      25.792   0.754  53.792  1.00  0.00     0.069 A 
HETATM    2  C5  UNL     1      25.277   1.445  52.718  1.00  0.00     0.048 A 
HETATM    3  C6  UNL     1      24.044   1.188  52.164  1.00  0.00     0.023 A 
HETATM    4  C7  UNL     1      23.501   1.861  51.091  1.00  0.00     0.067 A 
HETATM    5  C12 UNL     1      22.256   1.487  50.651  1.00  0.00     0.089 A 
HETATM    6  C13 UNL     1      21.617   2.129  49.547  1.00  0.00     0.103 C 
HETATM    7  N3  UNL     1      21.090   2.629  48.652  1.00  0.00    -0.191 NA
HETATM    8  C14 UNL     1      21.535   0.456  51.254  1.00  0.00     0.142 A 
HETATM    9  N4  UNL     1      22.108  -0.177  52.306  1.00  0.00    -0.259 NA
HETATM   10  C15 UNL     1      23.328   0.170  52.758  1.00  0.00     0.071 A 
HETATM   11  C16 UNL     1      23.832  -0.530  53.833  1.00  0.00     0.071 A 
HETATM   12  C17 UNL     1      25.061  -0.260  54.372  1.00  0.00     0.097 A 
ENDROOT
BRANCH   4  13
HETATM   13  N2  UNL     1      24.240   2.899  50.492  1.00  0.00    -0.357 N 
HETATM   14  H6  UNL     1      24.907   2.841  49.713  1.00  0.00     0.166 HD
BRANCH  13  15
HETATM   15  C8  UNL     1      24.281   4.276  50.774  1.00  0.00     0.023 A 
HETATM   16  C9  UNL     1      24.879   5.314  50.257  1.00  0.00     0.017 A 
HETATM   17  C10 UNL     1      24.325   6.265  51.206  1.00  0.00     0.102 A 
HETATM   18 BR1  UNL     1      23.133   7.589  50.444  1.00  0.00    -0.085 Br
HETATM   19  C11 UNL     1      23.638   5.088  51.790  1.00  0.00     0.125 A 
HETATM   20 BR2  UNL     1      21.703   5.244  51.536  1.00  0.00    -0.083 Br
ENDBRANCH  13  15
ENDBRANCH   4  13
BRANCH   1  21
HETATM   21  N1  UNL     1      27.065   1.036  54.348  1.00  0.00    -0.321 N 
HETATM   22  C3  UNL     1      28.040   0.292  53.652  1.00  0.00     0.245 C 
HETATM   23  O1  UNL     1      27.752  -0.492  52.685  1.00  0.00    -0.268 OA
HETATM   24  H4  UNL     1      27.509   1.610  55.098  1.00  0.00     0.169 HD
BRANCH  22  25
HETATM   25  C2  UNL     1      29.495   0.201  53.805  1.00  0.00     0.064 C 
HETATM   26  C1  UNL     1      29.495  -1.080  53.469  1.00  0.00     0.017 C 
ENDBRANCH  22  25
ENDBRANCH   1  21
BRANCH  12  27
HETATM   27  O2  UNL     1      25.563  -0.966  55.453  1.00  0.00    -0.354 OA
HETATM   28  C18 UNL     1      24.933  -0.960  56.712  1.00  0.00     0.210 C 
ENDBRANCH  12  27
TORSDOF 5
ENDMDL
MODEL 7
REMARK VINA RESULT:      -7.5      3.172      7.144
REMARK  5 active torsions:
REMARK  status: ('A' for Active; 'I' for Inactive)
REMARK    1  A    between atoms: C2_2  and  C3_3 
REMARK       I    between atoms: C3_3  and  N1_5 
REMARK    2  A    between atoms: N1_5  and  C4_6 
REMARK    3  A    between atoms: C7_9  and  N2_10 
REMARK    4  A    between atoms: N2_10  and  C8_11 
REMARK    5  A    between atoms: C17_24  and  O2_25 
ROOT
HETATM    1  C4  UNL     1      24.842   0.275  53.465  1.00  0.00     0.069 A 
HETATM    2  C5  UNL     1      24.322   1.473  53.028  1.00  0.00     0.048 A 
HETATM    3  C6  UNL     1      24.915   2.258  52.065  1.00  0.00     0.023 A 
HETATM    4  C7  UNL     1      24.421   3.459  51.606  1.00  0.00     0.067 A 
HETATM    5  C12 UNL     1      25.129   4.128  50.639  1.00  0.00     0.089 A 
HETATM    6  C13 UNL     1      24.691   5.378  50.106  1.00  0.00     0.103 C 
HETATM    7  N3  UNL     1      24.357   6.392  49.671  1.00  0.00    -0.191 NA
HETATM    8  C14 UNL     1      26.321   3.629  50.116  1.00  0.00     0.142 A 
HETATM    9  N4  UNL     1      26.769   2.444  50.596  1.00  0.00    -0.259 NA
HETATM   10  C15 UNL     1      26.094   1.767  51.545  1.00  0.00     0.071 A 
HETATM   11  C16 UNL     1      26.625   0.570  51.974  1.00  0.00     0.071 A 
HETATM   12  C17 UNL     1      26.021  -0.198  52.932  1.00  0.00     0.097 A 
ENDROOT
BRANCH   4  13
HETATM   13  N2  UNL     1      23.215   3.951  52.144  1.00  0.00    -0.357 N 
HETATM   14  H6  UNL     1      23.080   4.538  52.975  1.00  0.00     0.166 HD
BRANCH  13  15
HETATM   15  C8  UNL     1      21.886   3.788  51.715  1.00  0.00     0.023 A 
HETATM   16  C9  UNL     1      20.931   4.586  51.323  1.00  0.00     0.017 A 
HETATM   17  C10 UNL     1      19.964   3.525  51.100  1.00  0.00     0.102 A 
HETATM   18 BR1  UNL     1      19.414   3.286  49.258  1.00  0.00    -0.085 Br
HETATM   19  C11 UNL     1      21.050   2.616  51.537  1.00  0.00     0.125 A 
HETATM   20 BR2  UNL     1      21.622   1.484  50.046  1.00  0.00    -0.083 Br
ENDBRANCH  13  15
ENDBRANCH   4  13
BRANCH   1  21
HETATM   21  N1  UNL     1      24.214  -0.517  54.458  1.00  0.00    -0.321 N 
HETATM   22  C3  UNL     1      22.970  -0.961  53.965  1.00  0.00     0.245 C 
HETATM   23  O1  UNL     1      22.539  -0.661  52.800  1.00  0.00    -0.268 OA
HETATM   24  H4  UNL     1      24.372  -0.874  55.426  1.00  0.00     0.169 HD
BRANCH  22  25
HETATM   25  C2  UNL     1      21.922  -1.797  54.561  1.00  0.00     0.064 C 
HETATM   26  C1  UNL     1      20.965  -1.009  54.093  1.00  0.00     0.017 C 
ENDBRANCH  22  25
ENDBRANCH   1  21
BRANCH  12  27
HETATM   27  O2  UNL     1      26.559  -1.401  53.360  1.00  0.00    -0.354 OA
HETATM   28  C18 UNL     1      27.018  -2.381  52.460  1.00  0.00     0.210 C 
ENDBRANCH  12  27
TORSDOF 5
ENDMDL
MODEL 8
REMARK VINA RESULT:      -7.4      2.774      4.746
REMARK  5 active torsions:
REMARK  status: ('A' for Active; 'I' for Inactive)
REMARK    1  A    between atoms: C2_2  and  C3_3 
REMARK       I    between atoms: C3_3  and  N1_5 
REMARK    2  A    between atoms: N1_5  and  C4_6 
REMARK    3  A    between atoms: C7_9  and  N2_10 
REMARK    4  A    between atoms: N2_10  and  C8_11 
REMARK    5  A    between atoms: C17_24  and  O2_25 
ROOT
HETATM    1  C4  UNL     1      24.420   4.381  50.257  1.00  0.00     0.069 A 
HETATM    2  C5  UNL     1      24.102   3.496  51.262  1.00  0.00     0.048 A 
HETATM    3  C6  UNL     1      24.978   2.556  51.758  1.00  0.00     0.023 A 
HETATM    4  C7  UNL     1      24.691   1.657  52.763  1.00  0.00     0.067 A 
HETATM    5  C12 UNL     1      25.672   0.779  53.149  1.00  0.00     0.089 A 
HETATM    6  C13 UNL     1      25.463  -0.186  54.182  1.00  0.00     0.103 C 
HETATM    7  N3  UNL     1      25.308  -0.977  55.006  1.00  0.00    -0.191 NA
HETATM    8  C14 UNL     1      26.936   0.772  52.560  1.00  0.00     0.142 A 
HETATM    9  N4  UNL     1      27.173   1.674  51.577  1.00  0.00    -0.259 NA
HETATM   10  C15 UNL     1      26.228   2.547  51.178  1.00  0.00     0.071 A 
HETATM   11  C16 UNL     1      26.559   3.428  50.170  1.00  0.00     0.071 A 
HETATM   12  C17 UNL     1      25.676   4.356  49.690  1.00  0.00     0.097 A 
ENDROOT
BRANCH   4  13
HETATM   13  N2  UNL     1      23.411   1.676  53.349  1.00  0.00    -0.357 N 
HETATM   14  H6  UNL     1      23.002   2.388  53.965  1.00  0.00     0.166 HD
BRANCH  13  15
HETATM   15  C8  UNL     1      22.351   0.755  53.268  1.00  0.00     0.023 A 
HETATM   16  C9  UNL     1      21.381   0.380  54.056  1.00  0.00     0.017 A 
HETATM   17  C10 UNL     1      20.827  -0.586  53.124  1.00  0.00     0.102 A 
HETATM   18 BR1  UNL     1      19.049  -0.175  52.473  1.00  0.00    -0.085 Br
HETATM   19  C11 UNL     1      21.922  -0.156  52.223  1.00  0.00     0.125 A 
HETATM   20 BR2  UNL     1      21.186   0.763  50.658  1.00  0.00    -0.083 Br
ENDBRANCH  13  15
ENDBRANCH   4  13
BRANCH   1  21
HETATM   21  N1  UNL     1      23.503   5.341  49.761  1.00  0.00    -0.321 N 
HETATM   22  C3  UNL     1      23.568   6.492  50.573  1.00  0.00     0.245 C 
HETATM   23  O1  UNL     1      24.351   6.588  51.577  1.00  0.00    -0.268 OA
HETATM   24  H4  UNL     1      22.802   5.470  48.999  1.00  0.00     0.169 HD
BRANCH  22  25
HETATM   25  C2  UNL     1      22.848   7.770  50.520  1.00  0.00     0.064 C 
HETATM   26  C1  UNL     1      21.702   7.188  50.837  1.00  0.00     0.017 C 
ENDBRANCH  22  25
ENDBRANCH   1  21
BRANCH  12  27
HETATM   27  O2  UNL     1      26.013   5.239  48.677  1.00  0.00    -0.354 OA
HETATM   28  C18 UNL     1      27.219   5.966  48.684  1.00  0.00     0.210 C 
ENDBRANCH  12  27
TORSDOF 5
ENDMDL
MODEL 9
REMARK VINA RESULT:      -7.3      2.932      5.403
REMARK  5 active torsions:
REMARK  status: ('A' for Active; 'I' for Inactive)
REMARK    1  A    between atoms: C2_2  and  C3_3 
REMARK       I    between atoms: C3_3  and  N1_5 
REMARK    2  A    between atoms: N1_5  and  C4_6 
REMARK    3  A    between atoms: C7_9  and  N2_10 
REMARK    4  A    between atoms: N2_10  and  C8_11 
REMARK    5  A    between atoms: C17_24  and  O2_25 
ROOT
HETATM    1  C4  UNL     1      24.168   2.315  52.748  1.00  0.00     0.069 A 
HETATM    2  C5  UNL     1      22.806   2.128  52.671  1.00  0.00     0.048 A 
HETATM    3  C6  UNL     1      22.169   0.974  53.071  1.00  0.00     0.023 A 
HETATM    4  C7  UNL     1      20.810   0.756  53.007  1.00  0.00     0.067 A 
HETATM    5  C12 UNL     1      20.323  -0.450  53.445  1.00  0.00     0.089 A 
HETATM    6  C13 UNL     1      18.930  -0.761  53.416  1.00  0.00     0.103 C 
HETATM    7  N3  UNL     1      17.809  -1.033  53.392  1.00  0.00    -0.191 NA
HETATM    8  C14 UNL     1      21.158  -1.448  53.948  1.00  0.00     0.142 A 
HETATM    9  N4  UNL     1      22.487  -1.189  53.992  1.00  0.00    -0.259 NA
HETATM   10  C15 UNL     1      22.991  -0.014  53.568  1.00  0.00     0.071 A 
HETATM   11  C16 UNL     1      24.356   0.160  53.651  1.00  0.00     0.071 A 
HETATM   12  C17 UNL     1      24.972   1.314  53.249  1.00  0.00     0.097 A 
ENDROOT
BRANCH   4  13
HETATM   13  N2  UNL     1      19.979   1.773  52.498  1.00  0.00    -0.357 N 
HETATM   14  H6  UNL     1      19.584   2.581  52.993  1.00  0.00     0.166 HD
BRANCH  13  15
HETATM   15  C8  UNL     1      19.464   1.976  51.205  1.00  0.00     0.023 A 
HETATM   16  C9  UNL     1      18.780   2.916  50.613  1.00  0.00     0.017 A 
HETATM   17  C10 UNL     1      18.728   2.244  49.327  1.00  0.00     0.102 A 
HETATM   18 BR1  UNL     1      19.664   3.145  47.889  1.00  0.00    -0.085 Br
HETATM   19  C11 UNL     1      19.513   1.179  49.995  1.00  0.00     0.125 A 
HETATM   20 BR2  UNL     1      21.307   1.075  49.215  1.00  0.00    -0.083 Br
ENDBRANCH  13  15
ENDBRANCH   4  13
BRANCH   1  21
HETATM   21  N1  UNL     1      24.803   3.511  52.331  1.00  0.00    -0.321 N 
HETATM   22  C3  UNL     1      24.925   3.494  50.927  1.00  0.00     0.245 C 
HETATM   23  O1  UNL     1      24.508   2.525  50.207  1.00  0.00    -0.268 OA
HETATM   24  H4  UNL     1      25.206   4.390  52.723  1.00  0.00     0.169 HD
BRANCH  22  25
HETATM   25  C2  UNL     1      25.496   4.460  49.982  1.00  0.00     0.064 C 
HETATM   26  C1  UNL     1      26.491   3.642  49.677  1.00  0.00     0.017 C 
ENDBRANCH  22  25
ENDBRANCH   1  21
BRANCH  12  27
HETATM   27  O2  UNL     1      26.345   1.485  53.334  1.00  0.00    -0.354 OA
HETATM   28  C18 UNL     1      27.238   0.834  52.461  1.00  0.00     0.210 C 
ENDBRANCH  12  27
TORSDOF 5
ENDMDL
