MODEL 1
REMARK VINA RESULT:      -8.3      0.000      0.000
REMARK  6 active torsions:
REMARK  status: ('A' for Active; 'I' for Inactive)
REMARK    1  A    between atoms: O1_2  and  C2_3 
REMARK    2  A    between atoms: C4_5  and  N1_6 
REMARK    3  A    between atoms: N1_6  and  C5_7 
REMARK    4  A    between atoms: C9_11  and  C10_12 
REMARK    5  A    between atoms: C18_23  and  O2_24 
REMARK    6  A    between atoms: C20_26  and  O3_27 
ROOT
HETATM    1  C5  UNL     1      23.583   4.609  52.151  1.00  0.00     0.128 A 
HETATM    2  C6  UNL     1      22.358   5.238  52.161  1.00  0.00     0.050 A 
HETATM    3  C7  UNL     1      21.792   5.916  51.104  1.00  0.00     0.006 A 
HETATM    4  C8  UNL     1      22.500   5.982  49.924  1.00  0.00     0.031 A 
HETATM    5  C9  UNL     1      23.740   5.349  49.912  1.00  0.00     0.081 A 
HETATM    6  N4  UNL     1      24.225   4.708  50.979  1.00  0.00    -0.232 NA
ENDROOT
BRANCH   1   7
HETATM    7  N1  UNL     1      24.166   3.917  53.215  1.00  0.00    -0.341 N 
HETATM    8  H5  UNL     1      24.186   4.456  54.138  1.00  0.00     0.167 HD
BRANCH   7   9
HETATM    9  C4  UNL     1      24.761   2.663  53.393  1.00  0.00     0.039 A 
HETATM   10  C3  UNL     1      24.041   1.492  53.115  1.00  0.00     0.069 A 
HETATM   11  C2  UNL     1      24.488   0.200  53.254  1.00  0.00     0.106 A 
HETATM   12  C20 UNL     1      25.779   0.084  53.716  1.00  0.00     0.135 A 
HETATM   13  C18 UNL     1      26.581   1.164  54.022  1.00  0.00     0.106 A 
HETATM   14  C17 UNL     1      26.038   2.418  53.848  1.00  0.00     0.069 A 
BRANCH  11  15
HETATM   15  O1  UNL     1      23.734  -0.899  52.967  1.00  0.00    -0.353 OA
HETATM   16  C1  UNL     1      22.400  -1.138  53.271  1.00  0.00     0.210 C 
ENDBRANCH  11  15
BRANCH  12  17
HETATM   17  O3  UNL     1      26.257  -1.230  53.866  1.00  0.00    -0.351 OA
HETATM   18  C21 UNL     1      26.883  -1.815  52.732  1.00  0.00     0.210 C 
ENDBRANCH  12  17
BRANCH  13  19
HETATM   19  O2  UNL     1      27.835   0.845  54.467  1.00  0.00    -0.353 OA
HETATM   20  C19 UNL     1      28.986   1.145  53.712  1.00  0.00     0.210 C 
ENDBRANCH  13  19
ENDBRANCH   7   9
ENDBRANCH   1   7
BRANCH   5  21
HETATM   21  C10 UNL     1      24.586   5.347  48.733  1.00  0.00     0.261 C 
HETATM   22  N2  UNL     1      24.658   6.806  48.167  1.00  0.00    -0.260 NA
HETATM   23  C11 UNL     1      25.914   7.112  48.213  1.00  0.00     0.049 C 
HETATM   24  C12 UNL     1      27.190   7.523  47.594  1.00  0.00     0.028 C 
HETATM   25  C16 UNL     1      25.829   6.637  49.691  1.00  0.00     0.183 C 
HETATM   26  C13 UNL     1      28.329   6.779  47.813  1.00  0.00     0.003 C 
HETATM   27  C14 UNL     1      28.306   5.398  48.420  1.00  0.00     0.017 C 
HETATM   28  C15 UNL     1      27.262   4.645  48.880  1.00  0.00     0.088 C 
HETATM   29  N3  UNL     1      26.006   5.293  49.043  1.00  0.00    -0.357 N 
ENDBRANCH   5  21
TORSDOF 6
ENDMDL
MODEL 2
REMARK VINA RESULT:      -8.2      0.162      2.430
REMARK  6 active torsions:
REMARK  status: ('A' for Active; 'I' for Inactive)
REMARK    1  A    between atoms: O1_2  and  C2_3 
REMARK    2  A    between atoms: C4_5  and  N1_6 
REMARK    3  A    between atoms: N1_6  and  C5_7 
REMARK    4  A    between atoms: C9_11  and  C10_12 
REMARK    5  A    between atoms: C18_23  and  O2_24 
REMARK    6  A    between atoms: C20_26  and  O3_27 
ROOT
HETATM    1  C5  UNL     1      23.583   4.721  52.049  1.00  0.00     0.128 A 
HETATM    2  C6  UNL     1      22.381   5.392  52.055  1.00  0.00     0.050 A 
HETATM    3  C7  UNL     1      21.851   6.105  51.001  1.00  0.00     0.006 A 
HETATM    4  C8  UNL     1      22.575   6.163  49.831  1.00  0.00     0.031 A 
HETATM    5  C9  UNL     1      23.792   5.487  49.823  1.00  0.00     0.081 A 
HETATM    6  N4  UNL     1      24.242   4.815  50.887  1.00  0.00    -0.232 NA
ENDROOT
BRANCH   1   7
HETATM    7  N1  UNL     1      24.129   3.995  53.110  1.00  0.00    -0.341 N 
HETATM    8  H5  UNL     1      24.259   4.554  54.012  1.00  0.00     0.167 HD
BRANCH   7   9
HETATM    9  C4  UNL     1      24.575   2.683  53.304  1.00  0.00     0.039 A 
HETATM   10  C3  UNL     1      25.870   2.438  53.786  1.00  0.00     0.069 A 
HETATM   11  C2  UNL     1      26.444   1.211  54.011  1.00  0.00     0.106 A 
HETATM   12  C20 UNL     1      25.635   0.135  53.725  1.00  0.00     0.135 A 
HETATM   13  C18 UNL     1      24.347   0.254  53.247  1.00  0.00     0.106 A 
HETATM   14  C17 UNL     1      23.864   1.530  53.054  1.00  0.00     0.069 A 
BRANCH  11  15
HETATM   15  O1  UNL     1      27.712   1.042  54.481  1.00  0.00    -0.353 OA
HETATM   16  C1  UNL     1      28.916   1.313  53.842  1.00  0.00     0.210 C 
ENDBRANCH  11  15
BRANCH  12  17
HETATM   17  O3  UNL     1      26.204  -1.132  53.949  1.00  0.00    -0.351 OA
HETATM   18  C21 UNL     1      26.888  -1.727  52.855  1.00  0.00     0.210 C 
ENDBRANCH  12  17
BRANCH  13  19
HETATM   19  O2  UNL     1      23.702  -0.932  53.022  1.00  0.00    -0.353 OA
HETATM   20  C19 UNL     1      22.355  -1.122  53.387  1.00  0.00     0.210 C 
ENDBRANCH  13  19
ENDBRANCH   7   9
ENDBRANCH   1   7
BRANCH   5  21
HETATM   21  C10 UNL     1      24.652   5.473  48.654  1.00  0.00     0.261 C 
HETATM   22  N2  UNL     1      24.769   6.934  48.101  1.00  0.00    -0.260 NA
HETATM   23  C11 UNL     1      26.033   7.205  48.165  1.00  0.00     0.049 C 
HETATM   24  C12 UNL     1      27.325   7.588  47.564  1.00  0.00     0.028 C 
HETATM   25  C16 UNL     1      25.917   6.720  49.637  1.00  0.00     0.183 C 
HETATM   26  C13 UNL     1      28.442   6.811  47.790  1.00  0.00     0.003 C 
HETATM   27  C14 UNL     1      28.375   5.426  48.384  1.00  0.00     0.017 C 
HETATM   28  C15 UNL     1      27.305   4.698  48.825  1.00  0.00     0.088 C 
HETATM   29  N3  UNL     1      26.066   5.378  48.980  1.00  0.00    -0.357 N 
ENDBRANCH   5  21
TORSDOF 6
ENDMDL
MODEL 3
REMARK VINA RESULT:      -8.0      3.452      7.728
REMARK  6 active torsions:
REMARK  status: ('A' for Active; 'I' for Inactive)
REMARK    1  A    between atoms: O1_2  and  C2_3 
REMARK    2  A    between atoms: C4_5  and  N1_6 
REMARK    3  A    between atoms: N1_6  and  C5_7 
REMARK    4  A    between atoms: C9_11  and  C10_12 
REMARK    5  A    between atoms: C18_23  and  O2_24 
REMARK    6  A    between atoms: C20_26  and  O3_27 
ROOT
HETATM    1  C5  UNL     1      24.034   2.618  52.517  1.00  0.00     0.128 A 
HETATM    2  C6  UNL     1      22.929   1.862  52.194  1.00  0.00     0.050 A 
HETATM    3  C7  UNL     1      22.749   0.530  52.496  1.00  0.00     0.006 A 
HETATM    4  C8  UNL     1      23.753  -0.120  53.180  1.00  0.00     0.031 A 
HETATM    5  C9  UNL     1      24.871   0.641  53.507  1.00  0.00     0.081 A 
HETATM    6  N4  UNL     1      24.976   1.933  53.179  1.00  0.00    -0.232 NA
ENDROOT
BRANCH   1   7
HETATM    7  N1  UNL     1      24.228   3.968  52.217  1.00  0.00    -0.341 N 
HETATM    8  H5  UNL     1      24.422   4.588  53.066  1.00  0.00     0.167 HD
BRANCH   7   9
HETATM    9  C4  UNL     1      24.224   4.751  51.057  1.00  0.00     0.039 A 
HETATM   10  C3  UNL     1      25.400   4.915  50.310  1.00  0.00     0.069 A 
HETATM   11  C2  UNL     1      25.548   5.660  49.165  1.00  0.00     0.106 A 
HETATM   12  C20 UNL     1      24.404   6.294  48.739  1.00  0.00     0.135 A 
HETATM   13  C18 UNL     1      23.192   6.205  49.392  1.00  0.00     0.106 A 
HETATM   14  C17 UNL     1      23.149   5.433  50.532  1.00  0.00     0.069 A 
BRANCH  11  15
HETATM   15  O1  UNL     1      26.723   5.780  48.485  1.00  0.00    -0.353 OA
HETATM   16  C1  UNL     1      27.860   4.987  48.574  1.00  0.00     0.210 C 
ENDBRANCH  11  15
BRANCH  12  17
HETATM   17  O3  UNL     1      24.533   7.063  47.567  1.00  0.00    -0.351 OA
HETATM   18  C21 UNL     1      24.943   8.414  47.733  1.00  0.00     0.210 C 
ENDBRANCH  12  17
BRANCH  13  19
HETATM   19  O2  UNL     1      22.171   6.908  48.813  1.00  0.00    -0.353 OA
HETATM   20  C19 UNL     1      21.599   8.032  49.440  1.00  0.00     0.210 C 
ENDBRANCH  13  19
ENDBRANCH   7   9
ENDBRANCH   1   7
BRANCH   5  21
HETATM   21  C10 UNL     1      25.999   0.076  54.223  1.00  0.00     0.261 C 
HETATM   22  N2  UNL     1      26.257  -1.373  53.688  1.00  0.00    -0.260 NA
HETATM   23  C11 UNL     1      27.464  -1.339  53.223  1.00  0.00     0.049 C 
HETATM   24  C12 UNL     1      28.868  -1.792  53.179  1.00  0.00     0.028 C 
HETATM   25  C16 UNL     1      26.977  -0.080  52.451  1.00  0.00     0.183 C 
HETATM   26  C13 UNL     1      29.888  -0.872  53.285  1.00  0.00     0.003 C 
HETATM   27  C14 UNL     1      29.669   0.553  53.732  1.00  0.00     0.017 C 
HETATM   28  C15 UNL     1      28.521   1.212  54.071  1.00  0.00     0.088 C 
HETATM   29  N3  UNL     1      27.284   0.579  53.765  1.00  0.00    -0.357 N 
ENDBRANCH   5  21
TORSDOF 6
ENDMDL
MODEL 4
REMARK VINA RESULT:      -7.9      3.455      7.445
REMARK  6 active torsions:
REMARK  status: ('A' for Active; 'I' for Inactive)
REMARK    1  A    between atoms: O1_2  and  C2_3 
REMARK    2  A    between atoms: C4_5  and  N1_6 
REMARK    3  A    between atoms: N1_6  and  C5_7 
REMARK    4  A    between atoms: C9_11  and  C10_12 
REMARK    5  A    between atoms: C18_23  and  O2_24 
REMARK    6  A    between atoms: C20_26  and  O3_27 
ROOT
HETATM    1  C5  UNL     1      24.021   2.598  52.602  1.00  0.00     0.128 A 
HETATM    2  C6  UNL     1      22.941   1.812  52.265  1.00  0.00     0.050 A 
HETATM    3  C7  UNL     1      22.803   0.471  52.546  1.00  0.00     0.006 A 
HETATM    4  C8  UNL     1      23.824  -0.157  53.224  1.00  0.00     0.031 A 
HETATM    5  C9  UNL     1      24.918   0.634  53.564  1.00  0.00     0.081 A 
HETATM    6  N4  UNL     1      24.982   1.933  53.256  1.00  0.00    -0.232 NA
ENDROOT
BRANCH   1   7
HETATM    7  N1  UNL     1      24.173   3.958  52.323  1.00  0.00    -0.341 N 
HETATM    8  H5  UNL     1      24.184   4.590  53.185  1.00  0.00     0.167 HD
BRANCH   7   9
HETATM    9  C4  UNL     1      24.309   4.738  51.169  1.00  0.00     0.039 A 
HETATM   10  C3  UNL     1      23.242   5.529  50.719  1.00  0.00     0.069 A 
HETATM   11  C2  UNL     1      23.227   6.330  49.603  1.00  0.00     0.106 A 
HETATM   12  C20 UNL     1      24.397   6.331  48.879  1.00  0.00     0.135 A 
HETATM   13  C18 UNL     1      25.510   5.593  49.225  1.00  0.00     0.106 A 
HETATM   14  C17 UNL     1      25.422   4.821  50.363  1.00  0.00     0.069 A 
BRANCH  11  15
HETATM   15  O1  UNL     1      22.152   7.076  49.219  1.00  0.00    -0.353 OA
HETATM   16  C1  UNL     1      21.333   7.881  50.000  1.00  0.00     0.210 C 
ENDBRANCH  11  15
BRANCH  12  17
HETATM   17  O3  UNL     1      24.404   7.145  47.731  1.00  0.00    -0.351 OA
HETATM   18  C21 UNL     1      24.820   8.492  47.908  1.00  0.00     0.210 C 
ENDBRANCH  12  17
BRANCH  13  19
HETATM   19  O2  UNL     1      26.577   5.725  48.379  1.00  0.00    -0.353 OA
HETATM   20  C19 UNL     1      27.778   5.020  48.587  1.00  0.00     0.210 C 
ENDBRANCH  13  19
ENDBRANCH   7   9
ENDBRANCH   1   7
BRANCH   5  21
HETATM   21  C10 UNL     1      26.061   0.094  54.275  1.00  0.00     0.261 C 
HETATM   22  N2  UNL     1      26.325  -1.364  53.766  1.00  0.00    -0.260 NA
HETATM   23  C11 UNL     1      27.524  -1.328  53.282  1.00  0.00     0.049 C 
HETATM   24  C12 UNL     1      28.931  -1.770  53.226  1.00  0.00     0.028 C 
HETATM   25  C16 UNL     1      27.015  -0.090  52.492  1.00  0.00     0.183 C 
HETATM   26  C13 UNL     1      29.945  -0.838  53.299  1.00  0.00     0.003 C 
HETATM   27  C14 UNL     1      29.719   0.593  53.719  1.00  0.00     0.017 C 
HETATM   28  C15 UNL     1      28.570   1.249  54.062  1.00  0.00     0.088 C 
HETATM   29  N3  UNL     1      27.335   0.599  53.788  1.00  0.00    -0.357 N 
ENDBRANCH   5  21
TORSDOF 6
ENDMDL
MODEL 5
REMARK VINA RESULT:      -7.7      4.514      7.222
REMARK  6 active torsions:
REMARK  status: ('A' for Active; 'I' for Inactive)
REMARK    1  A    between atoms: O1_2  and  C2_3 
REMARK    2  A    between atoms: C4_5  and  N1_6 
REMARK    3  A    between atoms: N1_6  and  C5_7 
REMARK    4  A    between atoms: C9_11  and  C10_12 
REMARK    5  A    between atoms: C18_23  and  O2_24 
REMARK    6  A    between atoms: C20_26  and  O3_27 
ROOT
HETATM    1  C5  UNL     1      22.946   1.248  52.554  1.00  0.00     0.128 A 
HETATM    2  C6  UNL     1      22.693   2.601  52.538  1.00  0.00     0.050 A 
HETATM    3  C7  UNL     1      23.610   3.589  52.253  1.00  0.00     0.006 A 
HETATM    4  C8  UNL     1      24.900   3.208  51.956  1.00  0.00     0.031 A 
HETATM    5  C9  UNL     1      25.159   1.840  51.972  1.00  0.00     0.081 A 
HETATM    6  N4  UNL     1      24.216   0.938  52.259  1.00  0.00    -0.232 NA
ENDROOT
BRANCH   1   7
HETATM    7  N1  UNL     1      22.025   0.238  52.839  1.00  0.00    -0.341 N 
HETATM    8  H5  UNL     1      22.415  -0.568  53.424  1.00  0.00     0.167 HD
BRANCH   7   9
HETATM    9  C4  UNL     1      20.680  -0.008  52.541  1.00  0.00     0.039 A 
HETATM   10  C3  UNL     1      20.104   0.516  51.374  1.00  0.00     0.069 A 
HETATM   11  C2  UNL     1      18.802   0.368  50.963  1.00  0.00     0.106 A 
HETATM   12  C20 UNL     1      18.012  -0.377  51.808  1.00  0.00     0.135 A 
HETATM   13  C18 UNL     1      18.468  -0.941  52.981  1.00  0.00     0.106 A 
HETATM   14  C17 UNL     1      19.791  -0.733  53.304  1.00  0.00     0.069 A 
BRANCH  11  15
HETATM   15  O1  UNL     1      18.305   0.906  49.813  1.00  0.00    -0.353 OA
HETATM   16  C1  UNL     1      18.028   2.237  49.529  1.00  0.00     0.210 C 
ENDBRANCH  11  15
BRANCH  12  17
HETATM   17  O3  UNL     1      16.674  -0.542  51.405  1.00  0.00    -0.351 OA
HETATM   18  C21 UNL     1      15.735   0.398  51.912  1.00  0.00     0.210 C 
ENDBRANCH  12  17
BRANCH  13  19
HETATM   19  O2  UNL     1      17.531  -1.646  53.686  1.00  0.00    -0.353 OA
HETATM   20  C19 UNL     1      17.499  -3.055  53.669  1.00  0.00     0.210 C 
ENDBRANCH  13  19
ENDBRANCH   7   9
ENDBRANCH   1   7
BRANCH   5  21
HETATM   21  C10 UNL     1      26.477   1.308  51.681  1.00  0.00     0.261 C 
HETATM   22  N2  UNL     1      27.552   2.259  52.308  1.00  0.00    -0.260 NA
HETATM   23  C11 UNL     1      28.200   1.513  53.143  1.00  0.00     0.049 C 
HETATM   24  C12 UNL     1      29.430   0.880  53.658  1.00  0.00     0.028 C 
HETATM   25  C16 UNL     1      26.790   1.136  53.680  1.00  0.00     0.183 C 
HETATM   26  C13 UNL     1      29.463  -0.481  53.869  1.00  0.00     0.003 C 
HETATM   27  C14 UNL     1      28.410  -1.423  53.339  1.00  0.00     0.017 C 
HETATM   28  C15 UNL     1      27.271  -1.173  52.624  1.00  0.00     0.088 C 
HETATM   29  N3  UNL     1      26.842   0.180  52.523  1.00  0.00    -0.357 N 
ENDBRANCH   5  21
TORSDOF 6
ENDMDL
MODEL 6
REMARK VINA RESULT:      -7.7      3.664      7.661
REMARK  6 active torsions:
REMARK  status: ('A' for Active; 'I' for Inactive)
REMARK    1  A    between atoms: O1_2  and  C2_3 
REMARK    2  A    between atoms: C4_5  and  N1_6 
REMARK    3  A    between atoms: N1_6  and  C5_7 
REMARK    4  A    between atoms: C9_11  and  C10_12 
REMARK    5  A    between atoms: C18_23  and  O2_24 
REMARK    6  A    between atoms: C20_26  and  O3_27 
ROOT
HETATM    1  C5  UNL     1      25.214   2.713  50.484  1.00  0.00     0.128 A 
HETATM    2  C6  UNL     1      23.837   2.703  50.519  1.00  0.00     0.050 A 
HETATM    3  C7  UNL     1      23.060   2.057  51.456  1.00  0.00     0.006 A 
HETATM    4  C8  UNL     1      23.699   1.353  52.452  1.00  0.00     0.031 A 
HETATM    5  C9  UNL     1      25.091   1.360  52.419  1.00  0.00     0.081 A 
HETATM    6  N4  UNL     1      25.779   2.011  51.476  1.00  0.00    -0.232 NA
ENDROOT
BRANCH   1   7
HETATM    7  N1  UNL     1      26.012   3.364  49.542  1.00  0.00    -0.341 N 
HETATM    8  H5  UNL     1      26.439   2.723  48.801  1.00  0.00     0.167 HD
BRANCH   7   9
HETATM    9  C4  UNL     1      26.421   4.683  49.311  1.00  0.00     0.039 A 
HETATM   10  C3  UNL     1      25.674   5.756  49.820  1.00  0.00     0.069 A 
HETATM   11  C2  UNL     1      25.946   7.093  49.663  1.00  0.00     0.106 A 
HETATM   12  C20 UNL     1      27.074   7.369  48.925  1.00  0.00     0.135 A 
HETATM   13  C18 UNL     1      27.884   6.397  48.375  1.00  0.00     0.106 A 
HETATM   14  C17 UNL     1      27.524   5.085  48.591  1.00  0.00     0.069 A 
BRANCH  11  15
HETATM   15  O1  UNL     1      25.176   8.090  50.185  1.00  0.00    -0.353 OA
HETATM   16  C1  UNL     1      23.841   8.045  50.564  1.00  0.00     0.210 C 
ENDBRANCH  11  15
BRANCH  12  17
HETATM   17  O3  UNL     1      27.371   8.733  48.752  1.00  0.00    -0.351 OA
HETATM   18  C21 UNL     1      28.136   9.355  49.776  1.00  0.00     0.210 C 
ENDBRANCH  12  17
BRANCH  13  19
HETATM   19  O2  UNL     1      28.960   6.870  47.674  1.00  0.00    -0.353 OA
HETATM   20  C19 UNL     1      30.277   6.714  48.148  1.00  0.00     0.210 C 
ENDBRANCH  13  19
ENDBRANCH   7   9
ENDBRANCH   1   7
BRANCH   5  21
HETATM   21  C10 UNL     1      25.884   0.655  53.408  1.00  0.00     0.261 C 
HETATM   22  N2  UNL     1      25.720  -0.885  53.177  1.00  0.00    -0.260 NA
HETATM   23  C11 UNL     1      26.918  -1.308  52.934  1.00  0.00     0.049 C 
HETATM   24  C12 UNL     1      28.095  -2.153  53.217  1.00  0.00     0.028 C 
HETATM   25  C16 UNL     1      26.958  -0.158  51.889  1.00  0.00     0.183 C 
HETATM   26  C13 UNL     1      29.339  -1.573  53.347  1.00  0.00     0.003 C 
HETATM   27  C14 UNL     1      29.541  -0.086  53.504  1.00  0.00     0.017 C 
HETATM   28  C15 UNL     1      28.637   0.939  53.519  1.00  0.00     0.088 C 
HETATM   29  N3  UNL     1      27.307   0.647  53.108  1.00  0.00    -0.357 N 
ENDBRANCH   5  21
TORSDOF 6
ENDMDL
MODEL 7
REMARK VINA RESULT:      -7.7      5.099      7.695
REMARK  6 active torsions:
REMARK  status: ('A' for Active; 'I' for Inactive)
REMARK    1  A    between atoms: O1_2  and  C2_3 
REMARK    2  A    between atoms: C4_5  and  N1_6 
REMARK    3  A    between atoms: N1_6  and  C5_7 
REMARK    4  A    between atoms: C9_11  and  C10_12 
REMARK    5  A    between atoms: C18_23  and  O2_24 
REMARK    6  A    between atoms: C20_26  and  O3_27 
ROOT
HETATM    1  C5  UNL     1      23.070   0.961  52.395  1.00  0.00     0.128 A 
HETATM    2  C6  UNL     1      23.185   2.331  52.323  1.00  0.00     0.050 A 
HETATM    3  C7  UNL     1      24.216   3.082  52.846  1.00  0.00     0.006 A 
HETATM    4  C8  UNL     1      25.229   2.420  53.504  1.00  0.00     0.031 A 
HETATM    5  C9  UNL     1      25.114   1.035  53.580  1.00  0.00     0.081 A 
HETATM    6  N4  UNL     1      24.083   0.374  53.047  1.00  0.00    -0.232 NA
ENDROOT
BRANCH   1   7
HETATM    7  N1  UNL     1      22.033   0.190  51.868  1.00  0.00    -0.341 N 
HETATM    8  H5  UNL     1      22.271  -0.844  51.732  1.00  0.00     0.167 HD
BRANCH   7   9
HETATM    9  C4  UNL     1      20.719   0.426  51.446  1.00  0.00     0.039 A 
HETATM   10  C3  UNL     1      19.646  -0.225  52.072  1.00  0.00     0.069 A 
HETATM   11  C2  UNL     1      18.314  -0.102  51.758  1.00  0.00     0.106 A 
HETATM   12  C20 UNL     1      18.045   0.758  50.718  1.00  0.00     0.135 A 
HETATM   13  C18 UNL     1      19.018   1.452  50.029  1.00  0.00     0.106 A 
HETATM   14  C17 UNL     1      20.324   1.258  50.422  1.00  0.00     0.069 A 
BRANCH  11  15
HETATM   15  O1  UNL     1      17.317  -0.766  52.408  1.00  0.00    -0.353 OA
HETATM   16  C1  UNL     1      17.406  -1.909  53.193  1.00  0.00     0.210 C 
ENDBRANCH  11  15
BRANCH  12  17
HETATM   17  O3  UNL     1      16.687   0.900  50.380  1.00  0.00    -0.351 OA
HETATM   18  C21 UNL     1      15.965   1.922  51.053  1.00  0.00     0.210 C 
ENDBRANCH  12  17
BRANCH  13  19
HETATM   19  O2  UNL     1      18.552   2.258  49.027  1.00  0.00    -0.353 OA
HETATM   20  C19 UNL     1      19.425   2.888  48.118  1.00  0.00     0.210 C 
ENDBRANCH  13  19
ENDBRANCH   7   9
ENDBRANCH   1   7
BRANCH   5  21
HETATM   21  C10 UNL     1      26.111   0.221  54.249  1.00  0.00     0.261 C 
HETATM   22  N2  UNL     1      26.138  -1.193  53.576  1.00  0.00    -0.260 NA
HETATM   23  C11 UNL     1      27.345  -1.319  53.129  1.00  0.00     0.049 C 
HETATM   24  C12 UNL     1      28.654  -1.997  53.055  1.00  0.00     0.028 C 
HETATM   25  C16 UNL     1      27.097   0.072  52.480  1.00  0.00     0.183 C 
HETATM   26  C13 UNL     1      29.811  -1.277  53.262  1.00  0.00     0.003 C 
HETATM   27  C14 UNL     1      29.821   0.114  53.846  1.00  0.00     0.017 C 
HETATM   28  C15 UNL     1      28.791   0.923  54.237  1.00  0.00     0.088 C 
HETATM   29  N3  UNL     1      27.475   0.541  53.857  1.00  0.00    -0.357 N 
ENDBRANCH   5  21
TORSDOF 6
ENDMDL
MODEL 8
REMARK VINA RESULT:      -7.7      4.269      7.480
REMARK  6 active torsions:
REMARK  status: ('A' for Active; 'I' for Inactive)
REMARK    1  A    between atoms: O1_2  and  C2_3 
REMARK    2  A    between atoms: C4_5  and  N1_6 
REMARK    3  A    between atoms: N1_6  and  C5_7 
REMARK    4  A    between atoms: C9_11  and  C10_12 
REMARK    5  A    between atoms: C18_23  and  O2_24 
REMARK    6  A    between atoms: C20_26  and  O3_27 
ROOT
HETATM    1  C5  UNL     1      22.315  -0.546  53.427  1.00  0.00     0.128 A 
HETATM    2  C6  UNL     1      22.157  -1.015  54.712  1.00  0.00     0.050 A 
HETATM    3  C7  UNL     1      23.176  -1.342  55.581  1.00  0.00     0.006 A 
HETATM    4  C8  UNL     1      24.473  -1.193  55.143  1.00  0.00     0.031 A 
HETATM    5  C9  UNL     1      24.635  -0.720  53.844  1.00  0.00     0.081 A 
HETATM    6  N4  UNL     1      23.597  -0.423  53.057  1.00  0.00    -0.232 NA
ENDROOT
BRANCH   1   7
HETATM    7  N1  UNL     1      21.292  -0.210  52.539  1.00  0.00    -0.341 N 
HETATM    8  H5  UNL     1      20.666  -1.028  52.252  1.00  0.00     0.167 HD
BRANCH   7   9
HETATM    9  C4  UNL     1      20.863   0.956  51.894  1.00  0.00     0.039 A 
HETATM   10  C3  UNL     1      21.536   1.426  50.758  1.00  0.00     0.069 A 
HETATM   11  C2  UNL     1      21.238   2.556  50.035  1.00  0.00     0.106 A 
HETATM   12  C20 UNL     1      20.161   3.272  50.505  1.00  0.00     0.135 A 
HETATM   13  C18 UNL     1      19.424   2.906  51.612  1.00  0.00     0.106 A 
HETATM   14  C17 UNL     1      19.806   1.756  52.267  1.00  0.00     0.069 A 
BRANCH  11  15
HETATM   15  O1  UNL     1      21.936   2.959  48.936  1.00  0.00    -0.353 OA
HETATM   16  C1  UNL     1      23.312   3.058  48.771  1.00  0.00     0.210 C 
ENDBRANCH  11  15
BRANCH  12  17
HETATM   17  O3  UNL     1      19.837   4.433  49.778  1.00  0.00    -0.351 OA
HETATM   18  C21 UNL     1      20.533   5.621  50.132  1.00  0.00     0.210 C 
ENDBRANCH  12  17
BRANCH  13  19
HETATM   19  O2  UNL     1      18.391   3.748  51.922  1.00  0.00    -0.353 OA
HETATM   20  C19 UNL     1      17.050   3.397  51.667  1.00  0.00     0.210 C 
ENDBRANCH  13  19
ENDBRANCH   7   9
ENDBRANCH   1   7
BRANCH   5  21
HETATM   21  C10 UNL     1      25.949  -0.521  53.261  1.00  0.00     0.261 C 
HETATM   22  N2  UNL     1      25.890   0.716  52.302  1.00  0.00    -0.260 NA
HETATM   23  C11 UNL     1      26.749   1.550  52.792  1.00  0.00     0.049 C 
HETATM   24  C12 UNL     1      27.962   2.387  52.709  1.00  0.00     0.028 C 
HETATM   25  C16 UNL     1      25.999   1.312  54.133  1.00  0.00     0.183 C 
HETATM   26  C13 UNL     1      28.944   2.267  53.669  1.00  0.00     0.003 C 
HETATM   27  C14 UNL     1      28.996   1.125  54.655  1.00  0.00     0.017 C 
HETATM   28  C15 UNL     1      28.152   0.066  54.835  1.00  0.00     0.088 C 
HETATM   29  N3  UNL     1      26.895   0.106  54.171  1.00  0.00    -0.357 N 
ENDBRANCH   5  21
TORSDOF 6
ENDMDL
MODEL 9
REMARK VINA RESULT:      -7.7      1.871      3.544
REMARK  6 active torsions:
REMARK  status: ('A' for Active; 'I' for Inactive)
REMARK    1  A    between atoms: O1_2  and  C2_3 
REMARK    2  A    between atoms: C4_5  and  N1_6 
REMARK    3  A    between atoms: N1_6  and  C5_7 
REMARK    4  A    between atoms: C9_11  and  C10_12 
REMARK    5  A    between atoms: C18_23  and  O2_24 
REMARK    6  A    between atoms: C20_26  and  O3_27 
ROOT
HETATM    1  C5  UNL     1      25.194   3.194  50.412  1.00  0.00     0.128 A 
HETATM    2  C6  UNL     1      26.323   3.177  49.623  1.00  0.00     0.050 A 
HETATM    3  C7  UNL     1      26.962   4.284  49.108  1.00  0.00     0.006 A 
HETATM    4  C8  UNL     1      26.439   5.525  49.395  1.00  0.00     0.031 A 
HETATM    5  C9  UNL     1      25.297   5.545  50.191  1.00  0.00     0.081 A 
HETATM    6  N4  UNL     1      24.731   4.427  50.656  1.00  0.00    -0.232 NA
ENDROOT
BRANCH   1   7
HETATM    7  N1  UNL     1      24.539   2.081  50.941  1.00  0.00    -0.341 N 
HETATM    8  H5  UNL     1      23.630   1.820  50.442  1.00  0.00     0.167 HD
BRANCH   7   9
HETATM    9  C4  UNL     1      24.764   1.190  51.998  1.00  0.00     0.039 A 
HETATM   10  C3  UNL     1      23.686   0.675  52.732  1.00  0.00     0.069 A 
HETATM   11  C2  UNL     1      23.756  -0.191  53.796  1.00  0.00     0.106 A 
HETATM   12  C20 UNL     1      25.031  -0.570  54.147  1.00  0.00     0.135 A 
HETATM   13  C18 UNL     1      26.165  -0.127  53.499  1.00  0.00     0.106 A 
HETATM   14  C17 UNL     1      25.987   0.740  52.444  1.00  0.00     0.069 A 
BRANCH  11  15
HETATM   15  O1  UNL     1      22.665  -0.656  54.469  1.00  0.00    -0.353 OA
HETATM   16  C1  UNL     1      21.756  -1.630  54.078  1.00  0.00     0.210 C 
ENDBRANCH  11  15
BRANCH  12  17
HETATM   17  O3  UNL     1      25.126  -1.457  55.235  1.00  0.00    -0.351 OA
HETATM   18  C21 UNL     1      25.099  -0.880  56.533  1.00  0.00     0.210 C 
ENDBRANCH  12  17
BRANCH  13  19
HETATM   19  O2  UNL     1      27.343  -0.616  53.996  1.00  0.00    -0.353 OA
HETATM   20  C19 UNL     1      28.227   0.196  54.733  1.00  0.00     0.210 C 
ENDBRANCH  13  19
ENDBRANCH   7   9
ENDBRANCH   1   7
BRANCH   5  21
HETATM   21  C10 UNL     1      24.646   6.787  50.563  1.00  0.00     0.261 C 
HETATM   22  N2  UNL     1      24.916   7.849  49.444  1.00  0.00    -0.260 NA
HETATM   23  C11 UNL     1      23.741   8.174  49.013  1.00  0.00     0.049 C 
HETATM   24  C12 UNL     1      22.663   9.146  48.743  1.00  0.00     0.028 C 
HETATM   25  C16 UNL     1      23.523   6.641  48.877  1.00  0.00     0.183 C 
HETATM   26  C13 UNL     1      21.391   8.907  49.216  1.00  0.00     0.003 C 
HETATM   27  C14 UNL     1      21.080   7.846  50.243  1.00  0.00     0.017 C 
HETATM   28  C15 UNL     1      21.896   6.941  50.863  1.00  0.00     0.088 C 
HETATM   29  N3  UNL     1      23.209   6.774  50.340  1.00  0.00    -0.357 N 
ENDBRANCH   5  21
TORSDOF 6
ENDMDL
