MODEL 1
REMARK VINA RESULT:      -9.5      0.000      0.000
REMARK  7 active torsions:
REMARK  status: ('A' for Active; 'I' for Inactive)
REMARK    1  A    between atoms: C6_8  and  N3_9 
REMARK    2  A    between atoms: N3_9  and  C7_10 
REMARK    3  A    between atoms: C15_20  and  O1_21 
REMARK    4  A    between atoms: O1_21  and  C16_22 
REMARK    5  A    between atoms: C16_22  and  C17_23 
REMARK    6  A    between atoms: C17_23  and  C18_24 
REMARK    7  A    between atoms: C22_29  and  O3_30 
ROOT
HETATM    1  C1  UNL     1      21.482  -1.760  53.892  1.00  0.00     0.051 C 
HETATM    2  C2  UNL     1      21.698  -0.375  53.392  1.00  0.00    -0.026 A 
HETATM    3  C3  UNL     1      20.684   0.375  52.833  1.00  0.00     0.042 A 
HETATM    4  C4  UNL     1      20.940   1.654  52.386  1.00  0.00     0.072 A 
HETATM    5  N1  UNL     1      19.908   2.329  51.851  1.00  0.00    -0.241 NA
HETATM    6  C5  UNL     1      20.088   3.582  51.394  1.00  0.00     0.236 A 
HETATM    7  N2  UNL     1      21.298   4.144  51.479  1.00  0.00    -0.224 NA
HETATM    8  C6  UNL     1      22.372   3.539  51.996  1.00  0.00     0.142 A 
HETATM    9  C13 UNL     1      22.174   2.260  52.458  1.00  0.00     0.041 A 
HETATM   10  C14 UNL     1      23.140   1.462  53.025  1.00  0.00     0.055 A 
HETATM   11  C15 UNL     1      22.959   0.178  53.493  1.00  0.00     0.075 A 
ENDROOT
BRANCH  11  12
HETATM   12  O1  UNL     1      23.965  -0.566  54.048  1.00  0.00    -0.351 OA
BRANCH  12  13
HETATM   13  C16 UNL     1      25.315  -0.197  54.161  1.00  0.00     0.176 C 
BRANCH  13  14
HETATM   14  C17 UNL     1      26.164  -0.674  53.020  1.00  0.00     0.034 C 
BRANCH  14  15
HETATM   15  C18 UNL     1      27.362   0.212  52.785  1.00  0.00     0.020 C 
HETATM   16  C19 UNL     1      27.111   1.577  53.380  1.00  0.00     0.033 C 
HETATM   17  C20 UNL     1      28.406   2.285  53.718  1.00  0.00     0.168 C 
HETATM   18  O2  UNL     1      29.175   1.620  54.649  1.00  0.00    -0.389 OA
HETATM   19  C21 UNL     1      28.692   0.341  54.831  1.00  0.00     0.199 C 
HETATM   20  C22 UNL     1      28.583  -0.342  53.488  1.00  0.00     0.146 C 
BRANCH  20  21
HETATM   21  O3  UNL     1      28.552  -1.720  53.598  1.00  0.00    -0.393 OA
HETATM   22  H23 UNL     1      29.146  -1.979  54.344  1.00  0.00     0.210 HD
ENDBRANCH  20  21
ENDBRANCH  14  15
ENDBRANCH  13  14
ENDBRANCH  12  13
ENDBRANCH  11  12
BRANCH   8  23
HETATM   23  N3  UNL     1      23.663   4.113  52.095  1.00  0.00    -0.340 N 
HETATM   24  H6  UNL     1      24.002   4.529  52.980  1.00  0.00     0.167 HD
BRANCH  23  25
HETATM   25  C7  UNL     1      24.661   4.232  51.123  1.00  0.00     0.035 A 
HETATM   26  C8  UNL     1      25.607   3.251  50.811  1.00  0.00     0.032 A 
HETATM   27  C9  UNL     1      26.579   3.385  49.849  1.00  0.00     0.046 A 
HETATM   28  C10 UNL     1      26.669   4.545  49.115  1.00  0.00     0.138 A 
HETATM   29  F1  UNL     1      27.660   4.574  48.196  1.00  0.00    -0.204 F 
HETATM   30  C11 UNL     1      25.764   5.545  49.379  1.00  0.00     0.074 A 
HETATM   31 CL1  UNL     1      25.934   6.986  48.414  1.00  0.00    -0.081 Cl
HETATM   32  C12 UNL     1      24.810   5.355  50.356  1.00  0.00     0.056 A 
ENDBRANCH  23  25
ENDBRANCH   8  23
TORSDOF 7
ENDMDL
MODEL 2
REMARK VINA RESULT:      -9.1      1.165      1.483
REMARK  7 active torsions:
REMARK  status: ('A' for Active; 'I' for Inactive)
REMARK    1  A    between atoms: C6_8  and  N3_9 
REMARK    2  A    between atoms: N3_9  and  C7_10 
REMARK    3  A    between atoms: C15_20  and  O1_21 
REMARK    4  A    between atoms: O1_21  and  C16_22 
REMARK    5  A    between atoms: C16_22  and  C17_23 
REMARK    6  A    between atoms: C17_23  and  C18_24 
REMARK    7  A    between atoms: C22_29  and  O3_30 
ROOT
HETATM    1  C1  UNL     1      21.747  -1.161  54.834  1.00  0.00     0.051 C 
HETATM    2  C2  UNL     1      21.957  -0.062  53.853  1.00  0.00    -0.026 A 
HETATM    3  C3  UNL     1      21.003   0.906  53.613  1.00  0.00     0.042 A 
HETATM    4  C4  UNL     1      21.252   1.902  52.693  1.00  0.00     0.072 A 
HETATM    5  N1  UNL     1      20.280   2.813  52.506  1.00  0.00    -0.241 NA
HETATM    6  C5  UNL     1      20.455   3.812  51.622  1.00  0.00     0.236 A 
HETATM    7  N2  UNL     1      21.600   3.888  50.936  1.00  0.00    -0.224 NA
HETATM    8  C6  UNL     1      22.611   3.022  51.064  1.00  0.00     0.142 A 
HETATM    9  C13 UNL     1      22.419   2.008  51.970  1.00  0.00     0.041 A 
HETATM   10  C14 UNL     1      23.326   1.015  52.255  1.00  0.00     0.055 A 
HETATM   11  C15 UNL     1      23.149  -0.010  53.159  1.00  0.00     0.075 A 
ENDROOT
BRANCH  11  12
HETATM   12  O1  UNL     1      24.096  -0.970  53.398  1.00  0.00    -0.351 OA
BRANCH  12  13
HETATM   13  C16 UNL     1      25.408  -0.760  53.849  1.00  0.00     0.176 C 
BRANCH  13  14
HETATM   14  C17 UNL     1      26.455  -1.160  52.851  1.00  0.00     0.034 C 
BRANCH  14  15
HETATM   15  C18 UNL     1      27.524  -0.108  52.686  1.00  0.00     0.020 C 
HETATM   16  C19 UNL     1      27.025   1.213  53.222  1.00  0.00     0.033 C 
HETATM   17  C20 UNL     1      28.170   2.112  53.640  1.00  0.00     0.168 C 
HETATM   18  O2  UNL     1      28.951   1.585  54.646  1.00  0.00    -0.389 OA
HETATM   19  C21 UNL     1      28.650   0.251  54.825  1.00  0.00     0.199 C 
HETATM   20  C22 UNL     1      28.752  -0.461  53.496  1.00  0.00     0.146 C 
BRANCH  20  21
HETATM   21  O3  UNL     1      28.918  -1.827  53.641  1.00  0.00    -0.393 OA
HETATM   22  H23 UNL     1      29.880  -2.003  53.780  1.00  0.00     0.210 HD
ENDBRANCH  20  21
ENDBRANCH  14  15
ENDBRANCH  13  14
ENDBRANCH  12  13
ENDBRANCH  11  12
BRANCH   8  23
HETATM   23  N3  UNL     1      23.831   3.082  50.348  1.00  0.00    -0.340 N 
HETATM   24  H6  UNL     1      24.390   2.230  50.161  1.00  0.00     0.167 HD
BRANCH  23  25
HETATM   25  C7  UNL     1      24.484   4.186  49.792  1.00  0.00     0.035 A 
HETATM   26  C8  UNL     1      23.892   5.425  49.525  1.00  0.00     0.032 A 
HETATM   27  C9  UNL     1      24.552   6.501  48.982  1.00  0.00     0.046 A 
HETATM   28  C10 UNL     1      25.886   6.403  48.660  1.00  0.00     0.138 A 
HETATM   29  F1  UNL     1      26.437   7.519  48.132  1.00  0.00    -0.204 F 
HETATM   30  C11 UNL     1      26.519   5.208  48.901  1.00  0.00     0.074 A 
HETATM   31 CL1  UNL     1      28.206   5.152  48.470  1.00  0.00    -0.081 Cl
HETATM   32  C12 UNL     1      25.807   4.161  49.448  1.00  0.00     0.056 A 
ENDBRANCH  23  25
ENDBRANCH   8  23
TORSDOF 7
ENDMDL
MODEL 3
REMARK VINA RESULT:      -9.0      3.706      5.899
REMARK  7 active torsions:
REMARK  status: ('A' for Active; 'I' for Inactive)
REMARK    1  A    between atoms: C6_8  and  N3_9 
REMARK    2  A    between atoms: N3_9  and  C7_10 
REMARK    3  A    between atoms: C15_20  and  O1_21 
REMARK    4  A    between atoms: O1_21  and  C16_22 
REMARK    5  A    between atoms: C16_22  and  C17_23 
REMARK    6  A    between atoms: C17_23  and  C18_24 
REMARK    7  A    between atoms: C22_29  and  O3_30 
ROOT
HETATM    1  C1  UNL     1      18.586   0.101  51.714  1.00  0.00     0.051 C 
HETATM    2  C2  UNL     1      19.964  -0.038  52.255  1.00  0.00    -0.026 A 
HETATM    3  C3  UNL     1      20.230  -0.687  53.444  1.00  0.00     0.042 A 
HETATM    4  C4  UNL     1      21.528  -0.786  53.898  1.00  0.00     0.072 A 
HETATM    5  N1  UNL     1      21.716  -1.430  55.064  1.00  0.00    -0.241 NA
HETATM    6  C5  UNL     1      22.957  -1.563  55.566  1.00  0.00     0.236 A 
HETATM    7  N2  UNL     1      23.995  -1.052  54.895  1.00  0.00    -0.224 NA
HETATM    8  C6  UNL     1      23.890  -0.399  53.733  1.00  0.00     0.142 A 
HETATM    9  C13 UNL     1      22.617  -0.271  53.232  1.00  0.00     0.041 A 
HETATM   10  C14 UNL     1      22.286   0.361  52.056  1.00  0.00     0.055 A 
HETATM   11  C15 UNL     1      21.016   0.500  51.540  1.00  0.00     0.075 A 
ENDROOT
BRANCH  11  12
HETATM   12  O1  UNL     1      20.753   1.143  50.360  1.00  0.00    -0.351 OA
BRANCH  12  13
HETATM   13  C16 UNL     1      21.614   1.255  49.257  1.00  0.00     0.176 C 
BRANCH  13  14
HETATM   14  C17 UNL     1      22.150   2.641  49.055  1.00  0.00     0.034 C 
BRANCH  14  15
HETATM   15  C18 UNL     1      23.270   2.970  50.013  1.00  0.00     0.020 C 
HETATM   16  C19 UNL     1      24.434   3.561  49.253  1.00  0.00     0.033 C 
HETATM   17  C20 UNL     1      25.293   4.435  50.143  1.00  0.00     0.168 C 
HETATM   18  O2  UNL     1      24.622   5.515  50.674  1.00  0.00    -0.389 OA
HETATM   19  C21 UNL     1      23.265   5.369  50.477  1.00  0.00     0.199 C 
HETATM   20  C22 UNL     1      22.831   4.022  51.008  1.00  0.00     0.146 C 
BRANCH  20  21
HETATM   21  O3  UNL     1      21.473   3.971  51.270  1.00  0.00    -0.393 OA
HETATM   22  H23 UNL     1      21.038   3.488  50.526  1.00  0.00     0.210 HD
ENDBRANCH  20  21
ENDBRANCH  14  15
ENDBRANCH  13  14
ENDBRANCH  12  13
ENDBRANCH  11  12
BRANCH   8  23
HETATM   23  N3  UNL     1      24.973   0.151  53.006  1.00  0.00    -0.340 N 
HETATM   24  H6  UNL     1      24.817   0.791  52.207  1.00  0.00     0.167 HD
BRANCH  23  25
HETATM   25  C7  UNL     1      26.348  -0.028  53.187  1.00  0.00     0.035 A 
HETATM   26  C8  UNL     1      27.055  -1.200  52.900  1.00  0.00     0.032 A 
HETATM   27  C9  UNL     1      28.408  -1.355  53.080  1.00  0.00     0.046 A 
HETATM   28  C10 UNL     1      29.164  -0.316  53.575  1.00  0.00     0.138 A 
HETATM   29  F1  UNL     1      30.483  -0.575  53.714  1.00  0.00    -0.204 F 
HETATM   30  C11 UNL     1      28.520   0.860  53.875  1.00  0.00     0.074 A 
HETATM   31 CL1  UNL     1      29.534   2.133  54.496  1.00  0.00    -0.081 Cl
HETATM   32  C12 UNL     1      27.160   0.959  53.673  1.00  0.00     0.056 A 
ENDBRANCH  23  25
ENDBRANCH   8  23
TORSDOF 7
ENDMDL
MODEL 4
REMARK VINA RESULT:      -9.0      2.780      5.664
REMARK  7 active torsions:
REMARK  status: ('A' for Active; 'I' for Inactive)
REMARK    1  A    between atoms: C6_8  and  N3_9 
REMARK    2  A    between atoms: N3_9  and  C7_10 
REMARK    3  A    between atoms: C15_20  and  O1_21 
REMARK    4  A    between atoms: O1_21  and  C16_22 
REMARK    5  A    between atoms: C16_22  and  C17_23 
REMARK    6  A    between atoms: C17_23  and  C18_24 
REMARK    7  A    between atoms: C22_29  and  O3_30 
ROOT
HETATM    1  C1  UNL     1      23.975  -1.425  55.619  1.00  0.00     0.051 C 
HETATM    2  C2  UNL     1      24.808  -0.573  54.727  1.00  0.00    -0.026 A 
HETATM    3  C3  UNL     1      26.036  -0.078  55.115  1.00  0.00     0.042 A 
HETATM    4  C4  UNL     1      26.766   0.706  54.248  1.00  0.00     0.072 A 
HETATM    5  N1  UNL     1      27.954   1.157  54.689  1.00  0.00    -0.241 NA
HETATM    6  C5  UNL     1      28.718   1.928  53.895  1.00  0.00     0.236 A 
HETATM    7  N2  UNL     1      28.286   2.238  52.668  1.00  0.00    -0.224 NA
HETATM    8  C6  UNL     1      27.120   1.830  52.158  1.00  0.00     0.142 A 
HETATM    9  C13 UNL     1      26.349   1.044  52.980  1.00  0.00     0.041 A 
HETATM   10  C14 UNL     1      25.121   0.520  52.654  1.00  0.00     0.055 A 
HETATM   11  C15 UNL     1      24.335  -0.270  53.466  1.00  0.00     0.075 A 
ENDROOT
BRANCH  11  12
HETATM   12  O1  UNL     1      23.117  -0.762  53.081  1.00  0.00    -0.351 OA
BRANCH  12  13
HETATM   13  C16 UNL     1      22.150  -0.097  52.310  1.00  0.00     0.176 C 
BRANCH  13  14
HETATM   14  C17 UNL     1      21.764   1.244  52.862  1.00  0.00     0.034 C 
BRANCH  14  15
HETATM   15  C18 UNL     1      21.979   2.358  51.868  1.00  0.00     0.020 C 
HETATM   16  C19 UNL     1      22.337   1.777  50.521  1.00  0.00     0.033 C 
HETATM   17  C20 UNL     1      21.982   2.725  49.394  1.00  0.00     0.168 C 
HETATM   18  O2  UNL     1      20.637   3.017  49.316  1.00  0.00    -0.389 OA
HETATM   19  C21 UNL     1      19.996   2.584  50.458  1.00  0.00     0.199 C 
HETATM   20  C22 UNL     1      20.704   3.149  51.667  1.00  0.00     0.146 C 
BRANCH  20  21
HETATM   21  O3  UNL     1      19.901   3.156  52.794  1.00  0.00    -0.393 OA
HETATM   22  H23 UNL     1      19.077   3.658  52.576  1.00  0.00     0.210 HD
ENDBRANCH  20  21
ENDBRANCH  14  15
ENDBRANCH  13  14
ENDBRANCH  12  13
ENDBRANCH  11  12
BRANCH   8  23
HETATM   23  N3  UNL     1      26.641   2.147  50.864  1.00  0.00    -0.340 N 
HETATM   24  H6  UNL     1      26.535   1.419  50.134  1.00  0.00     0.167 HD
BRANCH  23  25
HETATM   25  C7  UNL     1      26.246   3.380  50.338  1.00  0.00     0.035 A 
HETATM   26  C8  UNL     1      26.915   4.081  49.329  1.00  0.00     0.032 A 
HETATM   27  C9  UNL     1      26.509   5.291  48.822  1.00  0.00     0.046 A 
HETATM   28  C10 UNL     1      25.372   5.897  49.306  1.00  0.00     0.138 A 
HETATM   29  F1  UNL     1      25.062   7.085  48.739  1.00  0.00    -0.204 F 
HETATM   30  C11 UNL     1      24.674   5.253  50.299  1.00  0.00     0.074 A 
HETATM   31 CL1  UNL     1      23.246   6.075  50.866  1.00  0.00    -0.081 Cl
HETATM   32  C12 UNL     1      25.128   4.040  50.770  1.00  0.00     0.056 A 
ENDBRANCH  23  25
ENDBRANCH   8  23
TORSDOF 7
ENDMDL
MODEL 5
REMARK VINA RESULT:      -8.7      1.986      2.194
REMARK  7 active torsions:
REMARK  status: ('A' for Active; 'I' for Inactive)
REMARK    1  A    between atoms: C6_8  and  N3_9 
REMARK    2  A    between atoms: N3_9  and  C7_10 
REMARK    3  A    between atoms: C15_20  and  O1_21 
REMARK    4  A    between atoms: O1_21  and  C16_22 
REMARK    5  A    between atoms: C16_22  and  C17_23 
REMARK    6  A    between atoms: C17_23  and  C18_24 
REMARK    7  A    between atoms: C22_29  and  O3_30 
ROOT
HETATM    1  C1  UNL     1      21.784  -0.858  55.026  1.00  0.00     0.051 C 
HETATM    2  C2  UNL     1      21.610  -0.301  53.658  1.00  0.00    -0.026 A 
HETATM    3  C3  UNL     1      20.367  -0.122  53.086  1.00  0.00     0.042 A 
HETATM    4  C4  UNL     1      20.264   0.399  51.814  1.00  0.00     0.072 A 
HETATM    5  N1  UNL     1      19.023   0.545  51.316  1.00  0.00    -0.241 NA
HETATM    6  C5  UNL     1      18.850   1.048  50.080  1.00  0.00     0.236 A 
HETATM    7  N2  UNL     1      19.919   1.398  49.357  1.00  0.00    -0.224 NA
HETATM    8  C6  UNL     1      21.182   1.283  49.781  1.00  0.00     0.142 A 
HETATM    9  C13 UNL     1      21.344   0.769  51.044  1.00  0.00     0.041 A 
HETATM   10  C14 UNL     1      22.552   0.567  51.671  1.00  0.00     0.055 A 
HETATM   11  C15 UNL     1      22.733   0.051  52.936  1.00  0.00     0.075 A 
ENDROOT
BRANCH  11  12
HETATM   12  O1  UNL     1      23.966  -0.125  53.504  1.00  0.00    -0.351 OA
BRANCH  12  13
HETATM   13  C16 UNL     1      25.129   0.611  53.226  1.00  0.00     0.176 C 
BRANCH  13  14
HETATM   14  C17 UNL     1      26.199  -0.194  52.549  1.00  0.00     0.034 C 
BRANCH  14  15
HETATM   15  C18 UNL     1      27.536   0.505  52.560  1.00  0.00     0.020 C 
HETATM   16  C19 UNL     1      27.383   1.891  53.139  1.00  0.00     0.033 C 
HETATM   17  C20 UNL     1      28.685   2.396  53.726  1.00  0.00     0.168 C 
HETATM   18  O2  UNL     1      29.164   1.623  54.761  1.00  0.00    -0.389 OA
HETATM   19  C21 UNL     1      28.474   0.430  54.815  1.00  0.00     0.199 C 
HETATM   20  C22 UNL     1      28.514  -0.227  53.455  1.00  0.00     0.146 C 
BRANCH  20  21
HETATM   21  O3  UNL     1      28.262  -1.586  53.517  1.00  0.00    -0.393 OA
HETATM   22  H23 UNL     1      27.715  -1.829  52.731  1.00  0.00     0.210 HD
ENDBRANCH  20  21
ENDBRANCH  14  15
ENDBRANCH  13  14
ENDBRANCH  12  13
ENDBRANCH  11  12
BRANCH   8  23
HETATM   23  N3  UNL     1      22.328   1.646  49.034  1.00  0.00    -0.340 N 
HETATM   24  H6  UNL     1      22.825   0.959  48.438  1.00  0.00     0.167 HD
BRANCH  23  25
HETATM   25  C7  UNL     1      22.977   2.881  48.944  1.00  0.00     0.035 A 
HETATM   26  C8  UNL     1      24.195   3.201  49.553  1.00  0.00     0.032 A 
HETATM   27  C9  UNL     1      24.819   4.420  49.449  1.00  0.00     0.046 A 
HETATM   28  C10 UNL     1      24.249   5.428  48.707  1.00  0.00     0.138 A 
HETATM   29  F1  UNL     1      24.945   6.586  48.671  1.00  0.00    -0.204 F 
HETATM   30  C11 UNL     1      23.051   5.170  48.085  1.00  0.00     0.074 A 
HETATM   31 CL1  UNL     1      22.384   6.488  47.163  1.00  0.00    -0.081 Cl
HETATM   32  C12 UNL     1      22.469   3.927  48.224  1.00  0.00     0.056 A 
ENDBRANCH  23  25
ENDBRANCH   8  23
TORSDOF 7
ENDMDL
MODEL 6
REMARK VINA RESULT:      -8.6      3.885      6.757
REMARK  7 active torsions:
REMARK  status: ('A' for Active; 'I' for Inactive)
REMARK    1  A    between atoms: C6_8  and  N3_9 
REMARK    2  A    between atoms: N3_9  and  C7_10 
REMARK    3  A    between atoms: C15_20  and  O1_21 
REMARK    4  A    between atoms: O1_21  and  C16_22 
REMARK    5  A    between atoms: C16_22  and  C17_23 
REMARK    6  A    between atoms: C17_23  and  C18_24 
REMARK    7  A    between atoms: C22_29  and  O3_30 
ROOT
HETATM    1  C1  UNL     1      28.821   2.091  53.566  1.00  0.00     0.051 C 
HETATM    2  C2  UNL     1      27.473   1.464  53.525  1.00  0.00    -0.026 A 
HETATM    3  C3  UNL     1      27.014   0.631  54.525  1.00  0.00     0.042 A 
HETATM    4  C4  UNL     1      25.755   0.078  54.435  1.00  0.00     0.072 A 
HETATM    5  N1  UNL     1      25.371  -0.726  55.443  1.00  0.00    -0.241 NA
HETATM    6  C5  UNL     1      24.154  -1.300  55.419  1.00  0.00     0.236 A 
HETATM    7  N2  UNL     1      23.336  -1.064  54.388  1.00  0.00    -0.224 NA
HETATM    8  C6  UNL     1      23.645  -0.280  53.350  1.00  0.00     0.142 A 
HETATM    9  C13 UNL     1      24.890   0.301  53.387  1.00  0.00     0.041 A 
HETATM   10  C14 UNL     1      25.405   1.138  52.425  1.00  0.00     0.055 A 
HETATM   11  C15 UNL     1      26.651   1.727  52.447  1.00  0.00     0.075 A 
ENDROOT
BRANCH  11  12
HETATM   12  O1  UNL     1      27.105   2.554  51.455  1.00  0.00    -0.351 OA
BRANCH  12  13
HETATM   13  C16 UNL     1      26.513   2.760  50.199  1.00  0.00     0.176 C 
BRANCH  13  14
HETATM   14  C17 UNL     1      26.664   4.163  49.689  1.00  0.00     0.034 C 
BRANCH  14  15
HETATM   15  C18 UNL     1      25.359   4.737  49.192  1.00  0.00     0.020 C 
HETATM   16  C19 UNL     1      24.245   3.743  49.422  1.00  0.00     0.033 C 
HETATM   17  C20 UNL     1      22.899   4.430  49.521  1.00  0.00     0.168 C 
HETATM   18  O2  UNL     1      22.807   5.325  50.565  1.00  0.00    -0.389 OA
HETATM   19  C21 UNL     1      24.060   5.567  51.088  1.00  0.00     0.199 C 
HETATM   20  C22 UNL     1      24.991   5.981  49.971  1.00  0.00     0.146 C 
BRANCH  20  21
HETATM   21  O3  UNL     1      26.100   6.665  50.435  1.00  0.00    -0.393 OA
HETATM   22  H23 UNL     1      26.749   6.000  50.770  1.00  0.00     0.210 HD
ENDBRANCH  20  21
ENDBRANCH  14  15
ENDBRANCH  13  14
ENDBRANCH  12  13
ENDBRANCH  11  12
BRANCH   8  23
HETATM   23  N3  UNL     1      22.797  -0.015  52.247  1.00  0.00    -0.340 N 
HETATM   24  H6  UNL     1      22.949  -0.468  51.328  1.00  0.00     0.167 HD
BRANCH  23  25
HETATM   25  C7  UNL     1      21.682   0.825  52.163  1.00  0.00     0.035 A 
HETATM   26  C8  UNL     1      21.693   2.206  52.385  1.00  0.00     0.032 A 
HETATM   27  C9  UNL     1      20.587   3.016  52.293  1.00  0.00     0.046 A 
HETATM   28  C10 UNL     1      19.362   2.480  51.965  1.00  0.00     0.138 A 
HETATM   29  F1  UNL     1      18.341   3.364  51.902  1.00  0.00    -0.204 F 
HETATM   30  C11 UNL     1      19.293   1.127  51.736  1.00  0.00     0.074 A 
HETATM   31 CL1  UNL     1      17.715   0.515  51.326  1.00  0.00    -0.081 Cl
HETATM   32  C12 UNL     1      20.436   0.362  51.842  1.00  0.00     0.056 A 
ENDBRANCH  23  25
ENDBRANCH   8  23
TORSDOF 7
ENDMDL
MODEL 7
REMARK VINA RESULT:      -8.6      3.079      5.690
REMARK  7 active torsions:
REMARK  status: ('A' for Active; 'I' for Inactive)
REMARK    1  A    between atoms: C6_8  and  N3_9 
REMARK    2  A    between atoms: N3_9  and  C7_10 
REMARK    3  A    between atoms: C15_20  and  O1_21 
REMARK    4  A    between atoms: O1_21  and  C16_22 
REMARK    5  A    between atoms: C16_22  and  C17_23 
REMARK    6  A    between atoms: C17_23  and  C18_24 
REMARK    7  A    between atoms: C22_29  and  O3_30 
ROOT
HETATM    1  C1  UNL     1      27.662   4.803  48.634  1.00  0.00     0.051 C 
HETATM    2  C2  UNL     1      26.337   4.942  49.296  1.00  0.00    -0.026 A 
HETATM    3  C3  UNL     1      25.418   5.900  48.917  1.00  0.00     0.042 A 
HETATM    4  C4  UNL     1      24.205   5.983  49.565  1.00  0.00     0.072 A 
HETATM    5  N1  UNL     1      23.357   6.940  49.146  1.00  0.00    -0.241 NA
HETATM    6  C5  UNL     1      22.155   7.078  49.736  1.00  0.00     0.236 A 
HETATM    7  N2  UNL     1      21.816   6.258  50.736  1.00  0.00    -0.224 NA
HETATM    8  C6  UNL     1      22.602   5.285  51.209  1.00  0.00     0.142 A 
HETATM    9  C13 UNL     1      23.826   5.155  50.598  1.00  0.00     0.041 A 
HETATM   10  C14 UNL     1      24.783   4.224  50.928  1.00  0.00     0.055 A 
HETATM   11  C15 UNL     1      26.015   4.081  50.327  1.00  0.00     0.075 A 
ENDROOT
BRANCH  11  12
HETATM   12  O1  UNL     1      26.926   3.130  50.703  1.00  0.00    -0.351 OA
BRANCH  12  13
HETATM   13  C16 UNL     1      26.644   1.882  51.278  1.00  0.00     0.176 C 
BRANCH  13  14
HETATM   14  C17 UNL     1      26.879   1.838  52.759  1.00  0.00     0.034 C 
BRANCH  14  15
HETATM   15  C18 UNL     1      26.650   0.463  53.337  1.00  0.00     0.020 C 
HETATM   16  C19 UNL     1      26.625  -0.559  52.226  1.00  0.00     0.033 C 
HETATM   17  C20 UNL     1      26.999  -1.938  52.730  1.00  0.00     0.168 C 
HETATM   18  O2  UNL     1      28.269  -2.010  53.260  1.00  0.00    -0.389 OA
HETATM   19  C21 UNL     1      28.774  -0.739  53.444  1.00  0.00     0.199 C 
HETATM   20  C22 UNL     1      27.788   0.071  54.254  1.00  0.00     0.146 C 
BRANCH  20  21
HETATM   21  O3  UNL     1      28.379   1.164  54.864  1.00  0.00    -0.393 OA
HETATM   22  H23 UNL     1      27.879   1.971  54.590  1.00  0.00     0.210 HD
ENDBRANCH  20  21
ENDBRANCH  14  15
ENDBRANCH  13  14
ENDBRANCH  12  13
ENDBRANCH  11  12
BRANCH   8  23
HETATM   23  N3  UNL     1      22.265   4.407  52.266  1.00  0.00    -0.340 N 
HETATM   24  H6  UNL     1      22.558   4.597  53.242  1.00  0.00     0.167 HD
BRANCH  23  25
HETATM   25  C7  UNL     1      21.538   3.213  52.234  1.00  0.00     0.035 A 
HETATM   26  C8  UNL     1      20.174   3.105  51.946  1.00  0.00     0.032 A 
HETATM   27  C9  UNL     1      19.477   1.921  51.915  1.00  0.00     0.046 A 
HETATM   28  C10 UNL     1      20.120   0.733  52.180  1.00  0.00     0.138 A 
HETATM   29  F1  UNL     1      19.342  -0.371  52.123  1.00  0.00    -0.204 F 
HETATM   30  C11 UNL     1      21.462   0.780  52.469  1.00  0.00     0.074 A 
HETATM   31 CL1  UNL     1      22.214  -0.758  52.794  1.00  0.00    -0.081 Cl
HETATM   32  C12 UNL     1      22.111   1.996  52.486  1.00  0.00     0.056 A 
ENDBRANCH  23  25
ENDBRANCH   8  23
TORSDOF 7
ENDMDL
MODEL 8
REMARK VINA RESULT:      -8.2      2.394      3.505
REMARK  7 active torsions:
REMARK  status: ('A' for Active; 'I' for Inactive)
REMARK    1  A    between atoms: C6_8  and  N3_9 
REMARK    2  A    between atoms: N3_9  and  C7_10 
REMARK    3  A    between atoms: C15_20  and  O1_21 
REMARK    4  A    between atoms: O1_21  and  C16_22 
REMARK    5  A    between atoms: C16_22  and  C17_23 
REMARK    6  A    between atoms: C17_23  and  C18_24 
REMARK    7  A    between atoms: C22_29  and  O3_30 
ROOT
HETATM    1  C1  UNL     1      21.939   1.634  52.025  1.00  0.00     0.051 C 
HETATM    2  C2  UNL     1      22.342   3.038  51.744  1.00  0.00    -0.026 A 
HETATM    3  C3  UNL     1      21.441   3.997  51.329  1.00  0.00     0.042 A 
HETATM    4  C4  UNL     1      21.870   5.284  51.083  1.00  0.00     0.072 A 
HETATM    5  N1  UNL     1      20.940   6.168  50.679  1.00  0.00    -0.241 NA
HETATM    6  C5  UNL     1      21.290   7.441  50.421  1.00  0.00     0.236 A 
HETATM    7  N2  UNL     1      22.565   7.815  50.570  1.00  0.00    -0.224 NA
HETATM    8  C6  UNL     1      23.545   6.997  50.966  1.00  0.00     0.142 A 
HETATM    9  C13 UNL     1      23.175   5.700  51.226  1.00  0.00     0.041 A 
HETATM   10  C14 UNL     1      24.021   4.700  51.643  1.00  0.00     0.055 A 
HETATM   11  C15 UNL     1      23.666   3.395  51.907  1.00  0.00     0.075 A 
ENDROOT
BRANCH  11  12
HETATM   12  O1  UNL     1      24.561   2.444  52.321  1.00  0.00    -0.351 OA
BRANCH  12  13
HETATM   13  C16 UNL     1      25.537   1.814  51.534  1.00  0.00     0.176 C 
BRANCH  13  14
HETATM   14  C17 UNL     1      26.942   2.136  51.952  1.00  0.00     0.034 C 
BRANCH  14  15
HETATM   15  C18 UNL     1      27.180   1.869  53.418  1.00  0.00     0.020 C 
HETATM   16  C19 UNL     1      26.870   0.424  53.730  1.00  0.00     0.033 C 
HETATM   17  C20 UNL     1      27.623  -0.056  54.953  1.00  0.00     0.168 C 
HETATM   18  O2  UNL     1      28.993  -0.001  54.818  1.00  0.00    -0.389 OA
HETATM   19  C21 UNL     1      29.326   0.736  53.701  1.00  0.00     0.199 C 
HETATM   20  C22 UNL     1      28.637   2.078  53.770  1.00  0.00     0.146 C 
BRANCH  20  21
HETATM   21  O3  UNL     1      29.246   3.027  52.968  1.00  0.00    -0.393 OA
HETATM   22  H23 UNL     1      28.642   3.213  52.208  1.00  0.00     0.210 HD
ENDBRANCH  20  21
ENDBRANCH  14  15
ENDBRANCH  13  14
ENDBRANCH  12  13
ENDBRANCH  11  12
BRANCH   8  23
HETATM   23  N3  UNL     1      24.901   7.370  51.130  1.00  0.00    -0.340 N 
HETATM   24  H6  UNL     1      25.276   7.653  52.053  1.00  0.00     0.167 HD
BRANCH  23  25
HETATM   25  C7  UNL     1      25.928   7.431  50.183  1.00  0.00     0.035 A 
HETATM   26  C8  UNL     1      26.171   6.476  49.191  1.00  0.00     0.032 A 
HETATM   27  C9  UNL     1      27.183   6.556  48.266  1.00  0.00     0.046 A 
HETATM   28  C10 UNL     1      28.045   7.629  48.275  1.00  0.00     0.138 A 
HETATM   29  F1  UNL     1      29.005   7.609  47.323  1.00  0.00    -0.204 F 
HETATM   30  C11 UNL     1      27.854   8.599  49.229  1.00  0.00     0.074 A 
HETATM   31 CL1  UNL     1      28.979   9.928  49.185  1.00  0.00    -0.081 Cl
HETATM   32  C12 UNL     1      26.821   8.466  50.133  1.00  0.00     0.056 A 
ENDBRANCH  23  25
ENDBRANCH   8  23
TORSDOF 7
ENDMDL
MODEL 9
REMARK VINA RESULT:      -8.2      3.773      6.033
REMARK  7 active torsions:
REMARK  status: ('A' for Active; 'I' for Inactive)
REMARK    1  A    between atoms: C6_8  and  N3_9 
REMARK    2  A    between atoms: N3_9  and  C7_10 
REMARK    3  A    between atoms: C15_20  and  O1_21 
REMARK    4  A    between atoms: O1_21  and  C16_22 
REMARK    5  A    between atoms: C16_22  and  C17_23 
REMARK    6  A    between atoms: C17_23  and  C18_24 
REMARK    7  A    between atoms: C22_29  and  O3_30 
ROOT
HETATM    1  C1  UNL     1      26.128   3.591  49.740  1.00  0.00     0.051 C 
HETATM    2  C2  UNL     1      24.672   3.300  49.836  1.00  0.00    -0.026 A 
HETATM    3  C3  UNL     1      23.859   3.225  48.724  1.00  0.00     0.042 A 
HETATM    4  C4  UNL     1      22.516   2.952  48.871  1.00  0.00     0.072 A 
HETATM    5  N1  UNL     1      21.780   2.894  47.747  1.00  0.00    -0.241 NA
HETATM    6  C5  UNL     1      20.463   2.633  47.818  1.00  0.00     0.236 A 
HETATM    7  N2  UNL     1      19.896   2.431  49.012  1.00  0.00    -0.224 NA
HETATM    8  C6  UNL     1      20.558   2.473  50.173  1.00  0.00     0.142 A 
HETATM    9  C13 UNL     1      21.903   2.741  50.086  1.00  0.00     0.041 A 
HETATM   10  C14 UNL     1      22.766   2.829  51.153  1.00  0.00     0.055 A 
HETATM   11  C15 UNL     1      24.116   3.097  51.084  1.00  0.00     0.075 A 
ENDROOT
BRANCH  11  12
HETATM   12  O1  UNL     1      24.923   3.171  52.187  1.00  0.00    -0.351 OA
BRANCH  12  13
HETATM   13  C16 UNL     1      25.137   2.161  53.137  1.00  0.00     0.176 C 
BRANCH  13  14
HETATM   14  C17 UNL     1      26.503   1.546  53.060  1.00  0.00     0.034 C 
BRANCH  14  15
HETATM   15  C18 UNL     1      26.516   0.112  53.528  1.00  0.00     0.020 C 
HETATM   16  C19 UNL     1      26.600  -0.812  52.336  1.00  0.00     0.033 C 
HETATM   17  C20 UNL     1      27.205  -2.149  52.710  1.00  0.00     0.168 C 
HETATM   18  O2  UNL     1      28.493  -2.061  53.192  1.00  0.00    -0.389 OA
HETATM   19  C21 UNL     1      28.803  -0.745  53.466  1.00  0.00     0.199 C 
HETATM   20  C22 UNL     1      27.741  -0.166  54.372  1.00  0.00     0.146 C 
BRANCH  20  21
HETATM   21  O3  UNL     1      28.181   0.955  55.052  1.00  0.00    -0.393 OA
HETATM   22  H23 UNL     1      28.259   0.719  56.009  1.00  0.00     0.210 HD
ENDBRANCH  20  21
ENDBRANCH  14  15
ENDBRANCH  13  14
ENDBRANCH  12  13
ENDBRANCH  11  12
BRANCH   8  23
HETATM   23  N3  UNL     1      19.981   2.265  51.449  1.00  0.00    -0.340 N 
HETATM   24  H6  UNL     1      19.761   3.058  52.079  1.00  0.00     0.167 HD
BRANCH  23  25
HETATM   25  C7  UNL     1      19.615   1.070  52.076  1.00  0.00     0.035 A 
HETATM   26  C8  UNL     1      18.394   0.409  51.906  1.00  0.00     0.032 A 
HETATM   27  C9  UNL     1      18.055  -0.768  52.528  1.00  0.00     0.046 A 
HETATM   28  C10 UNL     1      18.940  -1.377  53.387  1.00  0.00     0.138 A 
HETATM   29  F1  UNL     1      18.507  -2.529  53.946  1.00  0.00    -0.204 F 
HETATM   30  C11 UNL     1      20.156  -0.771  53.592  1.00  0.00     0.074 A 
HETATM   31 CL1  UNL     1      21.230  -1.593  54.690  1.00  0.00    -0.081 Cl
HETATM   32  C12 UNL     1      20.444   0.410  52.941  1.00  0.00     0.056 A 
ENDBRANCH  23  25
ENDBRANCH   8  23
TORSDOF 7
ENDMDL
