MODEL 1
REMARK VINA RESULT:      -8.0      0.000      0.000
REMARK  0 active torsions:
REMARK  status: ('A' for Active; 'I' for Inactive)
ROOT
HETATM    1  O1  UNL     1      21.733   1.781  52.911  1.00  0.00    -0.125 OA
HETATM    2  C1  UNL     1      20.682   1.982  52.200  1.00  0.00     0.307 A 
HETATM    3  C2  UNL     1      19.724   2.484  51.190  1.00  0.00     0.081 C 
HETATM    4  C3  UNL     1      19.351   1.681  50.239  1.00  0.00    -0.024 C 
HETATM    5  C4  UNL     1      20.297   1.018  49.598  1.00  0.00     0.002 C 
HETATM    6  C5  UNL     1      21.643   1.288  50.029  1.00  0.00     0.092 A 
HETATM    7  C6  UNL     1      22.544   2.139  49.641  1.00  0.00     0.052 A 
HETATM    8 BR1  UNL     1      21.024   2.423  48.515  1.00  0.00    -0.144 Br
HETATM    9  C7  UNL     1      23.660   3.017  49.439  1.00  0.00     0.040 A 
HETATM   10  C8  UNL     1      23.898   2.507  50.589  1.00  0.00     0.116 A 
HETATM   11  N1  UNL     1      24.566   2.266  51.775  1.00  0.00    -0.346 N 
HETATM   12  S1  UNL     1      25.400   0.956  52.608  1.00  0.00     0.021 SA
HETATM   13  N2  UNL     1      26.571   0.106  51.843  1.00  0.00    -0.197 NA
HETATM   14  C9  UNL     1      27.158  -0.912  52.634  1.00  0.00     0.237 C 
HETATM   15  N3  UNL     1      26.788  -1.116  53.824  1.00  0.00    -0.277 NA
HETATM   16  C10 UNL     1      25.796  -0.452  54.595  1.00  0.00     0.194 C 
HETATM   17  C11 UNL     1      24.539  -0.146  53.827  1.00  0.00     0.012 C 
HETATM   18  C12 UNL     1      23.192  -0.391  53.755  1.00  0.00     0.036 C 
HETATM   19  C13 UNL     1      21.874  -0.920  54.071  1.00  0.00     0.041 C 
HETATM   20  C14 UNL     1      20.870   0.150  54.334  1.00  0.00     0.281 C 
HETATM   21  N4  UNL     1      20.548   1.014  53.232  1.00  0.00     0.105 N 
HETATM   22  H6  UNL     1      24.824   2.812  52.650  1.00  0.00     0.169 HD
HETATM   23  H15 UNL     1      19.508   0.780  53.056  1.00  0.00     0.328 HD
ENDROOT
TORSDOF 0
ENDMDL
MODEL 2
REMARK VINA RESULT:      -7.9      2.770      5.640
REMARK  0 active torsions:
REMARK  status: ('A' for Active; 'I' for Inactive)
ROOT
HETATM    1  O1  UNL     1      23.631  -0.407  52.841  1.00  0.00    -0.125 OA
HETATM    2  C1  UNL     1      24.788  -0.581  53.375  1.00  0.00     0.307 A 
HETATM    3  C2  UNL     1      26.245  -0.612  53.629  1.00  0.00     0.081 C 
HETATM    4  C3  UNL     1      26.732   0.184  54.533  1.00  0.00    -0.024 C 
HETATM    5  C4  UNL     1      26.361   1.451  54.492  1.00  0.00     0.002 C 
HETATM    6  C5  UNL     1      25.464   1.799  53.421  1.00  0.00     0.092 A 
HETATM    7  C6  UNL     1      25.654   2.238  52.215  1.00  0.00     0.052 A 
HETATM    8 BR1  UNL     1      27.391   2.059  52.995  1.00  0.00    -0.144 Br
HETATM    9  C7  UNL     1      25.611   2.657  50.842  1.00  0.00     0.040 A 
HETATM   10  C8  UNL     1      24.438   2.182  51.037  1.00  0.00     0.116 A 
HETATM   11  N1  UNL     1      23.136   1.815  50.751  1.00  0.00    -0.346 N 
HETATM   12  S1  UNL     1      21.487   2.234  51.214  1.00  0.00     0.021 SA
HETATM   13  N2  UNL     1      20.993   3.794  51.184  1.00  0.00    -0.197 NA
HETATM   14  C9  UNL     1      19.645   3.982  51.574  1.00  0.00     0.237 C 
HETATM   15  N3  UNL     1      18.914   3.007  51.907  1.00  0.00    -0.277 NA
HETATM   16  C10 UNL     1      19.220   1.621  51.969  1.00  0.00     0.194 C 
HETATM   17  C11 UNL     1      20.577   1.327  52.552  1.00  0.00     0.012 C 
HETATM   18  C12 UNL     1      21.234   0.713  53.586  1.00  0.00     0.036 C 
HETATM   19  C13 UNL     1      21.470  -0.044  54.806  1.00  0.00     0.041 C 
HETATM   20  C14 UNL     1      22.329  -1.243  54.583  1.00  0.00     0.281 C 
HETATM   21  N4  UNL     1      23.681  -0.995  54.163  1.00  0.00     0.105 N 
HETATM   22  H6  UNL     1      22.643   1.114  50.123  1.00  0.00     0.169 HD
HETATM   23  H15 UNL     1      24.252  -1.365  55.003  1.00  0.00     0.328 HD
ENDROOT
TORSDOF 0
ENDMDL
MODEL 3
REMARK VINA RESULT:      -7.7      2.670      5.000
REMARK  0 active torsions:
REMARK  status: ('A' for Active; 'I' for Inactive)
ROOT
HETATM    1  O1  UNL     1      25.640   2.209  50.706  1.00  0.00    -0.125 OA
HETATM    2  C1  UNL     1      26.175   3.235  50.147  1.00  0.00     0.307 A 
HETATM    3  C2  UNL     1      26.494   4.342  49.218  1.00  0.00     0.081 C 
HETATM    4  C3  UNL     1      26.258   5.560  49.605  1.00  0.00    -0.024 C 
HETATM    5  C4  UNL     1      25.075   5.811  50.134  1.00  0.00     0.002 C 
HETATM    6  C5  UNL     1      24.175   4.690  50.199  1.00  0.00     0.092 A 
HETATM    7  C6  UNL     1      23.264   4.237  49.393  1.00  0.00     0.052 A 
HETATM    8 BR1  UNL     1      23.986   5.798  48.557  1.00  0.00    -0.144 Br
HETATM    9  C7  UNL     1      22.270   3.517  48.650  1.00  0.00     0.040 A 
HETATM   10  C8  UNL     1      22.635   2.671  49.539  1.00  0.00     0.116 A 
HETATM   11  N1  UNL     1      22.672   1.483  50.243  1.00  0.00    -0.346 N 
HETATM   12  S1  UNL     1      22.311   0.860  51.853  1.00  0.00     0.021 SA
HETATM   13  N2  UNL     1      20.858   1.158  52.545  1.00  0.00    -0.197 NA
HETATM   14  C9  UNL     1      20.704   0.593  53.835  1.00  0.00     0.237 C 
HETATM   15  N3  UNL     1      21.628  -0.081  54.372  1.00  0.00    -0.277 NA
HETATM   16  C10 UNL     1      22.919  -0.411  53.878  1.00  0.00     0.194 C 
HETATM   17  C11 UNL     1      23.606   0.728  53.174  1.00  0.00     0.012 C 
HETATM   18  C12 UNL     1      24.695   1.560  53.204  1.00  0.00     0.036 C 
HETATM   19  C13 UNL     1      25.944   2.171  53.633  1.00  0.00     0.041 C 
HETATM   20  C14 UNL     1      27.007   2.103  52.590  1.00  0.00     0.281 C 
HETATM   21  N4  UNL     1      26.763   2.831  51.376  1.00  0.00     0.105 N 
HETATM   22  H6  UNL     1      22.948   0.473  50.057  1.00  0.00     0.169 HD
HETATM   23  H15 UNL     1      27.538   3.584  51.400  1.00  0.00     0.328 HD
ENDROOT
TORSDOF 0
ENDMDL
MODEL 4
REMARK VINA RESULT:      -7.4      2.893      6.283
REMARK  0 active torsions:
REMARK  status: ('A' for Active; 'I' for Inactive)
ROOT
HETATM    1  O1  UNL     1      23.513   3.011  53.001  1.00  0.00    -0.125 OA
HETATM    2  C1  UNL     1      24.738   2.712  53.252  1.00  0.00     0.307 A 
HETATM    3  C2  UNL     1      25.966   2.108  53.814  1.00  0.00     0.081 C 
HETATM    4  C3  UNL     1      26.671   1.322  53.056  1.00  0.00    -0.024 C 
HETATM    5  C4  UNL     1      26.027   0.378  52.395  1.00  0.00     0.002 C 
HETATM    6  C5  UNL     1      24.606   0.325  52.616  1.00  0.00     0.092 A 
HETATM    7  C6  UNL     1      23.864  -0.328  53.458  1.00  0.00     0.052 A 
HETATM    8 BR1  UNL     1      25.668  -0.852  53.820  1.00  0.00    -0.144 Br
HETATM    9  C7  UNL     1      22.855  -0.879  54.315  1.00  0.00     0.040 A 
HETATM   10  C8  UNL     1      22.254   0.104  53.757  1.00  0.00     0.116 A 
HETATM   11  N1  UNL     1      21.229   0.981  53.458  1.00  0.00    -0.346 N 
HETATM   12  S1  UNL     1      20.206   1.442  52.097  1.00  0.00     0.021 SA
HETATM   13  N2  UNL     1      19.400   0.298  51.247  1.00  0.00    -0.197 NA
HETATM   14  C9  UNL     1      18.613   0.812  50.188  1.00  0.00     0.237 C 
HETATM   15  N3  UNL     1      18.559   2.051  49.949  1.00  0.00    -0.277 NA
HETATM   16  C10 UNL     1      19.201   3.133  50.609  1.00  0.00     0.194 C 
HETATM   17  C11 UNL     1      20.634   2.854  50.973  1.00  0.00     0.012 C 
HETATM   18  C12 UNL     1      21.932   3.244  50.764  1.00  0.00     0.036 C 
HETATM   19  C13 UNL     1      23.078   3.980  50.255  1.00  0.00     0.041 C 
HETATM   20  C14 UNL     1      23.892   4.602  51.340  1.00  0.00     0.281 C 
HETATM   21  N4  UNL     1      24.543   3.701  52.251  1.00  0.00     0.105 N 
HETATM   22  H6  UNL     1      20.667   1.727  53.965  1.00  0.00     0.169 HD
HETATM   23  H15 UNL     1      25.588   3.888  52.049  1.00  0.00     0.328 HD
ENDROOT
TORSDOF 0
ENDMDL
MODEL 5
REMARK VINA RESULT:      -7.4      2.761      5.468
REMARK  0 active torsions:
REMARK  status: ('A' for Active; 'I' for Inactive)
ROOT
HETATM    1  O1  UNL     1      22.870  -0.345  52.638  1.00  0.00    -0.125 OA
HETATM    2  C1  UNL     1      24.024   0.163  52.888  1.00  0.00     0.307 A 
HETATM    3  C2  UNL     1      25.344   0.821  52.764  1.00  0.00     0.081 C 
HETATM    4  C3  UNL     1      25.498   1.999  53.290  1.00  0.00    -0.024 C 
HETATM    5  C4  UNL     1      24.574   2.906  53.030  1.00  0.00     0.002 C 
HETATM    6  C5  UNL     1      23.505   2.473  52.169  1.00  0.00     0.092 A 
HETATM    7  C6  UNL     1      23.329   2.518  50.884  1.00  0.00     0.052 A 
HETATM    8 BR1  UNL     1      25.023   3.342  51.219  1.00  0.00    -0.144 Br
HETATM    9  C7  UNL     1      22.941   2.394  49.508  1.00  0.00     0.040 A 
HETATM   10  C8  UNL     1      22.158   1.575  50.105  1.00  0.00     0.116 A 
HETATM   11  N1  UNL     1      21.159   0.632  50.258  1.00  0.00    -0.346 N 
HETATM   12  S1  UNL     1      19.570   0.465  51.004  1.00  0.00     0.021 SA
HETATM   13  N2  UNL     1      18.401   1.574  50.713  1.00  0.00    -0.197 NA
HETATM   14  C9  UNL     1      17.176   1.309  51.372  1.00  0.00     0.237 C 
HETATM   15  N3  UNL     1      17.031   0.295  52.111  1.00  0.00    -0.277 NA
HETATM   16  C10 UNL     1      17.957  -0.733  52.436  1.00  0.00     0.194 C 
HETATM   17  C11 UNL     1      19.348  -0.228  52.710  1.00  0.00     0.012 C 
HETATM   18  C12 UNL     1      20.329  -0.131  53.663  1.00  0.00     0.036 C 
HETATM   19  C13 UNL     1      21.027  -0.265  54.932  1.00  0.00     0.041 C 
HETATM   20  C14 UNL     1      22.318  -1.003  54.804  1.00  0.00     0.281 C 
HETATM   21  N4  UNL     1      23.338  -0.378  54.008  1.00  0.00     0.105 N 
HETATM   22  H6  UNL     1      20.985  -0.375  49.968  1.00  0.00     0.169 HD
HETATM   23  H15 UNL     1      24.106  -0.175  54.740  1.00  0.00     0.328 HD
ENDROOT
TORSDOF 0
ENDMDL
MODEL 6
REMARK VINA RESULT:      -7.3      1.714      1.901
REMARK  0 active torsions:
REMARK  status: ('A' for Active; 'I' for Inactive)
ROOT
HETATM    1  O1  UNL     1      22.214   3.035  52.201  1.00  0.00    -0.125 OA
HETATM    2  C1  UNL     1      21.466   3.653  51.359  1.00  0.00     0.307 A 
HETATM    3  C2  UNL     1      20.947   4.597  50.345  1.00  0.00     0.081 C 
HETATM    4  C3  UNL     1      20.716   4.152  49.146  1.00  0.00    -0.024 C 
HETATM    5  C4  UNL     1      21.663   3.431  48.573  1.00  0.00     0.002 C 
HETATM    6  C5  UNL     1      22.857   3.243  49.355  1.00  0.00     0.092 A 
HETATM    7  C6  UNL     1      23.974   3.899  49.437  1.00  0.00     0.052 A 
HETATM    8 BR1  UNL     1      22.918   4.809  48.127  1.00  0.00    -0.144 Br
HETATM    9  C7  UNL     1      25.246   4.485  49.750  1.00  0.00     0.040 A 
HETATM   10  C8  UNL     1      25.047   3.685  50.730  1.00  0.00     0.116 A 
HETATM   11  N1  UNL     1      25.291   3.021  51.918  1.00  0.00    -0.346 N 
HETATM   12  S1  UNL     1      25.592   1.388  52.509  1.00  0.00     0.021 SA
HETATM   13  N2  UNL     1      26.751   0.461  51.819  1.00  0.00    -0.197 NA
HETATM   14  C9  UNL     1      26.887  -0.824  52.399  1.00  0.00     0.237 C 
HETATM   15  N3  UNL     1      26.162  -1.189  53.366  1.00  0.00    -0.277 NA
HETATM   16  C10 UNL     1      25.135  -0.484  54.050  1.00  0.00     0.194 C 
HETATM   17  C11 UNL     1      24.229   0.299  53.138  1.00  0.00     0.012 C 
HETATM   18  C12 UNL     1      22.937   0.430  52.698  1.00  0.00     0.036 C 
HETATM   19  C13 UNL     1      21.509   0.198  52.545  1.00  0.00     0.041 C 
HETATM   20  C14 UNL     1      20.691   1.402  52.869  1.00  0.00     0.281 C 
HETATM   21  N4  UNL     1      20.865   2.545  52.015  1.00  0.00     0.105 N 
HETATM   22  H6  UNL     1      25.388   3.272  52.946  1.00  0.00     0.169 HD
HETATM   23  H15 UNL     1      19.893   2.631  51.550  1.00  0.00     0.328 HD
ENDROOT
TORSDOF 0
ENDMDL
MODEL 7
REMARK VINA RESULT:      -6.8      3.116      5.535
REMARK  0 active torsions:
REMARK  status: ('A' for Active; 'I' for Inactive)
ROOT
HETATM    1  O1  UNL     1      24.236   2.738  52.626  1.00  0.00    -0.125 OA
HETATM    2  C1  UNL     1      23.715   1.624  52.999  1.00  0.00     0.307 A 
HETATM    3  C2  UNL     1      22.787   0.588  53.503  1.00  0.00     0.081 C 
HETATM    4  C3  UNL     1      22.328  -0.292  52.665  1.00  0.00    -0.024 C 
HETATM    5  C4  UNL     1      21.844   0.154  51.520  1.00  0.00     0.002 C 
HETATM    6  C5  UNL     1      21.869   1.583  51.352  1.00  0.00     0.092 A 
HETATM    7  C6  UNL     1      21.010   2.521  51.611  1.00  0.00     0.052 A 
HETATM    8 BR1  UNL     1      20.172   0.877  52.115  1.00  0.00    -0.144 Br
HETATM    9  C7  UNL     1      20.266   3.721  51.867  1.00  0.00     0.040 A 
HETATM   10  C8  UNL     1      21.458   4.153  51.683  1.00  0.00     0.116 A 
HETATM   11  N1  UNL     1      22.493   5.063  51.574  1.00  0.00    -0.346 N 
HETATM   12  S1  UNL     1      23.611   5.690  50.365  1.00  0.00     0.021 SA
HETATM   13  N2  UNL     1      23.050   6.244  48.930  1.00  0.00    -0.197 NA
HETATM   14  C9  UNL     1      24.059   6.723  48.059  1.00  0.00     0.237 C 
HETATM   15  N3  UNL     1      25.276   6.712  48.394  1.00  0.00    -0.277 NA
HETATM   16  C10 UNL     1      25.884   6.266  49.599  1.00  0.00     0.194 C 
HETATM   17  C11 UNL     1      25.308   4.980  50.127  1.00  0.00     0.012 C 
HETATM   18  C12 UNL     1      25.594   3.673  50.427  1.00  0.00     0.036 C 
HETATM   19  C13 UNL     1      26.337   2.433  50.587  1.00  0.00     0.041 C 
HETATM   20  C14 UNL     1      26.330   1.934  51.993  1.00  0.00     0.281 C 
HETATM   21  N4  UNL     1      25.054   1.548  52.530  1.00  0.00     0.105 N 
HETATM   22  H6  UNL     1      23.008   5.739  52.213  1.00  0.00     0.169 HD
HETATM   23  H15 UNL     1      25.185   0.486  52.686  1.00  0.00     0.328 HD
ENDROOT
TORSDOF 0
ENDMDL
MODEL 8
REMARK VINA RESULT:      -6.8      5.782      8.164
REMARK  0 active torsions:
REMARK  status: ('A' for Active; 'I' for Inactive)
ROOT
HETATM    1  O1  UNL     1      25.678   5.470  50.063  1.00  0.00    -0.125 OA
HETATM    2  C1  UNL     1      24.798   4.580  49.769  1.00  0.00     0.307 A 
HETATM    3  C2  UNL     1      23.539   3.812  49.650  1.00  0.00     0.081 C 
HETATM    4  C3  UNL     1      22.961   3.748  48.488  1.00  0.00    -0.024 C 
HETATM    5  C4  UNL     1      22.804   4.879  47.824  1.00  0.00     0.002 C 
HETATM    6  C5  UNL     1      23.282   6.061  48.492  1.00  0.00     0.092 A 
HETATM    7  C6  UNL     1      22.718   6.921  49.283  1.00  0.00     0.052 A 
HETATM    8 BR1  UNL     1      21.360   5.658  48.815  1.00  0.00    -0.144 Br
HETATM    9  C7  UNL     1      22.341   7.948  50.212  1.00  0.00     0.040 A 
HETATM   10  C8  UNL     1      23.621   7.988  50.239  1.00  0.00     0.116 A 
HETATM   11  N1  UNL     1      24.886   8.407  50.606  1.00  0.00    -0.346 N 
HETATM   12  S1  UNL     1      26.303   9.184  49.903  1.00  0.00     0.021 SA
HETATM   13  N2  UNL     1      26.146  10.582  49.065  1.00  0.00    -0.197 NA
HETATM   14  C9  UNL     1      27.367  11.096  48.563  1.00  0.00     0.237 C 
HETATM   15  N3  UNL     1      28.463  10.504  48.765  1.00  0.00    -0.277 NA
HETATM   16  C10 UNL     1      28.730   9.300  49.472  1.00  0.00     0.194 C 
HETATM   17  C11 UNL     1      27.723   8.211  49.212  1.00  0.00     0.012 C 
HETATM   18  C12 UNL     1      27.556   6.949  48.705  1.00  0.00     0.036 C 
HETATM   19  C13 UNL     1      27.859   5.663  48.096  1.00  0.00     0.041 C 
HETATM   20  C14 UNL     1      27.501   4.510  48.972  1.00  0.00     0.281 C 
HETATM   21  N4  UNL     1      26.105   4.338  49.266  1.00  0.00     0.105 N 
HETATM   22  H6  UNL     1      25.484   8.406  51.485  1.00  0.00     0.169 HD
HETATM   23  H15 UNL     1      25.886   3.394  48.788  1.00  0.00     0.328 HD
ENDROOT
TORSDOF 0
ENDMDL
MODEL 9
REMARK VINA RESULT:      -6.7      3.006      5.650
REMARK  0 active torsions:
REMARK  status: ('A' for Active; 'I' for Inactive)
ROOT
HETATM    1  O1  UNL     1      21.957   0.284  51.736  1.00  0.00    -0.125 OA
HETATM    2  C1  UNL     1      22.962   1.085  51.706  1.00  0.00     0.307 A 
HETATM    3  C2  UNL     1      23.958   2.101  51.297  1.00  0.00     0.081 C 
HETATM    4  C3  UNL     1      23.974   3.238  51.925  1.00  0.00    -0.024 C 
HETATM    5  C4  UNL     1      22.819   3.856  52.092  1.00  0.00     0.002 C 
HETATM    6  C5  UNL     1      21.673   3.189  51.532  1.00  0.00     0.092 A 
HETATM    7  C6  UNL     1      21.080   3.263  50.380  1.00  0.00     0.052 A 
HETATM    8 BR1  UNL     1      22.524   4.516  50.317  1.00  0.00    -0.144 Br
HETATM    9  C7  UNL     1      20.307   3.120  49.179  1.00  0.00     0.040 A 
HETATM   10  C8  UNL     1      19.996   2.075  49.850  1.00  0.00     0.116 A 
HETATM   11  N1  UNL     1      19.373   0.877  50.149  1.00  0.00    -0.346 N 
HETATM   12  S1  UNL     1      18.213   0.214  51.299  1.00  0.00     0.021 SA
HETATM   13  N2  UNL     1      16.774   0.957  51.540  1.00  0.00    -0.197 NA
HETATM   14  C9  UNL     1      15.941   0.311  52.485  1.00  0.00     0.237 C 
HETATM   15  N3  UNL     1      16.306  -0.747  53.071  1.00  0.00    -0.277 NA
HETATM   16  C10 UNL     1      17.515  -1.484  52.946  1.00  0.00     0.194 C 
HETATM   17  C11 UNL     1      18.744  -0.620  52.868  1.00  0.00     0.012 C 
HETATM   18  C12 UNL     1      19.925  -0.306  53.490  1.00  0.00     0.036 C 
HETATM   19  C13 UNL     1      21.010  -0.314  54.458  1.00  0.00     0.041 C 
HETATM   20  C14 UNL     1      22.330  -0.640  53.843  1.00  0.00     0.281 C 
HETATM   21  N4  UNL     1      22.840   0.300  52.884  1.00  0.00     0.105 N 
HETATM   22  H6  UNL     1      19.374  -0.118  49.775  1.00  0.00     0.169 HD
HETATM   23  H15 UNL     1      23.728   0.669  53.376  1.00  0.00     0.328 HD
ENDROOT
TORSDOF 0
ENDMDL
