MODEL 1
REMARK VINA RESULT:      -7.8      0.000      0.000
REMARK  6 active torsions:
REMARK  status: ('A' for Active; 'I' for Inactive)
REMARK    1  A    between atoms: O1_2  and  C2_3 
REMARK    2  A    between atoms: C6_7  and  C7_8 
REMARK    3  A    between atoms: C7_8  and  C8_9 
REMARK    4  A    between atoms: C11_13  and  N2_14 
REMARK    5  A    between atoms: N2_14  and  C12_15 
REMARK    6  A    between atoms: C16_19  and  O2_20 
ROOT
HETATM    1  C8  UNL     1      22.707   1.991  51.241  1.00  0.00     0.132 A 
HETATM    2  N1  UNL     1      22.240   3.092  51.852  1.00  0.00    -0.245 NA
HETATM    3  C9  UNL     1      23.107   4.002  52.381  1.00  0.00     0.122 A 
HETATM    4  C10 UNL     1      24.477   3.837  52.314  1.00  0.00     0.070 A 
HETATM    5  C11 UNL     1      24.935   2.700  51.683  1.00  0.00     0.131 A 
HETATM    6  N3  UNL     1      24.038   1.843  51.184  1.00  0.00    -0.216 NA
ENDROOT
BRANCH   5   7
HETATM    7  N2  UNL     1      26.317   2.398  51.543  1.00  0.00    -0.341 N 
HETATM    8  H11 UNL     1      26.649   2.770  50.643  1.00  0.00     0.167 HD
BRANCH   7   9
HETATM    9  C12 UNL     1      27.181   1.708  52.439  1.00  0.00     0.036 A 
HETATM   10  C13 UNL     1      28.109   2.438  53.172  1.00  0.00     0.029 A 
HETATM   11  C14 UNL     1      28.937   1.734  54.030  1.00  0.00     0.005 A 
HETATM   12  C15 UNL     1      28.865   0.350  54.172  1.00  0.00     0.037 A 
HETATM   13  C16 UNL     1      27.934  -0.365  53.434  1.00  0.00     0.070 A 
HETATM   14  C18 UNL     1      27.095   0.337  52.567  1.00  0.00     0.066 A 
BRANCH  13  15
HETATM   15  O2  UNL     1      27.728  -1.738  53.452  1.00  0.00    -0.356 OA
HETATM   16  C17 UNL     1      27.130  -2.493  52.446  1.00  0.00     0.210 C 
ENDBRANCH  13  15
ENDBRANCH   7   9
ENDBRANCH   5   7
BRANCH   1  17
HETATM   17  C7  UNL     1      21.875   0.914  50.622  1.00  0.00     0.119 C 
BRANCH  17  18
HETATM   18  C6  UNL     1      21.038   0.287  51.660  1.00  0.00    -0.048 A 
HETATM   19  C5  UNL     1      19.678   0.278  51.456  1.00  0.00     0.007 A 
HETATM   20  C4  UNL     1      18.819  -0.287  52.372  1.00  0.00     0.003 A 
HETATM   21  C3  UNL     1      19.318  -0.859  53.524  1.00  0.00     0.037 A 
HETATM   22  C2  UNL     1      20.686  -0.872  53.773  1.00  0.00     0.068 A 
HETATM   23  C19 UNL     1      21.500  -0.292  52.822  1.00  0.00     0.044 A 
BRANCH  22  24
HETATM   24  O1  UNL     1      21.276  -1.421  54.899  1.00  0.00    -0.356 OA
HETATM   25  C1  UNL     1      22.663  -1.314  55.143  1.00  0.00     0.210 C 
ENDBRANCH  22  24
ENDBRANCH  17  18
ENDBRANCH   1  17
TORSDOF 6
ENDMDL
MODEL 2
REMARK VINA RESULT:      -7.7      3.263      7.130
REMARK  6 active torsions:
REMARK  status: ('A' for Active; 'I' for Inactive)
REMARK    1  A    between atoms: O1_2  and  C2_3 
REMARK    2  A    between atoms: C6_7  and  C7_8 
REMARK    3  A    between atoms: C7_8  and  C8_9 
REMARK    4  A    between atoms: C11_13  and  N2_14 
REMARK    5  A    between atoms: N2_14  and  C12_15 
REMARK    6  A    between atoms: C16_19  and  O2_20 
ROOT
HETATM    1  C8  UNL     1      26.637   2.080  51.154  1.00  0.00     0.132 A 
HETATM    2  N1  UNL     1      27.524   2.562  52.040  1.00  0.00    -0.245 NA
HETATM    3  C9  UNL     1      27.519   2.116  53.328  1.00  0.00     0.122 A 
HETATM    4  C10 UNL     1      26.619   1.166  53.773  1.00  0.00     0.070 A 
HETATM    5  C11 UNL     1      25.717   0.685  52.849  1.00  0.00     0.131 A 
HETATM    6  N3  UNL     1      25.770   1.160  51.599  1.00  0.00    -0.216 NA
ENDROOT
BRANCH   5   7
HETATM    7  N2  UNL     1      24.733  -0.291  53.166  1.00  0.00    -0.341 N 
HETATM    8  H11 UNL     1      25.161  -1.225  53.108  1.00  0.00     0.167 HD
BRANCH   7   9
HETATM    9  C12 UNL     1      23.367  -0.107  53.519  1.00  0.00     0.036 A 
HETATM   10  C13 UNL     1      22.820  -0.901  54.521  1.00  0.00     0.029 A 
HETATM   11  C14 UNL     1      21.487  -0.700  54.834  1.00  0.00     0.005 A 
HETATM   12  C15 UNL     1      20.701   0.252  54.188  1.00  0.00     0.037 A 
HETATM   13  C16 UNL     1      21.260   1.036  53.190  1.00  0.00     0.070 A 
HETATM   14  C18 UNL     1      22.604   0.840  52.868  1.00  0.00     0.066 A 
BRANCH  13  15
HETATM   15  O2  UNL     1      20.626   2.024  52.449  1.00  0.00    -0.356 OA
HETATM   16  C17 UNL     1      21.074   3.330  52.267  1.00  0.00     0.210 C 
ENDBRANCH  13  15
ENDBRANCH   7   9
ENDBRANCH   5   7
BRANCH   1  17
HETATM   17  C7  UNL     1      26.528   2.479  49.718  1.00  0.00     0.119 C 
BRANCH  17  18
HETATM   18  C6  UNL     1      26.357   3.940  49.630  1.00  0.00    -0.048 A 
HETATM   19  C5  UNL     1      27.240   4.632  48.834  1.00  0.00     0.007 A 
HETATM   20  C4  UNL     1      27.156   6.000  48.692  1.00  0.00     0.003 A 
HETATM   21  C3  UNL     1      26.171   6.703  49.354  1.00  0.00     0.037 A 
HETATM   22  C2  UNL     1      25.256   6.044  50.170  1.00  0.00     0.068 A 
HETATM   23  C19 UNL     1      25.388   4.674  50.276  1.00  0.00     0.044 A 
BRANCH  22  24
HETATM   24  O1  UNL     1      24.238   6.665  50.872  1.00  0.00    -0.356 OA
HETATM   25  C1  UNL     1      23.819   7.981  50.574  1.00  0.00     0.210 C 
ENDBRANCH  22  24
ENDBRANCH  17  18
ENDBRANCH   1  17
TORSDOF 6
ENDMDL
MODEL 3
REMARK VINA RESULT:      -7.5      2.571      4.449
REMARK  6 active torsions:
REMARK  status: ('A' for Active; 'I' for Inactive)
REMARK    1  A    between atoms: O1_2  and  C2_3 
REMARK    2  A    between atoms: C6_7  and  C7_8 
REMARK    3  A    between atoms: C7_8  and  C8_9 
REMARK    4  A    between atoms: C11_13  and  N2_14 
REMARK    5  A    between atoms: N2_14  and  C12_15 
REMARK    6  A    between atoms: C16_19  and  O2_20 
ROOT
HETATM    1  C8  UNL     1      22.166   0.072  52.597  1.00  0.00     0.132 A 
HETATM    2  N1  UNL     1      21.206  -0.509  53.334  1.00  0.00    -0.245 NA
HETATM    3  C9  UNL     1      21.525  -1.155  54.492  1.00  0.00     0.122 A 
HETATM    4  C10 UNL     1      22.826  -1.239  54.951  1.00  0.00     0.070 A 
HETATM    5  C11 UNL     1      23.796  -0.636  54.179  1.00  0.00     0.131 A 
HETATM    6  N3  UNL     1      23.423  -0.018  53.053  1.00  0.00    -0.216 NA
ENDROOT
BRANCH   5   7
HETATM    7  N2  UNL     1      25.175  -0.646  54.526  1.00  0.00    -0.341 N 
HETATM    8  H11 UNL     1      25.362  -1.465  55.121  1.00  0.00     0.167 HD
BRANCH   7   9
HETATM    9  C12 UNL     1      26.200   0.272  54.162  1.00  0.00     0.036 A 
HETATM   10  C13 UNL     1      25.869   1.610  53.984  1.00  0.00     0.029 A 
HETATM   11  C14 UNL     1      26.889   2.474  53.625  1.00  0.00     0.005 A 
HETATM   12  C15 UNL     1      28.202   2.048  53.442  1.00  0.00     0.037 A 
HETATM   13  C16 UNL     1      28.518   0.710  53.623  1.00  0.00     0.070 A 
HETATM   14  C18 UNL     1      27.495  -0.168  53.986  1.00  0.00     0.066 A 
BRANCH  13  15
HETATM   15  O2  UNL     1      29.765   0.118  53.483  1.00  0.00    -0.356 OA
HETATM   16  C17 UNL     1      30.073  -1.219  53.725  1.00  0.00     0.210 C 
ENDBRANCH  13  15
ENDBRANCH   7   9
ENDBRANCH   5   7
BRANCH   1  17
HETATM   17  C7  UNL     1      21.959   0.807  51.312  1.00  0.00     0.119 C 
BRANCH  17  18
HETATM   18  C6  UNL     1      22.560   2.149  51.417  1.00  0.00    -0.048 A 
HETATM   19  C5  UNL     1      21.874   3.092  52.147  1.00  0.00     0.007 A 
HETATM   20  C4  UNL     1      22.360   4.372  52.300  1.00  0.00     0.003 A 
HETATM   21  C3  UNL     1      23.557   4.730  51.715  1.00  0.00     0.037 A 
HETATM   22  C2  UNL     1      24.284   3.809  50.968  1.00  0.00     0.068 A 
HETATM   23  C19 UNL     1      23.750   2.542  50.847  1.00  0.00     0.044 A 
BRANCH  22  24
HETATM   24  O1  UNL     1      25.491   4.078  50.345  1.00  0.00    -0.356 OA
HETATM   25  C1  UNL     1      26.412   3.055  50.028  1.00  0.00     0.210 C 
ENDBRANCH  22  24
ENDBRANCH  17  18
ENDBRANCH   1  17
TORSDOF 6
ENDMDL
MODEL 4
REMARK VINA RESULT:      -7.3      3.376      6.461
REMARK  6 active torsions:
REMARK  status: ('A' for Active; 'I' for Inactive)
REMARK    1  A    between atoms: O1_2  and  C2_3 
REMARK    2  A    between atoms: C6_7  and  C7_8 
REMARK    3  A    between atoms: C7_8  and  C8_9 
REMARK    4  A    between atoms: C11_13  and  N2_14 
REMARK    5  A    between atoms: N2_14  and  C12_15 
REMARK    6  A    between atoms: C16_19  and  O2_20 
ROOT
HETATM    1  C8  UNL     1      23.749   0.632  52.744  1.00  0.00     0.132 A 
HETATM    2  N1  UNL     1      22.744   0.357  51.897  1.00  0.00    -0.245 NA
HETATM    3  C9  UNL     1      22.370   1.271  50.957  1.00  0.00     0.122 A 
HETATM    4  C10 UNL     1      22.995   2.497  50.834  1.00  0.00     0.070 A 
HETATM    5  C11 UNL     1      24.024   2.759  51.713  1.00  0.00     0.131 A 
HETATM    6  N3  UNL     1      24.346   1.825  52.615  1.00  0.00    -0.216 NA
ENDROOT
BRANCH   5   7
HETATM    7  N2  UNL     1      24.754   3.979  51.706  1.00  0.00    -0.341 N 
HETATM    8  H11 UNL     1      24.752   4.373  52.656  1.00  0.00     0.167 HD
BRANCH   7   9
HETATM    9  C12 UNL     1      25.411   4.626  50.622  1.00  0.00     0.036 A 
HETATM   10  C13 UNL     1      26.433   3.954  49.960  1.00  0.00     0.029 A 
HETATM   11  C14 UNL     1      27.055   4.614  48.914  1.00  0.00     0.005 A 
HETATM   12  C15 UNL     1      26.692   5.900  48.519  1.00  0.00     0.037 A 
HETATM   13  C16 UNL     1      25.671   6.558  49.189  1.00  0.00     0.070 A 
HETATM   14  C18 UNL     1      25.039   5.899  50.244  1.00  0.00     0.066 A 
BRANCH  13  15
HETATM   15  O2  UNL     1      25.186   7.833  48.929  1.00  0.00    -0.356 OA
HETATM   16  C17 UNL     1      24.275   8.540  49.710  1.00  0.00     0.210 C 
ENDBRANCH  13  15
ENDBRANCH   7   9
ENDBRANCH   5   7
BRANCH   1  17
HETATM   17  C7  UNL     1      24.259  -0.272  53.820  1.00  0.00     0.119 C 
BRANCH  17  18
HETATM   18  C6  UNL     1      25.726  -0.369  53.718  1.00  0.00    -0.048 A 
HETATM   19  C5  UNL     1      26.239  -1.298  52.843  1.00  0.00     0.007 A 
HETATM   20  C4  UNL     1      27.597  -1.459  52.682  1.00  0.00     0.003 A 
HETATM   21  C3  UNL     1      28.474  -0.678  53.406  1.00  0.00     0.037 A 
HETATM   22  C2  UNL     1      28.002   0.275  54.303  1.00  0.00     0.068 A 
HETATM   23  C19 UNL     1      26.632   0.392  54.425  1.00  0.00     0.044 A 
BRANCH  22  24
HETATM   24  O1  UNL     1      28.804   1.100  55.071  1.00  0.00    -0.356 OA
HETATM   25  C1  UNL     1      29.566   2.143  54.499  1.00  0.00     0.210 C 
ENDBRANCH  22  24
ENDBRANCH  17  18
ENDBRANCH   1  17
TORSDOF 6
ENDMDL
MODEL 5
REMARK VINA RESULT:      -7.3      3.127      5.153
REMARK  6 active torsions:
REMARK  status: ('A' for Active; 'I' for Inactive)
REMARK    1  A    between atoms: O1_2  and  C2_3 
REMARK    2  A    between atoms: C6_7  and  C7_8 
REMARK    3  A    between atoms: C7_8  and  C8_9 
REMARK    4  A    between atoms: C11_13  and  N2_14 
REMARK    5  A    between atoms: N2_14  and  C12_15 
REMARK    6  A    between atoms: C16_19  and  O2_20 
ROOT
HETATM    1  C8  UNL     1      25.842   0.239  53.136  1.00  0.00     0.132 A 
HETATM    2  N1  UNL     1      26.659   0.721  54.087  1.00  0.00    -0.245 NA
HETATM    3  C9  UNL     1      27.470   1.784  53.822  1.00  0.00     0.122 A 
HETATM    4  C10 UNL     1      27.488   2.403  52.586  1.00  0.00     0.070 A 
HETATM    5  C11 UNL     1      26.643   1.893  51.624  1.00  0.00     0.131 A 
HETATM    6  N3  UNL     1      25.871   0.848  51.942  1.00  0.00    -0.216 NA
ENDROOT
BRANCH   5   7
HETATM    7  N2  UNL     1      26.560   2.426  50.309  1.00  0.00    -0.341 N 
HETATM    8  H11 UNL     1      26.685   1.662  49.632  1.00  0.00     0.167 HD
BRANCH   7   9
HETATM    9  C12 UNL     1      26.342   3.771  49.897  1.00  0.00     0.036 A 
HETATM   10  C13 UNL     1      27.242   4.356  49.014  1.00  0.00     0.029 A 
HETATM   11  C14 UNL     1      27.003   5.667  48.639  1.00  0.00     0.005 A 
HETATM   12  C15 UNL     1      25.913   6.394  49.110  1.00  0.00     0.037 A 
HETATM   13  C16 UNL     1      25.023   5.798  49.991  1.00  0.00     0.070 A 
HETATM   14  C18 UNL     1      25.257   4.475  50.374  1.00  0.00     0.066 A 
BRANCH  13  15
HETATM   15  O2  UNL     1      23.893   6.372  50.556  1.00  0.00    -0.356 OA
HETATM   16  C17 UNL     1      22.639   5.777  50.671  1.00  0.00     0.210 C 
ENDBRANCH  13  15
ENDBRANCH   7   9
ENDBRANCH   5   7
BRANCH   1  17
HETATM   17  C7  UNL     1      24.907  -0.917  53.288  1.00  0.00     0.119 C 
BRANCH  17  18
HETATM   18  C6  UNL     1      23.535  -0.412  53.476  1.00  0.00    -0.048 A 
HETATM   19  C5  UNL     1      22.825  -0.898  54.548  1.00  0.00     0.007 A 
HETATM   20  C4  UNL     1      21.536  -0.482  54.803  1.00  0.00     0.003 A 
HETATM   21  C3  UNL     1      20.933   0.441  53.974  1.00  0.00     0.037 A 
HETATM   22  C2  UNL     1      21.614   0.960  52.877  1.00  0.00     0.068 A 
HETATM   23  C19 UNL     1      22.901   0.507  52.669  1.00  0.00     0.044 A 
BRANCH  22  24
HETATM   24  O1  UNL     1      21.091   1.886  51.992  1.00  0.00    -0.356 OA
HETATM   25  C1  UNL     1      20.558   3.119  52.429  1.00  0.00     0.210 C 
ENDBRANCH  22  24
ENDBRANCH  17  18
ENDBRANCH   1  17
TORSDOF 6
ENDMDL
MODEL 6
REMARK VINA RESULT:      -7.3      4.172      6.561
REMARK  6 active torsions:
REMARK  status: ('A' for Active; 'I' for Inactive)
REMARK    1  A    between atoms: O1_2  and  C2_3 
REMARK    2  A    between atoms: C6_7  and  C7_8 
REMARK    3  A    between atoms: C7_8  and  C8_9 
REMARK    4  A    between atoms: C11_13  and  N2_14 
REMARK    5  A    between atoms: N2_14  and  C12_15 
REMARK    6  A    between atoms: C16_19  and  O2_20 
ROOT
HETATM    1  C8  UNL     1      23.313   2.420  51.420  1.00  0.00     0.132 A 
HETATM    2  N1  UNL     1      22.647   1.727  50.481  1.00  0.00    -0.245 NA
HETATM    3  C9  UNL     1      22.548   2.212  49.211  1.00  0.00     0.122 A 
HETATM    4  C10 UNL     1      23.118   3.416  48.838  1.00  0.00     0.070 A 
HETATM    5  C11 UNL     1      23.796   4.110  49.816  1.00  0.00     0.131 A 
HETATM    6  N3  UNL     1      23.860   3.585  51.044  1.00  0.00    -0.216 NA
ENDROOT
BRANCH   5   7
HETATM    7  N2  UNL     1      24.428   5.361  49.576  1.00  0.00    -0.341 N 
HETATM    8  H11 UNL     1      23.767   6.116  49.803  1.00  0.00     0.167 HD
BRANCH   7   9
HETATM    9  C12 UNL     1      25.745   5.627  49.106  1.00  0.00     0.036 A 
HETATM   10  C13 UNL     1      26.659   4.582  49.045  1.00  0.00     0.029 A 
HETATM   11  C14 UNL     1      27.932   4.877  48.588  1.00  0.00     0.005 A 
HETATM   12  C15 UNL     1      28.309   6.160  48.198  1.00  0.00     0.037 A 
HETATM   13  C16 UNL     1      27.386   7.193  48.264  1.00  0.00     0.070 A 
HETATM   14  C18 UNL     1      26.100   6.904  48.724  1.00  0.00     0.066 A 
BRANCH  13  15
HETATM   15  O2  UNL     1      27.591   8.522  47.918  1.00  0.00    -0.356 OA
HETATM   16  C17 UNL     1      28.033   9.534  48.767  1.00  0.00     0.210 C 
ENDBRANCH  13  15
ENDBRANCH   7   9
ENDBRANCH   5   7
BRANCH   1  17
HETATM   17  C7  UNL     1      23.497   2.010  52.845  1.00  0.00     0.119 C 
BRANCH  17  18
HETATM   18  C6  UNL     1      24.853   1.463  53.023  1.00  0.00    -0.048 A 
HETATM   19  C5  UNL     1      25.042   0.132  52.731  1.00  0.00     0.007 A 
HETATM   20  C4  UNL     1      26.276  -0.464  52.868  1.00  0.00     0.003 A 
HETATM   21  C3  UNL     1      27.355   0.276  53.304  1.00  0.00     0.037 A 
HETATM   22  C2  UNL     1      27.211   1.625  53.612  1.00  0.00     0.068 A 
HETATM   23  C19 UNL     1      25.953   2.170  53.458  1.00  0.00     0.044 A 
BRANCH  22  24
HETATM   24  O1  UNL     1      28.234   2.445  54.057  1.00  0.00    -0.356 OA
HETATM   25  C1  UNL     1      29.430   1.921  54.596  1.00  0.00     0.210 C 
ENDBRANCH  22  24
ENDBRANCH  17  18
ENDBRANCH   1  17
TORSDOF 6
ENDMDL
MODEL 7
REMARK VINA RESULT:      -7.3      3.827      6.884
REMARK  6 active torsions:
REMARK  status: ('A' for Active; 'I' for Inactive)
REMARK    1  A    between atoms: O1_2  and  C2_3 
REMARK    2  A    between atoms: C6_7  and  C7_8 
REMARK    3  A    between atoms: C7_8  and  C8_9 
REMARK    4  A    between atoms: C11_13  and  N2_14 
REMARK    5  A    between atoms: N2_14  and  C12_15 
REMARK    6  A    between atoms: C16_19  and  O2_20 
ROOT
HETATM    1  C8  UNL     1      23.991   4.786  50.184  1.00  0.00     0.132 A 
HETATM    2  N1  UNL     1      23.697   5.542  51.255  1.00  0.00    -0.245 NA
HETATM    3  C9  UNL     1      23.643   4.981  52.497  1.00  0.00     0.122 A 
HETATM    4  C10 UNL     1      23.883   3.636  52.706  1.00  0.00     0.070 A 
HETATM    5  C11 UNL     1      24.183   2.879  51.594  1.00  0.00     0.131 A 
HETATM    6  N3  UNL     1      24.221   3.484  50.402  1.00  0.00    -0.216 NA
ENDROOT
BRANCH   5   7
HETATM    7  N2  UNL     1      24.448   1.484  51.659  1.00  0.00    -0.341 N 
HETATM    8  H11 UNL     1      24.618   1.133  50.707  1.00  0.00     0.167 HD
BRANCH   7   9
HETATM    9  C12 UNL     1      24.496   0.630  52.797  1.00  0.00     0.036 A 
HETATM   10  C13 UNL     1      23.334  -0.021  53.195  1.00  0.00     0.029 A 
HETATM   11  C14 UNL     1      23.414  -0.839  54.309  1.00  0.00     0.005 A 
HETATM   12  C15 UNL     1      24.597  -1.020  55.022  1.00  0.00     0.037 A 
HETATM   13  C16 UNL     1      25.749  -0.363  54.613  1.00  0.00     0.070 A 
HETATM   14  C18 UNL     1      25.676   0.463  53.490  1.00  0.00     0.066 A 
BRANCH  13  15
HETATM   15  O2  UNL     1      27.003  -0.429  55.203  1.00  0.00    -0.356 OA
HETATM   16  C17 UNL     1      28.185   0.092  54.681  1.00  0.00     0.210 C 
ENDBRANCH  13  15
ENDBRANCH   7   9
ENDBRANCH   5   7
BRANCH   1  17
HETATM   17  C7  UNL     1      24.082   5.267  48.772  1.00  0.00     0.119 C 
BRANCH  17  18
HETATM   18  C6  UNL     1      25.401   5.887  48.552  1.00  0.00    -0.048 A 
HETATM   19  C5  UNL     1      25.423   7.210  48.179  1.00  0.00     0.007 A 
HETATM   20  C4  UNL     1      26.609   7.872  47.953  1.00  0.00     0.003 A 
HETATM   21  C3  UNL     1      27.808   7.208  48.100  1.00  0.00     0.037 A 
HETATM   22  C2  UNL     1      27.835   5.868  48.476  1.00  0.00     0.068 A 
HETATM   23  C19 UNL     1      26.617   5.255  48.689  1.00  0.00     0.044 A 
BRANCH  22  24
HETATM   24  O1  UNL     1      28.988   5.121  48.647  1.00  0.00    -0.356 OA
HETATM   25  C1  UNL     1      30.245   5.572  48.187  1.00  0.00     0.210 C 
ENDBRANCH  22  24
ENDBRANCH  17  18
ENDBRANCH   1  17
TORSDOF 6
ENDMDL
MODEL 8
REMARK VINA RESULT:      -7.2      5.078      6.816
REMARK  6 active torsions:
REMARK  status: ('A' for Active; 'I' for Inactive)
REMARK    1  A    between atoms: O1_2  and  C2_3 
REMARK    2  A    between atoms: C6_7  and  C7_8 
REMARK    3  A    between atoms: C7_8  and  C8_9 
REMARK    4  A    between atoms: C11_13  and  N2_14 
REMARK    5  A    between atoms: N2_14  and  C12_15 
REMARK    6  A    between atoms: C16_19  and  O2_20 
ROOT
HETATM    1  C8  UNL     1      26.366   4.286  49.488  1.00  0.00     0.132 A 
HETATM    2  N1  UNL     1      25.491   5.193  49.951  1.00  0.00    -0.245 NA
HETATM    3  C9  UNL     1      25.685   6.520  49.710  1.00  0.00     0.122 A 
HETATM    4  C10 UNL     1      26.771   6.985  48.992  1.00  0.00     0.070 A 
HETATM    5  C11 UNL     1      27.657   6.038  48.526  1.00  0.00     0.131 A 
HETATM    6  N3  UNL     1      27.415   4.750  48.794  1.00  0.00    -0.216 NA
ENDROOT
BRANCH   5   7
HETATM    7  N2  UNL     1      28.819   6.370  47.777  1.00  0.00    -0.341 N 
HETATM    8  H11 UNL     1      28.529   6.755  46.868  1.00  0.00     0.167 HD
BRANCH   7   9
HETATM    9  C12 UNL     1      30.189   6.234  48.136  1.00  0.00     0.036 A 
HETATM   10  C13 UNL     1      30.813   7.278  48.809  1.00  0.00     0.029 A 
HETATM   11  C14 UNL     1      32.148   7.115  49.139  1.00  0.00     0.005 A 
HETATM   12  C15 UNL     1      32.862   5.963  48.821  1.00  0.00     0.037 A 
HETATM   13  C16 UNL     1      32.227   4.929  48.149  1.00  0.00     0.070 A 
HETATM   14  C18 UNL     1      30.880   5.085  47.814  1.00  0.00     0.066 A 
BRANCH  13  15
HETATM   15  O2  UNL     1      32.783   3.719  47.757  1.00  0.00    -0.356 OA
HETATM   16  C17 UNL     1      32.521   3.040  46.569  1.00  0.00     0.210 C 
ENDBRANCH  13  15
ENDBRANCH   7   9
ENDBRANCH   5   7
BRANCH   1  17
HETATM   17  C7  UNL     1      26.278   2.806  49.679  1.00  0.00     0.119 C 
BRANCH  17  18
HETATM   18  C6  UNL     1      26.222   2.504  51.120  1.00  0.00    -0.048 A 
HETATM   19  C5  UNL     1      24.988   2.225  51.660  1.00  0.00     0.007 A 
HETATM   20  C4  UNL     1      24.840   1.931  52.998  1.00  0.00     0.003 A 
HETATM   21  C3  UNL     1      25.943   1.911  53.825  1.00  0.00     0.037 A 
HETATM   22  C2  UNL     1      27.212   2.186  53.323  1.00  0.00     0.068 A 
HETATM   23  C19 UNL     1      27.301   2.475  51.977  1.00  0.00     0.044 A 
BRANCH  22  24
HETATM   24  O1  UNL     1      28.373   2.190  54.076  1.00  0.00    -0.356 OA
HETATM   25  C1  UNL     1      28.993   0.993  54.500  1.00  0.00     0.210 C 
ENDBRANCH  22  24
ENDBRANCH  17  18
ENDBRANCH   1  17
TORSDOF 6
ENDMDL
MODEL 9
REMARK VINA RESULT:      -7.2      2.559      4.671
REMARK  6 active torsions:
REMARK  status: ('A' for Active; 'I' for Inactive)
REMARK    1  A    between atoms: O1_2  and  C2_3 
REMARK    2  A    between atoms: C6_7  and  C7_8 
REMARK    3  A    between atoms: C7_8  and  C8_9 
REMARK    4  A    between atoms: C11_13  and  N2_14 
REMARK    5  A    between atoms: N2_14  and  C12_15 
REMARK    6  A    between atoms: C16_19  and  O2_20 
ROOT
HETATM    1  C8  UNL     1      20.616   0.878  53.107  1.00  0.00     0.132 A 
HETATM    2  N1  UNL     1      19.687  -0.077  53.276  1.00  0.00    -0.245 NA
HETATM    3  C9  UNL     1      20.025  -1.274  53.833  1.00  0.00     0.122 A 
HETATM    4  C10 UNL     1      21.315  -1.555  54.242  1.00  0.00     0.070 A 
HETATM    5  C11 UNL     1      22.254  -0.562  54.060  1.00  0.00     0.131 A 
HETATM    6  N3  UNL     1      21.863   0.591  53.508  1.00  0.00    -0.216 NA
ENDROOT
BRANCH   5   7
HETATM    7  N2  UNL     1      23.618  -0.713  54.430  1.00  0.00    -0.341 N 
HETATM    8  H11 UNL     1      23.664  -1.172  55.350  1.00  0.00     0.167 HD
BRANCH   7   9
HETATM    9  C12 UNL     1      24.790  -0.330  53.719  1.00  0.00     0.036 A 
HETATM   10  C13 UNL     1      24.679   0.613  52.704  1.00  0.00     0.029 A 
HETATM   11  C14 UNL     1      25.837   0.959  52.029  1.00  0.00     0.005 A 
HETATM   12  C15 UNL     1      27.076   0.401  52.333  1.00  0.00     0.037 A 
HETATM   13  C16 UNL     1      27.172  -0.539  53.349  1.00  0.00     0.070 A 
HETATM   14  C18 UNL     1      26.008  -0.892  54.035  1.00  0.00     0.066 A 
BRANCH  13  15
HETATM   15  O2  UNL     1      28.318  -1.190  53.781  1.00  0.00    -0.356 OA
HETATM   16  C17 UNL     1      29.601  -0.649  53.832  1.00  0.00     0.210 C 
ENDBRANCH  13  15
ENDBRANCH   7   9
ENDBRANCH   5   7
BRANCH   1  17
HETATM   17  C7  UNL     1      20.387   2.229  52.511  1.00  0.00     0.119 C 
BRANCH  17  18
HETATM   18  C6  UNL     1      21.494   2.551  51.593  1.00  0.00    -0.048 A 
HETATM   19  C5  UNL     1      21.568   1.838  50.419  1.00  0.00     0.007 A 
HETATM   20  C4  UNL     1      22.568   2.070  49.501  1.00  0.00     0.003 A 
HETATM   21  C3  UNL     1      23.522   3.035  49.750  1.00  0.00     0.037 A 
HETATM   22  C2  UNL     1      23.487   3.780  50.924  1.00  0.00     0.068 A 
HETATM   23  C19 UNL     1      22.463   3.505  51.808  1.00  0.00     0.044 A 
BRANCH  22  24
HETATM   24  O1  UNL     1      24.399   4.766  51.259  1.00  0.00    -0.356 OA
HETATM   25  C1  UNL     1      24.587   5.914  50.457  1.00  0.00     0.210 C 
ENDBRANCH  22  24
ENDBRANCH  17  18
ENDBRANCH   1  17
TORSDOF 6
ENDMDL
