MODEL 1
REMARK VINA RESULT:      -8.5      0.000      0.000
REMARK  5 active torsions:
REMARK  status: ('A' for Active; 'I' for Inactive)
REMARK    1  A    between atoms: C2_2  and  C3_3 
REMARK    2  A    between atoms: C4_4  and  N1_5 
REMARK    3  A    between atoms: C5_6  and  C6_7 
REMARK    4  A    between atoms: C9_12  and  N4_13 
REMARK       I    between atoms: N4_13  and  C10_14 
REMARK    5  A    between atoms: C10_14  and  C11_16 
ROOT
HETATM    1  C6  UNL     1      20.357   3.694  51.320  1.00  0.00     0.065 C 
HETATM    2  N2  UNL     1      21.181   4.097  52.169  1.00  0.00    -0.277 NA
HETATM    3  C7  UNL     1      22.119   5.126  52.170  1.00  0.00     0.234 C 
HETATM    4  N3  UNL     1      23.371   4.624  52.720  1.00  0.00    -0.297 NA
HETATM    5  C8  UNL     1      24.161   4.036  51.919  1.00  0.00     0.238 C 
HETATM    6  C9  UNL     1      24.983   3.383  50.914  1.00  0.00     0.046 C 
HETATM    7  C17 UNL     1      24.612   3.258  49.643  1.00  0.00     0.032 C 
HETATM    8  C18 UNL     1      23.412   3.703  49.012  1.00  0.00     0.019 C 
HETATM    9  C19 UNL     1      22.255   4.229  48.806  1.00  0.00     0.083 C 
HETATM   10  N5  UNL     1      21.127   4.916  49.318  1.00  0.00    -0.393 N 
HETATM   11  C20 UNL     1      20.084   4.217  49.998  1.00  0.00     0.179 C 
HETATM   12  H20 UNL     1      20.953   5.970  49.265  1.00  0.00     0.159 HD
ENDROOT
BRANCH   6  13
HETATM   13  N4  UNL     1      26.190   2.899  51.420  1.00  0.00    -0.322 N 
HETATM   14  C10 UNL     1      26.118   1.619  51.980  1.00  0.00     0.256 C 
HETATM   15  O1  UNL     1      24.975   1.096  51.942  1.00  0.00    -0.267 OA
HETATM   16  H12 UNL     1      27.126   3.394  51.421  1.00  0.00     0.169 HD
BRANCH  14  17
HETATM   17  C11 UNL     1      27.223   0.888  52.576  1.00  0.00     0.032 A 
HETATM   18  C12 UNL     1      27.185  -0.504  52.530  1.00  0.00     0.020 A 
HETATM   19  C13 UNL     1      28.212  -1.263  53.090  1.00  0.00     0.043 A 
HETATM   20  C14 UNL     1      29.282  -0.594  53.697  1.00  0.00     0.116 A 
HETATM   21  F1  UNL     1      30.308  -1.284  54.257  1.00  0.00    -0.206 F 
HETATM   22  C15 UNL     1      29.297   0.784  53.728  1.00  0.00     0.043 A 
HETATM   23  C16 UNL     1      28.283   1.535  53.177  1.00  0.00     0.020 A 
ENDBRANCH  14  17
ENDBRANCH   6  13
BRANCH   1  24
HETATM   24  C5  UNL     1      19.574   2.558  51.789  1.00  0.00     0.144 C 
HETATM   25  N1  UNL     1      19.625   1.299  52.061  1.00  0.00    -0.271 NA
BRANCH  25  26
HETATM   26  C4  UNL     1      20.880   0.624  51.876  1.00  0.00     0.112 C 
HETATM   27  C3  UNL     1      21.662   0.026  52.747  1.00  0.00    -0.008 C 
BRANCH  27  28
HETATM   28  C2  UNL     1      21.643  -0.223  54.201  1.00  0.00     0.024 C 
HETATM   29  C1  UNL     1      21.675  -1.696  54.501  1.00  0.00     0.009 C 
ENDBRANCH  27  28
ENDBRANCH  25  26
ENDBRANCH   1  24
TORSDOF 5
ENDMDL
MODEL 2
REMARK VINA RESULT:      -8.3      2.682      5.280
REMARK  5 active torsions:
REMARK  status: ('A' for Active; 'I' for Inactive)
REMARK    1  A    between atoms: C2_2  and  C3_3 
REMARK    2  A    between atoms: C4_4  and  N1_5 
REMARK    3  A    between atoms: C5_6  and  C6_7 
REMARK    4  A    between atoms: C9_12  and  N4_13 
REMARK       I    between atoms: N4_13  and  C10_14 
REMARK    5  A    between atoms: C10_14  and  C11_16 
ROOT
HETATM    1  C6  UNL     1      23.967   6.516  50.193  1.00  0.00     0.065 C 
HETATM    2  N2  UNL     1      24.280   5.516  49.513  1.00  0.00    -0.277 NA
HETATM    3  C7  UNL     1      23.550   4.445  49.005  1.00  0.00     0.234 C 
HETATM    4  N3  UNL     1      24.287   3.212  49.251  1.00  0.00    -0.297 NA
HETATM    5  C8  UNL     1      24.127   2.659  50.382  1.00  0.00     0.238 C 
HETATM    6  C9  UNL     1      23.869   2.116  51.706  1.00  0.00     0.046 C 
HETATM    7  C17 UNL     1      23.057   2.700  52.583  1.00  0.00     0.032 C 
HETATM    8  C18 UNL     1      22.303   3.904  52.444  1.00  0.00     0.019 C 
HETATM    9  C19 UNL     1      21.794   4.985  51.965  1.00  0.00     0.083 C 
HETATM   10  N5  UNL     1      21.680   5.899  50.889  1.00  0.00    -0.393 N 
HETATM   11  C20 UNL     1      22.662   6.915  50.678  1.00  0.00     0.179 C 
HETATM   12  H20 UNL     1      20.901   5.917  50.157  1.00  0.00     0.159 HD
ENDROOT
BRANCH   6  13
HETATM   13  N4  UNL     1      24.562   0.932  51.960  1.00  0.00    -0.322 N 
HETATM   14  C10 UNL     1      25.900   1.105  52.329  1.00  0.00     0.256 C 
HETATM   15  O1  UNL     1      26.278   2.303  52.378  1.00  0.00    -0.267 OA
HETATM   16  H12 UNL     1      24.182  -0.055  51.901  1.00  0.00     0.169 HD
BRANCH  14  17
HETATM   17  C11 UNL     1      26.839   0.043  52.644  1.00  0.00     0.032 A 
HETATM   18  C12 UNL     1      28.049   0.395  53.238  1.00  0.00     0.020 A 
HETATM   19  C13 UNL     1      28.996  -0.577  53.559  1.00  0.00     0.043 A 
HETATM   20  C14 UNL     1      28.701  -1.915  53.273  1.00  0.00     0.116 A 
HETATM   21  F1  UNL     1      29.586  -2.903  53.564  1.00  0.00    -0.206 F 
HETATM   22  C15 UNL     1      27.496  -2.240  52.686  1.00  0.00     0.043 A 
HETATM   23  C16 UNL     1      26.561  -1.281  52.367  1.00  0.00     0.020 A 
ENDBRANCH  14  17
ENDBRANCH   6  13
BRANCH   1  24
HETATM   24  C5  UNL     1      25.105   7.378  50.487  1.00  0.00     0.144 C 
HETATM   25  N1  UNL     1      26.109   7.992  49.963  1.00  0.00    -0.271 NA
BRANCH  25  26
HETATM   26  C4  UNL     1      26.306   7.866  48.546  1.00  0.00     0.112 C 
HETATM   27  C3  UNL     1      27.159   7.131  47.866  1.00  0.00    -0.008 C 
BRANCH  27  28
HETATM   28  C2  UNL     1      28.231   6.171  48.188  1.00  0.00     0.024 C 
HETATM   29  C1  UNL     1      27.664   4.859  48.655  1.00  0.00     0.009 C 
ENDBRANCH  27  28
ENDBRANCH  25  26
ENDBRANCH   1  24
TORSDOF 5
ENDMDL
MODEL 3
REMARK VINA RESULT:      -8.1      3.471      5.464
REMARK  5 active torsions:
REMARK  status: ('A' for Active; 'I' for Inactive)
REMARK    1  A    between atoms: C2_2  and  C3_3 
REMARK    2  A    between atoms: C4_4  and  N1_5 
REMARK    3  A    between atoms: C5_6  and  C6_7 
REMARK    4  A    between atoms: C9_12  and  N4_13 
REMARK       I    between atoms: N4_13  and  C10_14 
REMARK    5  A    between atoms: C10_14  and  C11_16 
ROOT
HETATM    1  C6  UNL     1      21.924   0.808  52.714  1.00  0.00     0.065 C 
HETATM    2  N2  UNL     1      22.003   2.048  52.839  1.00  0.00    -0.277 NA
HETATM    3  C7  UNL     1      21.284   3.108  52.291  1.00  0.00     0.234 C 
HETATM    4  N3  UNL     1      22.218   4.137  51.854  1.00  0.00    -0.297 NA
HETATM    5  C8  UNL     1      22.723   4.008  50.697  1.00  0.00     0.238 C 
HETATM    6  C9  UNL     1      23.236   3.757  49.361  1.00  0.00     0.046 C 
HETATM    7  C17 UNL     1      22.889   2.695  48.638  1.00  0.00     0.032 C 
HETATM    8  C18 UNL     1      21.998   1.633  48.976  1.00  0.00     0.019 C 
HETATM    9  C19 UNL     1      21.165   0.884  49.611  1.00  0.00     0.083 C 
HETATM   10  N5  UNL     1      20.401   0.639  50.778  1.00  0.00    -0.393 N 
HETATM   11  C20 UNL     1      20.988   0.030  51.929  1.00  0.00     0.179 C 
HETATM   12  H20 UNL     1      19.369   0.880  50.918  1.00  0.00     0.159 HD
ENDROOT
BRANCH   6  13
HETATM   13  N4  UNL     1      24.130   4.735  48.922  1.00  0.00    -0.322 N 
HETATM   14  C10 UNL     1      25.470   4.488  49.239  1.00  0.00     0.256 C 
HETATM   15  O1  UNL     1      25.668   3.419  49.872  1.00  0.00    -0.267 OA
HETATM   16  H12 UNL     1      23.896   5.619  48.389  1.00  0.00     0.169 HD
BRANCH  14  17
HETATM   17  C11 UNL     1      26.594   5.343  48.903  1.00  0.00     0.032 A 
HETATM   18  C12 UNL     1      26.388   6.720  48.894  1.00  0.00     0.020 A 
HETATM   19  C13 UNL     1      27.426   7.595  48.574  1.00  0.00     0.043 A 
HETATM   20  C14 UNL     1      28.680   7.056  48.262  1.00  0.00     0.116 A 
HETATM   21  F1  UNL     1      29.725   7.860  47.942  1.00  0.00    -0.206 F 
HETATM   22  C15 UNL     1      28.860   5.689  48.278  1.00  0.00     0.043 A 
HETATM   23  C16 UNL     1      27.836   4.824  48.594  1.00  0.00     0.020 A 
ENDBRANCH  14  17
ENDBRANCH   6  13
BRANCH   1  24
HETATM   24  C5  UNL     1      22.918   0.096  53.508  1.00  0.00     0.144 C 
HETATM   25  N1  UNL     1      24.176  -0.156  53.620  1.00  0.00    -0.271 NA
BRANCH  25  26
HETATM   26  C4  UNL     1      25.064   0.427  52.651  1.00  0.00     0.112 C 
HETATM   27  C3  UNL     1      26.282   0.083  52.297  1.00  0.00    -0.008 C 
BRANCH  27  28
HETATM   28  C2  UNL     1      27.247  -0.965  52.679  1.00  0.00     0.024 C 
HETATM   29  C1  UNL     1      28.408  -0.385  53.439  1.00  0.00     0.009 C 
ENDBRANCH  27  28
ENDBRANCH  25  26
ENDBRANCH   1  24
TORSDOF 5
ENDMDL
MODEL 4
REMARK VINA RESULT:      -8.0      3.487      5.030
REMARK  5 active torsions:
REMARK  status: ('A' for Active; 'I' for Inactive)
REMARK    1  A    between atoms: C2_2  and  C3_3 
REMARK    2  A    between atoms: C4_4  and  N1_5 
REMARK    3  A    between atoms: C5_6  and  C6_7 
REMARK    4  A    between atoms: C9_12  and  N4_13 
REMARK       I    between atoms: N4_13  and  C10_14 
REMARK    5  A    between atoms: C10_14  and  C11_16 
ROOT
HETATM    1  C6  UNL     1      20.123   1.366  52.805  1.00  0.00     0.065 C 
HETATM    2  N2  UNL     1      20.470   2.562  52.900  1.00  0.00    -0.277 NA
HETATM    3  C7  UNL     1      20.389   3.647  52.030  1.00  0.00     0.234 C 
HETATM    4  N3  UNL     1      21.659   4.361  52.047  1.00  0.00    -0.297 NA
HETATM    5  C8  UNL     1      22.572   3.935  51.275  1.00  0.00     0.238 C 
HETATM    6  C9  UNL     1      23.541   3.361  50.356  1.00  0.00     0.046 C 
HETATM    7  C17 UNL     1      23.282   2.296  49.602  1.00  0.00     0.032 C 
HETATM    8  C18 UNL     1      22.083   1.526  49.521  1.00  0.00     0.019 C 
HETATM    9  C19 UNL     1      20.887   1.091  49.715  1.00  0.00     0.083 C 
HETATM   10  N5  UNL     1      19.647   1.216  50.388  1.00  0.00    -0.393 N 
HETATM   11  C20 UNL     1      19.467   0.692  51.705  1.00  0.00     0.179 C 
HETATM   12  H20 UNL     1      18.770   1.696  50.010  1.00  0.00     0.159 HD
ENDROOT
BRANCH   6  13
HETATM   13  N4  UNL     1      24.763   4.034  50.353  1.00  0.00    -0.322 N 
HETATM   14  C10 UNL     1      24.959   4.887  49.262  1.00  0.00     0.256 C 
HETATM   15  O1  UNL     1      24.001   4.920  48.447  1.00  0.00    -0.267 OA
HETATM   16  H12 UNL     1      25.534   3.960  51.076  1.00  0.00     0.169 HD
BRANCH  14  17
HETATM   17  C11 UNL     1      26.139   5.698  49.017  1.00  0.00     0.032 A 
HETATM   18  C12 UNL     1      27.298   5.052  48.594  1.00  0.00     0.020 A 
HETATM   19  C13 UNL     1      28.466   5.773  48.348  1.00  0.00     0.043 A 
HETATM   20  C14 UNL     1      28.445   7.161  48.536  1.00  0.00     0.116 A 
HETATM   21  F1  UNL     1      29.553   7.912  48.312  1.00  0.00    -0.206 F 
HETATM   22  C15 UNL     1      27.285   7.777  48.954  1.00  0.00     0.043 A 
HETATM   23  C16 UNL     1      26.131   7.066  49.198  1.00  0.00     0.020 A 
ENDBRANCH  14  17
ENDBRANCH   6  13
BRANCH   1  24
HETATM   24  C5  UNL     1      20.422   0.595  54.006  1.00  0.00     0.144 C 
HETATM   25  N1  UNL     1      21.182  -0.326  54.492  1.00  0.00    -0.271 NA
BRANCH  25  26
HETATM   26  C4  UNL     1      22.163  -0.911  53.620  1.00  0.00     0.112 C 
HETATM   27  C3  UNL     1      23.247  -0.392  53.088  1.00  0.00    -0.008 C 
BRANCH  27  28
HETATM   28  C2  UNL     1      23.926   0.917  53.116  1.00  0.00     0.024 C 
HETATM   29  C1  UNL     1      25.298   0.832  52.507  1.00  0.00     0.009 C 
ENDBRANCH  27  28
ENDBRANCH  25  26
ENDBRANCH   1  24
TORSDOF 5
ENDMDL
MODEL 5
REMARK VINA RESULT:      -7.9      2.259      4.531
REMARK  5 active torsions:
REMARK  status: ('A' for Active; 'I' for Inactive)
REMARK    1  A    between atoms: C2_2  and  C3_3 
REMARK    2  A    between atoms: C4_4  and  N1_5 
REMARK    3  A    between atoms: C5_6  and  C6_7 
REMARK    4  A    between atoms: C9_12  and  N4_13 
REMARK       I    between atoms: N4_13  and  C10_14 
REMARK    5  A    between atoms: C10_14  and  C11_16 
ROOT
HETATM    1  C6  UNL     1      21.848   5.768  48.859  1.00  0.00     0.065 C 
HETATM    2  N2  UNL     1      22.570   4.814  48.500  1.00  0.00    -0.277 NA
HETATM    3  C7  UNL     1      22.530   3.444  48.750  1.00  0.00     0.234 C 
HETATM    4  N3  UNL     1      23.874   2.982  49.070  1.00  0.00    -0.297 NA
HETATM    5  C8  UNL     1      24.252   3.093  50.276  1.00  0.00     0.238 C 
HETATM    6  C9  UNL     1      24.577   3.269  51.682  1.00  0.00     0.046 C 
HETATM    7  C17 UNL     1      23.732   3.804  52.560  1.00  0.00     0.032 C 
HETATM    8  C18 UNL     1      22.409   4.292  52.347  1.00  0.00     0.019 C 
HETATM    9  C19 UNL     1      21.296   4.620  51.789  1.00  0.00     0.083 C 
HETATM   10  N5  UNL     1      20.499   4.685  50.620  1.00  0.00    -0.393 N 
HETATM   11  C20 UNL     1      20.655   5.749  49.679  1.00  0.00     0.179 C 
HETATM   12  H20 UNL     1      19.748   3.982  50.328  1.00  0.00     0.159 HD
ENDROOT
BRANCH   6  13
HETATM   13  N4  UNL     1      25.860   2.828  52.010  1.00  0.00    -0.322 N 
HETATM   14  C10 UNL     1      25.930   1.497  52.435  1.00  0.00     0.256 C 
HETATM   15  O1  UNL     1      24.825   0.897  52.456  1.00  0.00    -0.267 OA
HETATM   16  H12 UNL     1      26.757   3.390  51.970  1.00  0.00     0.169 HD
BRANCH  14  17
HETATM   17  C11 UNL     1      27.137   0.796  52.836  1.00  0.00     0.032 A 
HETATM   18  C12 UNL     1      27.155  -0.592  52.716  1.00  0.00     0.020 A 
HETATM   19  C13 UNL     1      28.281  -1.325  53.090  1.00  0.00     0.043 A 
HETATM   20  C14 UNL     1      29.392  -0.633  53.588  1.00  0.00     0.116 A 
HETATM   21  F1  UNL     1      30.515  -1.295  53.967  1.00  0.00    -0.206 F 
HETATM   22  C15 UNL     1      29.350   0.741  53.696  1.00  0.00     0.043 A 
HETATM   23  C16 UNL     1      28.239   1.465  53.328  1.00  0.00     0.020 A 
ENDBRANCH  14  17
ENDBRANCH   6  13
BRANCH   1  24
HETATM   24  C5  UNL     1      22.301   7.048  48.329  1.00  0.00     0.144 C 
HETATM   25  N1  UNL     1      22.881   8.157  48.638  1.00  0.00    -0.271 NA
BRANCH  25  26
HETATM   26  C4  UNL     1      23.297   8.338  50.001  1.00  0.00     0.112 C 
HETATM   27  C3  UNL     1      24.266   7.763  50.680  1.00  0.00    -0.008 C 
BRANCH  27  28
HETATM   28  C2  UNL     1      25.302   6.749  50.407  1.00  0.00     0.024 C 
HETATM   29  C1  UNL     1      26.277   7.233  49.370  1.00  0.00     0.009 C 
ENDBRANCH  27  28
ENDBRANCH  25  26
ENDBRANCH   1  24
TORSDOF 5
ENDMDL
MODEL 6
REMARK VINA RESULT:      -7.6      8.310     11.335
REMARK  5 active torsions:
REMARK  status: ('A' for Active; 'I' for Inactive)
REMARK    1  A    between atoms: C2_2  and  C3_3 
REMARK    2  A    between atoms: C4_4  and  N1_5 
REMARK    3  A    between atoms: C5_6  and  C6_7 
REMARK    4  A    between atoms: C9_12  and  N4_13 
REMARK       I    between atoms: N4_13  and  C10_14 
REMARK    5  A    between atoms: C10_14  and  C11_16 
ROOT
HETATM    1  C6  UNL     1      33.199  10.107  46.460  1.00  0.00     0.065 C 
HETATM    2  N2  UNL     1      32.410   9.314  45.904  1.00  0.00    -0.277 NA
HETATM    3  C7  UNL     1      31.067   9.403  45.546  1.00  0.00     0.234 C 
HETATM    4  N3  UNL     1      30.392   8.171  45.931  1.00  0.00    -0.297 NA
HETATM    5  C8  UNL     1      29.968   8.091  47.124  1.00  0.00     0.238 C 
HETATM    6  C9  UNL     1      29.528   8.112  48.509  1.00  0.00     0.046 C 
HETATM    7  C17 UNL     1      29.736   9.146  49.321  1.00  0.00     0.032 C 
HETATM    8  C18 UNL     1      30.390  10.384  49.046  1.00  0.00     0.019 C 
HETATM    9  C19 UNL     1      31.018  11.334  48.446  1.00  0.00     0.083 C 
HETATM   10  N5  UNL     1      31.626  11.830  47.266  1.00  0.00    -0.393 N 
HETATM   11  C20 UNL     1      32.960  11.461  46.914  1.00  0.00     0.179 C 
HETATM   12  H20 UNL     1      31.174  12.484  46.551  1.00  0.00     0.159 HD
ENDROOT
BRANCH   6  13
HETATM   13  N4  UNL     1      28.874   6.942  48.897  1.00  0.00    -0.322 N 
HETATM   14  C10 UNL     1      27.517   6.892  48.564  1.00  0.00     0.256 C 
HETATM   15  O1  UNL     1      27.089   7.910  47.962  1.00  0.00    -0.267 OA
HETATM   16  H12 UNL     1      29.297   6.114  49.405  1.00  0.00     0.169 HD
BRANCH  14  17
HETATM   17  C11 UNL     1      26.610   5.795  48.853  1.00  0.00     0.032 A 
HETATM   18  C12 UNL     1      27.163   4.549  49.141  1.00  0.00     0.020 A 
HETATM   19  C13 UNL     1      26.347   3.454  49.421  1.00  0.00     0.043 A 
HETATM   20  C14 UNL     1      24.959   3.636  49.406  1.00  0.00     0.116 A 
HETATM   21  F1  UNL     1      24.117   2.604  49.671  1.00  0.00    -0.206 F 
HETATM   22  C15 UNL     1      24.435   4.878  49.119  1.00  0.00     0.043 A 
HETATM   23  C16 UNL     1      25.240   5.960  48.842  1.00  0.00     0.020 A 
ENDBRANCH  14  17
ENDBRANCH   6  13
BRANCH   1  24
HETATM   24  C5  UNL     1      34.536   9.550  46.625  1.00  0.00     0.144 C 
HETATM   25  N1  UNL     1      35.256   8.766  47.351  1.00  0.00    -0.271 NA
BRANCH  25  26
HETATM   26  C4  UNL     1      34.623   8.122  48.469  1.00  0.00     0.112 C 
HETATM   27  C3  UNL     1      33.800   7.097  48.508  1.00  0.00    -0.008 C 
BRANCH  27  28
HETATM   28  C2  UNL     1      33.179   6.191  47.524  1.00  0.00     0.024 C 
HETATM   29  C1  UNL     1      32.194   5.265  48.182  1.00  0.00     0.009 C 
ENDBRANCH  27  28
ENDBRANCH  25  26
ENDBRANCH   1  24
TORSDOF 5
ENDMDL
MODEL 7
REMARK VINA RESULT:      -7.6      1.844      4.100
REMARK  5 active torsions:
REMARK  status: ('A' for Active; 'I' for Inactive)
REMARK    1  A    between atoms: C2_2  and  C3_3 
REMARK    2  A    between atoms: C4_4  and  N1_5 
REMARK    3  A    between atoms: C5_6  and  C6_7 
REMARK    4  A    between atoms: C9_12  and  N4_13 
REMARK       I    between atoms: N4_13  and  C10_14 
REMARK    5  A    between atoms: C10_14  and  C11_16 
ROOT
HETATM    1  C6  UNL     1      20.756   4.763  49.901  1.00  0.00     0.065 C 
HETATM    2  N2  UNL     1      21.400   3.861  49.323  1.00  0.00    -0.277 NA
HETATM    3  C7  UNL     1      21.133   2.518  49.066  1.00  0.00     0.234 C 
HETATM    4  N3  UNL     1      22.323   1.734  49.370  1.00  0.00    -0.297 NA
HETATM    5  C8  UNL     1      22.484   1.371  50.575  1.00  0.00     0.238 C 
HETATM    6  C9  UNL     1      22.565   1.013  51.981  1.00  0.00     0.046 C 
HETATM    7  C17 UNL     1      21.651   1.379  52.877  1.00  0.00     0.032 C 
HETATM    8  C18 UNL     1      20.465   2.149  52.683  1.00  0.00     0.019 C 
HETATM    9  C19 UNL     1      19.527   2.844  52.141  1.00  0.00     0.083 C 
HETATM   10  N5  UNL     1      18.975   3.436  50.979  1.00  0.00    -0.393 N 
HETATM   11  C20 UNL     1      19.441   4.700  50.503  1.00  0.00     0.179 C 
HETATM   12  H20 UNL     1      18.205   3.021  50.364  1.00  0.00     0.159 HD
ENDROOT
BRANCH   6  13
HETATM   13  N4  UNL     1      23.695   0.256  52.293  1.00  0.00    -0.322 N 
HETATM   14  C10 UNL     1      24.798   1.002  52.722  1.00  0.00     0.256 C 
HETATM   15  O1  UNL     1      24.603   2.244  52.764  1.00  0.00    -0.267 OA
HETATM   16  H12 UNL     1      23.794  -0.797  52.236  1.00  0.00     0.169 HD
BRANCH  14  17
HETATM   17  C11 UNL     1      26.092   0.465  53.104  1.00  0.00     0.032 A 
HETATM   18  C12 UNL     1      26.775   1.085  54.147  1.00  0.00     0.020 A 
HETATM   19  C13 UNL     1      28.024   0.621  54.557  1.00  0.00     0.043 A 
HETATM   20  C14 UNL     1      28.575  -0.484  53.896  1.00  0.00     0.116 A 
HETATM   21  F1  UNL     1      29.788  -0.978  54.254  1.00  0.00    -0.206 F 
HETATM   22  C15 UNL     1      27.879  -1.082  52.867  1.00  0.00     0.043 A 
HETATM   23  C16 UNL     1      26.646  -0.624  52.461  1.00  0.00     0.020 A 
ENDBRANCH  14  17
ENDBRANCH   6  13
BRANCH   1  24
HETATM   24  C5  UNL     1      21.464   6.037  49.920  1.00  0.00     0.144 C 
HETATM   25  N1  UNL     1      22.520   6.636  50.353  1.00  0.00    -0.271 NA
BRANCH  25  26
HETATM   26  C4  UNL     1      23.449   5.870  51.137  1.00  0.00     0.112 C 
HETATM   27  C3  UNL     1      24.450   5.104  50.763  1.00  0.00    -0.008 C 
BRANCH  27  28
HETATM   28  C2  UNL     1      25.054   4.689  49.483  1.00  0.00     0.024 C 
HETATM   29  C1  UNL     1      25.735   3.354  49.610  1.00  0.00     0.009 C 
ENDBRANCH  27  28
ENDBRANCH  25  26
ENDBRANCH   1  24
TORSDOF 5
ENDMDL
MODEL 8
REMARK VINA RESULT:      -7.5      4.134      7.950
REMARK  5 active torsions:
REMARK  status: ('A' for Active; 'I' for Inactive)
REMARK    1  A    between atoms: C2_2  and  C3_3 
REMARK    2  A    between atoms: C4_4  and  N1_5 
REMARK    3  A    between atoms: C5_6  and  C6_7 
REMARK    4  A    between atoms: C9_12  and  N4_13 
REMARK       I    between atoms: N4_13  and  C10_14 
REMARK    5  A    between atoms: C10_14  and  C11_16 
ROOT
HETATM    1  C6  UNL     1      24.231   0.075  53.339  1.00  0.00     0.065 C 
HETATM    2  N2  UNL     1      24.481   1.222  52.913  1.00  0.00    -0.277 NA
HETATM    3  C7  UNL     1      23.719   2.383  52.804  1.00  0.00     0.234 C 
HETATM    4  N3  UNL     1      23.948   2.977  51.493  1.00  0.00    -0.297 NA
HETATM    5  C8  UNL     1      23.247   2.541  50.530  1.00  0.00     0.238 C 
HETATM    6  C9  UNL     1      22.391   1.967  49.506  1.00  0.00     0.046 C 
HETATM    7  C17 UNL     1      21.511   1.000  49.754  1.00  0.00     0.032 C 
HETATM    8  C18 UNL     1      21.219   0.350  50.991  1.00  0.00     0.019 C 
HETATM    9  C19 UNL     1      21.234   0.009  52.232  1.00  0.00     0.083 C 
HETATM   10  N5  UNL     1      21.772   0.183  53.531  1.00  0.00    -0.393 N 
HETATM   11  C20 UNL     1      23.002  -0.437  53.909  1.00  0.00     0.179 C 
HETATM   12  H20 UNL     1      21.346   0.771  54.316  1.00  0.00     0.159 HD
ENDROOT
BRANCH   6  13
HETATM   13  N4  UNL     1      22.592   2.525  48.243  1.00  0.00    -0.322 N 
HETATM   14  C10 UNL     1      21.747   3.598  47.936  1.00  0.00     0.256 C 
HETATM   15  O1  UNL     1      20.934   3.899  48.847  1.00  0.00    -0.267 OA
HETATM   16  H12 UNL     1      23.301   2.222  47.517  1.00  0.00     0.169 HD
BRANCH  14  17
HETATM   17  C11 UNL     1      21.746   4.351  46.695  1.00  0.00     0.032 A 
HETATM   18  C12 UNL     1      22.334   5.614  46.697  1.00  0.00     0.020 A 
HETATM   19  C13 UNL     1      22.360   6.390  45.539  1.00  0.00     0.043 A 
HETATM   20  C14 UNL     1      21.782   5.870  44.374  1.00  0.00     0.116 A 
HETATM   21  F1  UNL     1      21.778   6.582  43.218  1.00  0.00    -0.206 F 
HETATM   22  C15 UNL     1      21.207   4.617  44.397  1.00  0.00     0.043 A 
HETATM   23  C16 UNL     1      21.180   3.850  45.540  1.00  0.00     0.020 A 
ENDBRANCH  14  17
ENDBRANCH   6  13
BRANCH   1  24
HETATM   24  C5  UNL     1      25.376  -0.822  53.249  1.00  0.00     0.144 C 
HETATM   25  N1  UNL     1      26.571  -1.033  53.682  1.00  0.00    -0.271 NA
BRANCH  25  26
HETATM   26  C4  UNL     1      27.114  -0.098  54.627  1.00  0.00     0.112 C 
HETATM   27  C3  UNL     1      28.280   0.510  54.651  1.00  0.00    -0.008 C 
BRANCH  27  28
HETATM   28  C2  UNL     1      29.488   0.530  53.804  1.00  0.00     0.024 C 
HETATM   29  C1  UNL     1      30.051  -0.853  53.626  1.00  0.00     0.009 C 
ENDBRANCH  27  28
ENDBRANCH  25  26
ENDBRANCH   1  24
TORSDOF 5
ENDMDL
MODEL 9
REMARK VINA RESULT:      -7.4      4.340      8.529
REMARK  5 active torsions:
REMARK  status: ('A' for Active; 'I' for Inactive)
REMARK    1  A    between atoms: C2_2  and  C3_3 
REMARK    2  A    between atoms: C4_4  and  N1_5 
REMARK    3  A    between atoms: C5_6  and  C6_7 
REMARK    4  A    between atoms: C9_12  and  N4_13 
REMARK       I    between atoms: N4_13  and  C10_14 
REMARK    5  A    between atoms: C10_14  and  C11_16 
ROOT
HETATM    1  C6  UNL     1      25.976   2.795  51.640  1.00  0.00     0.065 C 
HETATM    2  N2  UNL     1      24.806   3.232  51.641  1.00  0.00    -0.277 NA
HETATM    3  C7  UNL     1      23.854   3.400  52.645  1.00  0.00     0.234 C 
HETATM    4  N3  UNL     1      22.567   2.920  52.160  1.00  0.00    -0.297 NA
HETATM    5  C8  UNL     1      22.330   1.679  52.278  1.00  0.00     0.238 C 
HETATM    6  C9  UNL     1      22.169   0.247  52.463  1.00  0.00     0.046 C 
HETATM    7  C17 UNL     1      23.108  -0.525  53.006  1.00  0.00     0.032 C 
HETATM    8  C18 UNL     1      24.396  -0.156  53.498  1.00  0.00     0.019 C 
HETATM    9  C19 UNL     1      25.435   0.529  53.827  1.00  0.00     0.083 C 
HETATM   10  N5  UNL     1      26.090   1.783  53.889  1.00  0.00    -0.393 N 
HETATM   11  C20 UNL     1      26.770   2.317  52.752  1.00  0.00     0.179 C 
HETATM   12  H20 UNL     1      26.132   2.431  54.739  1.00  0.00     0.159 HD
ENDROOT
BRANCH   6  13
HETATM   13  N4  UNL     1      20.940  -0.233  52.010  1.00  0.00    -0.322 N 
HETATM   14  C10 UNL     1      19.946  -0.314  52.991  1.00  0.00     0.256 C 
HETATM   15  O1  UNL     1      20.310   0.060  54.135  1.00  0.00    -0.267 OA
HETATM   16  H12 UNL     1      20.697  -0.533  51.024  1.00  0.00     0.169 HD
BRANCH  14  17
HETATM   17  C11 UNL     1      18.585  -0.779  52.786  1.00  0.00     0.032 A 
HETATM   18  C12 UNL     1      17.761  -0.038  51.942  1.00  0.00     0.020 A 
HETATM   19  C13 UNL     1      16.443  -0.429  51.709  1.00  0.00     0.043 A 
HETATM   20  C14 UNL     1      15.968  -1.583  52.343  1.00  0.00     0.116 A 
HETATM   21  F1  UNL     1      14.693  -2.009  52.152  1.00  0.00    -0.206 F 
HETATM   22  C15 UNL     1      16.803  -2.301  53.173  1.00  0.00     0.043 A 
HETATM   23  C16 UNL     1      18.104  -1.916  53.404  1.00  0.00     0.020 A 
ENDBRANCH  14  17
ENDBRANCH   6  13
BRANCH   1  24
HETATM   24  C5  UNL     1      26.584   2.815  50.316  1.00  0.00     0.144 C 
HETATM   25  N1  UNL     1      26.854   3.567  49.305  1.00  0.00    -0.271 NA
BRANCH  25  26
HETATM   26  C4  UNL     1      26.457   4.947  49.372  1.00  0.00     0.112 C 
HETATM   27  C3  UNL     1      26.961   6.008  48.781  1.00  0.00    -0.008 C 
BRANCH  27  28
HETATM   28  C2  UNL     1      28.071   6.282  47.849  1.00  0.00     0.024 C 
HETATM   29  C1  UNL     1      29.361   5.698  48.354  1.00  0.00     0.009 C 
ENDBRANCH  27  28
ENDBRANCH  25  26
ENDBRANCH   1  24
TORSDOF 5
ENDMDL
