MODEL 1
REMARK VINA RESULT:      -7.9      0.000      0.000
REMARK  2 active torsions:
REMARK  status: ('A' for Active; 'I' for Inactive)
REMARK    1  A    between atoms: C2_2  and  C3_3 
REMARK    2  A    between atoms: C3_3  and  N1_4 
ROOT
HETATM    1  N1  UNL     1      26.658   0.595  53.925  1.00  0.00     0.099 N 
HETATM    2  C4  UNL     1      25.961  -0.176  54.926  1.00  0.00     0.366 C 
HETATM    3  C5  UNL     1      24.622  -0.496  54.587  1.00  0.00    -0.066 C 
HETATM    4  C6  UNL     1      23.553  -0.730  54.312  1.00  0.00    -0.004 C 
HETATM    5  C7  UNL     1      22.247  -0.992  53.967  1.00  0.00     0.298 C 
HETATM    6  O1  UNL     1      21.659  -2.007  53.792  1.00  0.00    -0.258 OA
HETATM    7  N2  UNL     1      21.131  -0.089  53.702  1.00  0.00    -0.337 N 
HETATM    8  C8  UNL     1      19.838  -0.566  53.249  1.00  0.00     0.156 C 
HETATM    9  C9  UNL     1      19.730   0.043  51.862  1.00  0.00     0.021 C 
HETATM   10  C10 UNL     1      20.551   1.025  51.417  1.00  0.00     0.043 C 
HETATM   11  N3  UNL     1      20.602   0.956  49.970  1.00  0.00    -0.246 NA
HETATM   12  C11 UNL     1      21.648   1.380  49.293  1.00  0.00     0.234 C 
HETATM   13  N4  UNL     1      22.863   1.955  49.846  1.00  0.00    -0.240 NA
HETATM   14  C12 UNL     1      23.205   1.627  51.053  1.00  0.00     0.090 C 
HETATM   15  C13 UNL     1      22.588   2.162  52.105  1.00  0.00    -0.037 C 
HETATM   16  C14 UNL     1      23.931   2.822  52.471  1.00  0.00     0.039 C 
HETATM   17  C15 UNL     1      24.751   1.764  53.151  1.00  0.00     0.034 C 
HETATM   18  C16 UNL     1      26.137   1.916  53.594  1.00  0.00     0.274 C 
HETATM   19  C17 UNL     1      21.196   1.937  52.428  1.00  0.00     0.087 C 
HETATM   20  C18 UNL     1      20.859   1.323  53.761  1.00  0.00     0.142 C 
ENDROOT
BRANCH   1  21
HETATM   21  C3  UNL     1      26.853  -0.201  52.740  1.00  0.00     0.273 C 
BRANCH  21  22
HETATM   22  C2  UNL     1      27.879  -1.260  52.990  1.00  0.00     0.026 C 
HETATM   23  C1  UNL     1      29.201  -0.614  53.389  1.00  0.00     0.007 C 
ENDBRANCH  21  22
ENDBRANCH   1  21
TORSDOF 2
ENDMDL
MODEL 2
REMARK VINA RESULT:      -7.1      1.982      2.508
REMARK  2 active torsions:
REMARK  status: ('A' for Active; 'I' for Inactive)
REMARK    1  A    between atoms: C2_2  and  C3_3 
REMARK    2  A    between atoms: C3_3  and  N1_4 
ROOT
HETATM    1  N1  UNL     1      25.692   0.543  53.647  1.00  0.00     0.099 N 
HETATM    2  C4  UNL     1      24.543  -0.291  53.903  1.00  0.00     0.366 C 
HETATM    3  C5  UNL     1      23.405   0.027  53.118  1.00  0.00    -0.066 C 
HETATM    4  C6  UNL     1      22.503   0.300  52.498  1.00  0.00    -0.004 C 
HETATM    5  C7  UNL     1      21.407   0.658  51.747  1.00  0.00     0.298 C 
HETATM    6  O1  UNL     1      20.770   0.068  50.939  1.00  0.00    -0.258 OA
HETATM    7  N2  UNL     1      20.651   1.905  51.698  1.00  0.00    -0.337 N 
HETATM    8  C8  UNL     1      19.573   2.122  50.752  1.00  0.00     0.156 C 
HETATM    9  C9  UNL     1      20.114   3.249  49.888  1.00  0.00     0.021 C 
HETATM   10  C10 UNL     1      21.197   3.989  50.228  1.00  0.00     0.043 C 
HETATM   11  N3  UNL     1      21.790   4.514  49.014  1.00  0.00    -0.246 NA
HETATM   12  C11 UNL     1      23.072   4.802  48.939  1.00  0.00     0.234 C 
HETATM   13  N4  UNL     1      24.058   4.654  49.997  1.00  0.00    -0.240 NA
HETATM   14  C12 UNL     1      23.845   3.762  50.913  1.00  0.00     0.090 C 
HETATM   15  C13 UNL     1      22.970   3.985  51.892  1.00  0.00    -0.037 C 
HETATM   16  C14 UNL     1      24.158   3.943  52.872  1.00  0.00     0.039 C 
HETATM   17  C15 UNL     1      24.459   2.491  53.109  1.00  0.00     0.034 C 
HETATM   18  C16 UNL     1      25.571   1.973  53.906  1.00  0.00     0.274 C 
HETATM   19  C17 UNL     1      21.545   4.127  51.687  1.00  0.00     0.087 C 
HETATM   20  C18 UNL     1      20.621   3.167  52.389  1.00  0.00     0.142 C 
ENDROOT
BRANCH   1  21
HETATM   21  C3  UNL     1      26.192   0.295  52.318  1.00  0.00     0.273 C 
BRANCH  21  22
HETATM   22  C2  UNL     1      26.935  -1.002  52.277  1.00  0.00     0.026 C 
HETATM   23  C1  UNL     1      28.182  -0.910  53.151  1.00  0.00     0.007 C 
ENDBRANCH  21  22
ENDBRANCH   1  21
TORSDOF 2
ENDMDL
MODEL 3
REMARK VINA RESULT:      -6.6      3.394      5.832
REMARK  2 active torsions:
REMARK  status: ('A' for Active; 'I' for Inactive)
REMARK    1  A    between atoms: C2_2  and  C3_3 
REMARK    2  A    between atoms: C3_3  and  N1_4 
ROOT
HETATM    1  N1  UNL     1      22.918   6.609  49.464  1.00  0.00     0.099 N 
HETATM    2  C4  UNL     1      21.477   6.679  49.514  1.00  0.00     0.366 C 
HETATM    3  C5  UNL     1      20.864   5.597  50.195  1.00  0.00    -0.066 C 
HETATM    4  C6  UNL     1      20.388   4.723  50.727  1.00  0.00    -0.004 C 
HETATM    5  C7  UNL     1      19.824   3.641  51.363  1.00  0.00     0.298 C 
HETATM    6  O1  UNL     1      19.147   3.553  52.332  1.00  0.00    -0.258 OA
HETATM    7  N2  UNL     1      19.872   2.218  51.046  1.00  0.00    -0.337 N 
HETATM    8  C8  UNL     1      19.286   1.211  51.910  1.00  0.00     0.156 C 
HETATM    9  C9  UNL     1      20.501   0.420  52.366  1.00  0.00     0.021 C 
HETATM   10  C10 UNL     1      21.718   0.529  51.781  1.00  0.00     0.043 C 
HETATM   11  N3  UNL     1      22.727   0.160  52.754  1.00  0.00    -0.246 NA
HETATM   12  C11 UNL     1      23.952   0.639  52.697  1.00  0.00     0.234 C 
HETATM   13  N4  UNL     1      24.475   1.566  51.708  1.00  0.00    -0.240 NA
HETATM   14  C12 UNL     1      23.645   2.370  51.120  1.00  0.00     0.090 C 
HETATM   15  C13 UNL     1      22.847   1.934  50.147  1.00  0.00    -0.037 C 
HETATM   16  C14 UNL     1      23.609   2.873  49.193  1.00  0.00     0.039 C 
HETATM   17  C15 UNL     1      23.041   4.246  49.408  1.00  0.00     0.034 C 
HETATM   18  C16 UNL     1      23.524   5.474  48.778  1.00  0.00     0.274 C 
HETATM   19  C17 UNL     1      21.789   0.967  50.340  1.00  0.00     0.087 C 
HETATM   20  C18 UNL     1      20.378   1.370  49.999  1.00  0.00     0.142 C 
ENDROOT
BRANCH   1  21
HETATM   21  C3  UNL     1      23.462   6.770  50.788  1.00  0.00     0.273 C 
BRANCH  21  22
HETATM   22  C2  UNL     1      24.913   7.125  50.713  1.00  0.00     0.026 C 
HETATM   23  C1  UNL     1      25.074   8.505  50.083  1.00  0.00     0.007 C 
ENDBRANCH  21  22
ENDBRANCH   1  21
TORSDOF 2
ENDMDL
MODEL 4
REMARK VINA RESULT:      -6.5      2.040      3.720
REMARK  2 active torsions:
REMARK  status: ('A' for Active; 'I' for Inactive)
REMARK    1  A    between atoms: C2_2  and  C3_3 
REMARK    2  A    between atoms: C3_3  and  N1_4 
ROOT
HETATM    1  N1  UNL     1      27.498   0.787  52.750  1.00  0.00     0.099 N 
HETATM    2  C4  UNL     1      27.286   1.997  51.992  1.00  0.00     0.366 C 
HETATM    3  C5  UNL     1      25.959   2.495  52.047  1.00  0.00    -0.066 C 
HETATM    4  C6  UNL     1      24.897   2.872  52.088  1.00  0.00    -0.004 C 
HETATM    5  C7  UNL     1      23.593   3.308  52.134  1.00  0.00     0.298 C 
HETATM    6  O1  UNL     1      23.104   4.314  52.531  1.00  0.00    -0.258 OA
HETATM    7  N2  UNL     1      22.357   2.667  51.699  1.00  0.00    -0.337 N 
HETATM    8  C8  UNL     1      21.053   3.259  51.930  1.00  0.00     0.156 C 
HETATM    9  C9  UNL     1      20.399   2.260  52.870  1.00  0.00     0.021 C 
HETATM   10  C10 UNL     1      20.894   1.018  53.094  1.00  0.00     0.043 C 
HETATM   11  N3  UNL     1      20.448   0.578  54.400  1.00  0.00    -0.246 NA
HETATM   12  C11 UNL     1      21.138  -0.289  55.110  1.00  0.00     0.234 C 
HETATM   13  N4  UNL     1      22.393  -0.918  54.732  1.00  0.00    -0.240 NA
HETATM   14  C12 UNL     1      23.167  -0.292  53.901  1.00  0.00     0.090 C 
HETATM   15  C13 UNL     1      22.895  -0.273  52.597  1.00  0.00    -0.037 C 
HETATM   16  C14 UNL     1      24.193  -1.073  52.384  1.00  0.00     0.039 C 
HETATM   17  C15 UNL     1      25.317  -0.078  52.436  1.00  0.00     0.034 C 
HETATM   18  C16 UNL     1      26.742  -0.400  52.370  1.00  0.00     0.274 C 
HETATM   19  C17 UNL     1      21.737   0.376  52.022  1.00  0.00     0.087 C 
HETATM   20  C18 UNL     1      21.958   1.468  51.009  1.00  0.00     0.142 C 
ENDROOT
BRANCH   1  21
HETATM   21  C3  UNL     1      27.362   1.062  54.158  1.00  0.00     0.273 C 
BRANCH  21  22
HETATM   22  C2  UNL     1      28.328   0.234  54.944  1.00  0.00     0.026 C 
HETATM   23  C1  UNL     1      29.574  -0.038  54.107  1.00  0.00     0.007 C 
ENDBRANCH  21  22
ENDBRANCH   1  21
TORSDOF 2
ENDMDL
MODEL 5
REMARK VINA RESULT:      -6.5      3.169      4.660
REMARK  2 active torsions:
REMARK  status: ('A' for Active; 'I' for Inactive)
REMARK    1  A    between atoms: C2_2  and  C3_3 
REMARK    2  A    between atoms: C3_3  and  N1_4 
ROOT
HETATM    1  N1  UNL     1      25.971   1.373  52.699  1.00  0.00     0.099 N 
HETATM    2  C4  UNL     1      25.571   2.343  53.690  1.00  0.00     0.366 C 
HETATM    3  C5  UNL     1      24.537   3.216  53.268  1.00  0.00    -0.066 C 
HETATM    4  C6  UNL     1      23.725   3.914  52.914  1.00  0.00    -0.004 C 
HETATM    5  C7  UNL     1      22.746   4.768  52.459  1.00  0.00     0.298 C 
HETATM    6  O1  UNL     1      21.640   4.980  52.833  1.00  0.00    -0.258 OA
HETATM    7  N2  UNL     1      22.746   5.714  51.349  1.00  0.00    -0.337 N 
HETATM    8  C8  UNL     1      21.563   6.460  50.965  1.00  0.00     0.156 C 
HETATM    9  C9  UNL     1      21.271   5.925  49.574  1.00  0.00     0.021 C 
HETATM   10  C10 UNL     1      22.157   5.184  48.864  1.00  0.00     0.043 C 
HETATM   11  N3  UNL     1      21.417   4.363  47.926  1.00  0.00    -0.246 NA
HETATM   12  C11 UNL     1      21.888   3.213  47.492  1.00  0.00     0.234 C 
HETATM   13  N4  UNL     1      23.155   2.602  47.856  1.00  0.00    -0.240 NA
HETATM   14  C12 UNL     1      23.672   2.899  49.007  1.00  0.00     0.090 C 
HETATM   15  C13 UNL     1      24.290   4.064  49.196  1.00  0.00    -0.037 C 
HETATM   16  C14 UNL     1      25.588   3.263  49.413  1.00  0.00     0.039 C 
HETATM   17  C15 UNL     1      25.540   2.754  50.825  1.00  0.00     0.034 C 
HETATM   18  C16 UNL     1      26.524   1.867  51.444  1.00  0.00     0.274 C 
HETATM   19  C17 UNL     1      23.627   5.349  49.152  1.00  0.00     0.087 C 
HETATM   20  C18 UNL     1      23.677   6.224  50.377  1.00  0.00     0.142 C 
ENDROOT
BRANCH   1  21
HETATM   21  C3  UNL     1      24.897   0.441  52.465  1.00  0.00     0.273 C 
BRANCH  21  22
HETATM   22  C2  UNL     1      24.684  -0.419  53.670  1.00  0.00     0.026 C 
HETATM   23  C1  UNL     1      23.190  -0.593  53.921  1.00  0.00     0.007 C 
ENDBRANCH  21  22
ENDBRANCH   1  21
TORSDOF 2
ENDMDL
MODEL 6
REMARK VINA RESULT:      -6.4     10.372     13.150
REMARK  2 active torsions:
REMARK  status: ('A' for Active; 'I' for Inactive)
REMARK    1  A    between atoms: C2_2  and  C3_3 
REMARK    2  A    between atoms: C3_3  and  N1_4 
ROOT
HETATM    1  N1  UNL     1      28.702   8.579  47.823  1.00  0.00     0.099 N 
HETATM    2  C4  UNL     1      29.112   9.331  46.662  1.00  0.00     0.366 C 
HETATM    3  C5  UNL     1      30.104   8.693  45.874  1.00  0.00    -0.066 C 
HETATM    4  C6  UNL     1      30.904   8.181  45.265  1.00  0.00    -0.004 C 
HETATM    5  C7  UNL     1      31.891   7.550  44.544  1.00  0.00     0.298 C 
HETATM    6  O1  UNL     1      31.931   7.156  43.426  1.00  0.00    -0.258 OA
HETATM    7  N2  UNL     1      33.243   7.154  44.923  1.00  0.00    -0.337 N 
HETATM    8  C8  UNL     1      34.108   6.398  44.036  1.00  0.00     0.156 C 
HETATM    9  C9  UNL     1      34.282   5.087  44.784  1.00  0.00     0.021 C 
HETATM   10  C10 UNL     1      33.935   4.923  46.083  1.00  0.00     0.043 C 
HETATM   11  N3  UNL     1      33.657   3.518  46.307  1.00  0.00    -0.246 NA
HETATM   12  C11 UNL     1      32.828   3.118  47.248  1.00  0.00     0.234 C 
HETATM   13  N4  UNL     1      32.090   3.965  48.172  1.00  0.00    -0.240 NA
HETATM   14  C12 UNL     1      31.811   5.176  47.804  1.00  0.00     0.090 C 
HETATM   15  C13 UNL     1      32.743   6.128  47.828  1.00  0.00    -0.037 C 
HETATM   16  C14 UNL     1      31.904   6.827  48.914  1.00  0.00     0.039 C 
HETATM   17  C15 UNL     1      30.801   7.552  48.197  1.00  0.00     0.034 C 
HETATM   18  C16 UNL     1      29.708   8.283  48.836  1.00  0.00     0.274 C 
HETATM   19  C17 UNL     1      33.916   6.132  46.982  1.00  0.00     0.087 C 
HETATM   20  C18 UNL     1      34.125   7.298  46.052  1.00  0.00     0.142 C 
ENDROOT
BRANCH   1  21
HETATM   21  C3  UNL     1      28.007   7.385  47.414  1.00  0.00     0.273 C 
BRANCH  21  22
HETATM   22  C2  UNL     1      27.345   6.741  48.590  1.00  0.00     0.026 C 
HETATM   23  C1  UNL     1      27.619   5.241  48.579  1.00  0.00     0.007 C 
ENDBRANCH  21  22
ENDBRANCH   1  21
TORSDOF 2
ENDMDL
MODEL 7
REMARK VINA RESULT:      -6.4      4.966      7.078
REMARK  2 active torsions:
REMARK  status: ('A' for Active; 'I' for Inactive)
REMARK    1  A    between atoms: C2_2  and  C3_3 
REMARK    2  A    between atoms: C3_3  and  N1_4 
ROOT
HETATM    1  N1  UNL     1      26.675   7.343  48.587  1.00  0.00     0.099 N 
HETATM    2  C4  UNL     1      25.600   7.681  47.685  1.00  0.00     0.366 C 
HETATM    3  C5  UNL     1      24.373   7.030  47.970  1.00  0.00    -0.066 C 
HETATM    4  C6  UNL     1      23.407   6.493  48.199  1.00  0.00    -0.004 C 
HETATM    5  C7  UNL     1      22.243   5.818  48.482  1.00  0.00     0.298 C 
HETATM    6  O1  UNL     1      21.159   6.193  48.785  1.00  0.00    -0.258 OA
HETATM    7  N2  UNL     1      21.950   4.388  48.500  1.00  0.00    -0.337 N 
HETATM    8  C8  UNL     1      20.666   3.865  48.928  1.00  0.00     0.156 C 
HETATM    9  C9  UNL     1      21.030   3.079  50.176  1.00  0.00     0.021 C 
HETATM   10  C10 UNL     1      22.306   2.761  50.506  1.00  0.00     0.043 C 
HETATM   11  N3  UNL     1      22.374   2.579  51.942  1.00  0.00    -0.246 NA
HETATM   12  C11 UNL     1      23.487   2.783  52.613  1.00  0.00     0.234 C 
HETATM   13  N4  UNL     1      24.767   3.201  52.064  1.00  0.00    -0.240 NA
HETATM   14  C12 UNL     1      24.768   3.884  50.963  1.00  0.00     0.090 C 
HETATM   15  C13 UNL     1      24.569   3.287  49.789  1.00  0.00    -0.037 C 
HETATM   16  C14 UNL     1      26.010   3.686  49.419  1.00  0.00     0.039 C 
HETATM   17  C15 UNL     1      25.956   5.126  48.997  1.00  0.00     0.034 C 
HETATM   18  C16 UNL     1      27.109   5.952  48.643  1.00  0.00     0.274 C 
HETATM   19  C17 UNL     1      23.328   2.651  49.404  1.00  0.00     0.087 C 
HETATM   20  C18 UNL     1      22.616   3.155  48.176  1.00  0.00     0.142 C 
ENDROOT
BRANCH   1  21
HETATM   21  C3  UNL     1      26.388   7.853  49.903  1.00  0.00     0.273 C 
BRANCH  21  22
HETATM   22  C2  UNL     1      26.932   9.239  50.053  1.00  0.00     0.026 C 
HETATM   23  C1  UNL     1      28.399   9.265  49.637  1.00  0.00     0.007 C 
ENDBRANCH  21  22
ENDBRANCH   1  21
TORSDOF 2
ENDMDL
MODEL 8
REMARK VINA RESULT:      -6.4      3.499      5.046
REMARK  2 active torsions:
REMARK  status: ('A' for Active; 'I' for Inactive)
REMARK    1  A    between atoms: C2_2  and  C3_3 
REMARK    2  A    between atoms: C3_3  and  N1_4 
ROOT
HETATM    1  N1  UNL     1      24.650   1.569  52.921  1.00  0.00     0.099 N 
HETATM    2  C4  UNL     1      23.578   0.838  52.289  1.00  0.00     0.366 C 
HETATM    3  C5  UNL     1      23.120   1.407  51.074  1.00  0.00    -0.066 C 
HETATM    4  C6  UNL     1      22.755   1.880  50.117  1.00  0.00    -0.004 C 
HETATM    5  C7  UNL     1      22.311   2.479  48.960  1.00  0.00     0.298 C 
HETATM    6  O1  UNL     1      22.279   2.107  47.834  1.00  0.00    -0.258 OA
HETATM    7  N2  UNL     1      21.720   3.793  48.734  1.00  0.00    -0.337 N 
HETATM    8  C8  UNL     1      21.406   4.284  47.405  1.00  0.00     0.156 C 
HETATM    9  C9  UNL     1      22.342   5.472  47.263  1.00  0.00     0.021 C 
HETATM   10  C10 UNL     1      23.009   6.019  48.308  1.00  0.00     0.043 C 
HETATM   11  N3  UNL     1      24.200   6.670  47.798  1.00  0.00    -0.246 NA
HETATM   12  C11 UNL     1      25.276   6.822  48.541  1.00  0.00     0.234 C 
HETATM   13  N4  UNL     1      25.449   6.389  49.918  1.00  0.00    -0.240 NA
HETATM   14  C12 UNL     1      24.745   5.386  50.339  1.00  0.00     0.090 C 
HETATM   15  C13 UNL     1      23.458   5.538  50.649  1.00  0.00    -0.037 C 
HETATM   16  C14 UNL     1      23.840   5.201  52.103  1.00  0.00     0.039 C 
HETATM   17  C15 UNL     1      23.955   3.705  52.174  1.00  0.00     0.034 C 
HETATM   18  C16 UNL     1      24.386   2.940  53.343  1.00  0.00     0.274 C 
HETATM   19  C17 UNL     1      22.428   5.871  49.690  1.00  0.00     0.087 C 
HETATM   20  C18 UNL     1      21.276   4.917  49.516  1.00  0.00     0.142 C 
ENDROOT
BRANCH   1  21
HETATM   21  C3  UNL     1      25.839   1.492  52.111  1.00  0.00     0.273 C 
BRANCH  21  22
HETATM   22  C2  UNL     1      26.363   0.091  52.090  1.00  0.00     0.026 C 
HETATM   23  C1  UNL     1      27.603  -0.009  52.972  1.00  0.00     0.007 C 
ENDBRANCH  21  22
ENDBRANCH   1  21
TORSDOF 2
ENDMDL
MODEL 9
REMARK VINA RESULT:      -6.3      8.535     11.060
REMARK  2 active torsions:
REMARK  status: ('A' for Active; 'I' for Inactive)
REMARK    1  A    between atoms: C2_2  and  C3_3 
REMARK    2  A    between atoms: C3_3  and  N1_4 
ROOT
HETATM    1  N1  UNL     1      25.073   6.110  49.085  1.00  0.00     0.099 N 
HETATM    2  C4  UNL     1      25.898   4.960  48.808  1.00  0.00     0.366 C 
HETATM    3  C5  UNL     1      27.277   5.254  48.654  1.00  0.00    -0.066 C 
HETATM    4  C6  UNL     1      28.368   5.505  48.518  1.00  0.00    -0.004 C 
HETATM    5  C7  UNL     1      29.693   5.831  48.339  1.00  0.00     0.298 C 
HETATM    6  O1  UNL     1      30.676   5.512  48.921  1.00  0.00    -0.258 OA
HETATM    7  N2  UNL     1      30.339   6.691  47.353  1.00  0.00    -0.337 N 
HETATM    8  C8  UNL     1      31.758   6.989  47.394  1.00  0.00     0.156 C 
HETATM    9  C9  UNL     1      31.772   8.486  47.655  1.00  0.00     0.021 C 
HETATM   10  C10 UNL     1      30.674   9.271  47.532  1.00  0.00     0.043 C 
HETATM   11  N3  UNL     1      30.844  10.430  48.384  1.00  0.00    -0.246 NA
HETATM   12  C11 UNL     1      29.813  11.076  48.887  1.00  0.00     0.234 C 
HETATM   13  N4  UNL     1      28.409  10.758  48.687  1.00  0.00    -0.240 NA
HETATM   14  C12 UNL     1      28.089   9.531  48.419  1.00  0.00     0.090 C 
HETATM   15  C13 UNL     1      28.277   9.028  47.200  1.00  0.00    -0.037 C 
HETATM   16  C14 UNL     1      26.746   8.894  47.094  1.00  0.00     0.039 C 
HETATM   17  C15 UNL     1      26.378   7.646  47.843  1.00  0.00     0.034 C 
HETATM   18  C16 UNL     1      25.017   7.169  48.083  1.00  0.00     0.274 C 
HETATM   19  C17 UNL     1      29.577   8.832  46.597  1.00  0.00     0.087 C 
HETATM   20  C18 UNL     1      29.970   7.439  46.180  1.00  0.00     0.142 C 
ENDROOT
BRANCH   1  21
HETATM   21  C3  UNL     1      25.392   6.641  50.386  1.00  0.00     0.273 C 
BRANCH  21  22
HETATM   22  C2  UNL     1      24.140   6.882  51.169  1.00  0.00     0.026 C 
HETATM   23  C1  UNL     1      23.581   5.554  51.669  1.00  0.00     0.007 C 
ENDBRANCH  21  22
ENDBRANCH   1  21
TORSDOF 2
ENDMDL
