MODEL 1
REMARK VINA RESULT:      -8.2      0.000      0.000
REMARK  4 active torsions:
REMARK  status: ('A' for Active; 'I' for Inactive)
REMARK    1  A    between atoms: O1_2  and  C2_3 
REMARK    2  A    between atoms: N1_9  and  C8_10 
REMARK    3  A    between atoms: C9_12  and  O2_13 
REMARK    4  A    between atoms: C11_16  and  C12_17 
ROOT
HETATM    1  C2  UNL     1      26.843   1.453  53.842  1.00  0.00     0.070 A 
HETATM    2  C3  UNL     1      26.755   0.196  54.381  1.00  0.00     0.037 A 
HETATM    3  C4  UNL     1      25.559  -0.483  54.394  1.00  0.00     0.012 A 
HETATM    4  C5  UNL     1      24.432   0.105  53.859  1.00  0.00    -0.031 A 
HETATM    5  C6  UNL     1      24.452   1.379  53.295  1.00  0.00     0.046 A 
HETATM    6  C7  UNL     1      25.686   1.990  53.322  1.00  0.00     0.067 A 
HETATM    7  N1  UNL     1      23.290   1.998  52.734  1.00  0.00    -0.316 N 
HETATM    8  C11 UNL     1      22.083   1.288  52.842  1.00  0.00     0.125 C 
HETATM    9  C18 UNL     1      22.414  -0.202  52.639  1.00  0.00     0.035 C 
HETATM   10  C19 UNL     1      23.130  -0.651  53.882  1.00  0.00     0.043 C 
ENDROOT
BRANCH   7  11
HETATM   11  C8  UNL     1      23.561   3.274  52.142  1.00  0.00     0.176 A 
HETATM   12  N2  UNL     1      23.716   4.375  52.410  1.00  0.00    -0.200 NA
HETATM   13  C9  UNL     1      23.968   5.420  51.655  1.00  0.00     0.171 A 
HETATM   14  C10 UNL     1      24.058   5.156  50.357  1.00  0.00     0.111 A 
HETATM   15  S1  UNL     1      23.767   3.333  50.256  1.00  0.00    -0.059 SA
BRANCH  13  16
HETATM   16  O2  UNL     1      24.108   6.667  52.306  1.00  0.00    -0.344 OA
HETATM   17  H7  UNL     1      25.009   7.055  52.538  1.00  0.00     0.219 HD
ENDBRANCH  13  16
ENDBRANCH   7  11
BRANCH   8  18
HETATM   18  C12 UNL     1      20.971   1.556  51.981  1.00  0.00    -0.035 A 
HETATM   19  C13 UNL     1      20.791   0.890  50.765  1.00  0.00     0.010 A 
HETATM   20  C14 UNL     1      19.741   1.111  49.897  1.00  0.00     0.019 A 
HETATM   21  C15 UNL     1      18.798   2.038  50.228  1.00  0.00     0.011 A 
HETATM   22 BR1  UNL     1      17.355   2.329  49.023  1.00  0.00    -0.051 Br
HETATM   23  C16 UNL     1      18.903   2.748  51.427  1.00  0.00     0.019 A 
HETATM   24  C17 UNL     1      19.988   2.458  52.228  1.00  0.00     0.010 A 
ENDBRANCH   8  18
BRANCH   1  25
HETATM   25  O1  UNL     1      28.034   2.152  53.818  1.00  0.00    -0.356 OA
HETATM   26  C1  UNL     1      29.207   1.573  54.325  1.00  0.00     0.210 C 
ENDBRANCH   1  25
TORSDOF 4
ENDMDL
MODEL 2
REMARK VINA RESULT:      -8.0      3.005      3.492
REMARK  4 active torsions:
REMARK  status: ('A' for Active; 'I' for Inactive)
REMARK    1  A    between atoms: O1_2  and  C2_3 
REMARK    2  A    between atoms: N1_9  and  C8_10 
REMARK    3  A    between atoms: C9_12  and  O2_13 
REMARK    4  A    between atoms: C11_16  and  C12_17 
ROOT
HETATM    1  C2  UNL     1      25.750   0.435  52.775  1.00  0.00     0.070 A 
HETATM    2  C3  UNL     1      26.074  -0.262  53.910  1.00  0.00     0.037 A 
HETATM    3  C4  UNL     1      25.093  -0.814  54.702  1.00  0.00     0.012 A 
HETATM    4  C5  UNL     1      23.767  -0.665  54.354  1.00  0.00    -0.031 A 
HETATM    5  C6  UNL     1      23.369   0.032  53.215  1.00  0.00     0.046 A 
HETATM    6  C7  UNL     1      24.410   0.551  52.477  1.00  0.00     0.067 A 
HETATM    7  N1  UNL     1      21.997   0.190  52.841  1.00  0.00    -0.316 N 
HETATM    8  C11 UNL     1      21.039  -0.330  53.727  1.00  0.00     0.125 C 
HETATM    9  C18 UNL     1      21.605  -1.650  54.282  1.00  0.00     0.035 C 
HETATM   10  C19 UNL     1      22.707  -1.273  55.232  1.00  0.00     0.043 C 
ENDROOT
BRANCH   7  11
HETATM   11  C8  UNL     1      21.827   0.873  51.594  1.00  0.00     0.176 A 
HETATM   12  N2  UNL     1      21.783   0.687  50.466  1.00  0.00    -0.200 NA
HETATM   13  C9  UNL     1      21.605   1.514  49.461  1.00  0.00     0.171 A 
HETATM   14  C10 UNL     1      21.450   2.785  49.812  1.00  0.00     0.111 A 
HETATM   15  S1  UNL     1      21.568   2.752  51.656  1.00  0.00    -0.059 SA
BRANCH  13  16
HETATM   16  O2  UNL     1      21.602   0.959  48.161  1.00  0.00    -0.344 OA
HETATM   17  H7  UNL     1      21.355   1.499  47.346  1.00  0.00     0.219 HD
ENDBRANCH  13  16
ENDBRANCH   7  11
BRANCH   8  18
HETATM   18  C12 UNL     1      19.705  -0.632  53.302  1.00  0.00    -0.035 A 
HETATM   19  C13 UNL     1      19.020  -1.769  53.744  1.00  0.00     0.010 A 
HETATM   20  C14 UNL     1      17.737  -2.109  53.366  1.00  0.00     0.019 A 
HETATM   21  C15 UNL     1      17.069  -1.293  52.501  1.00  0.00     0.011 A 
HETATM   22 BR1  UNL     1      15.300  -1.773  51.991  1.00  0.00    -0.051 Br
HETATM   23  C16 UNL     1      17.682  -0.136  52.012  1.00  0.00     0.019 A 
HETATM   24  C17 UNL     1      18.965   0.118  52.448  1.00  0.00     0.010 A 
ENDBRANCH   8  18
BRANCH   1  25
HETATM   25  O1  UNL     1      26.717   0.995  51.966  1.00  0.00    -0.356 OA
HETATM   26  C1  UNL     1      26.503   2.245  51.364  1.00  0.00     0.210 C 
ENDBRANCH   1  25
TORSDOF 4
ENDMDL
MODEL 3
REMARK VINA RESULT:      -8.0      3.584      5.680
REMARK  4 active torsions:
REMARK  status: ('A' for Active; 'I' for Inactive)
REMARK    1  A    between atoms: O1_2  and  C2_3 
REMARK    2  A    between atoms: N1_9  and  C8_10 
REMARK    3  A    between atoms: C9_12  and  O2_13 
REMARK    4  A    between atoms: C11_16  and  C12_17 
ROOT
HETATM    1  C2  UNL     1      20.618  -0.573  53.456  1.00  0.00     0.070 A 
HETATM    2  C3  UNL     1      21.484  -1.118  54.368  1.00  0.00     0.037 A 
HETATM    3  C4  UNL     1      22.827  -0.822  54.329  1.00  0.00     0.012 A 
HETATM    4  C5  UNL     1      23.312   0.032  53.361  1.00  0.00    -0.031 A 
HETATM    5  C6  UNL     1      22.487   0.620  52.404  1.00  0.00     0.046 A 
HETATM    6  C7  UNL     1      21.158   0.274  52.513  1.00  0.00     0.067 A 
HETATM    7  N1  UNL     1      22.978   1.511  51.397  1.00  0.00    -0.316 N 
HETATM    8  C11 UNL     1      24.366   1.717  51.361  1.00  0.00     0.125 C 
HETATM    9  C18 UNL     1      24.857   1.756  52.820  1.00  0.00     0.035 C 
HETATM   10  C19 UNL     1      24.784   0.345  53.331  1.00  0.00     0.043 C 
ENDROOT
BRANCH   7  11
HETATM   11  C8  UNL     1      21.941   2.056  50.572  1.00  0.00     0.176 A 
HETATM   12  N2  UNL     1      21.161   2.892  50.544  1.00  0.00    -0.200 NA
HETATM   13  C9  UNL     1      20.274   3.214  49.631  1.00  0.00     0.171 A 
HETATM   14  C10 UNL     1      20.281   2.437  48.554  1.00  0.00     0.111 A 
HETATM   15  S1  UNL     1      21.623   1.213  48.902  1.00  0.00    -0.059 SA
BRANCH  13  16
HETATM   16  O2  UNL     1      19.441   4.323  49.902  1.00  0.00    -0.344 OA
HETATM   17  H7  UNL     1      19.613   4.949  50.674  1.00  0.00     0.219 HD
ENDBRANCH  13  16
ENDBRANCH   7  11
BRANCH   8  18
HETATM   18  C12 UNL     1      24.942   2.866  50.731  1.00  0.00    -0.035 A 
HETATM   19  C13 UNL     1      26.125   2.797  49.989  1.00  0.00     0.010 A 
HETATM   20  C14 UNL     1      26.725   3.871  49.364  1.00  0.00     0.019 A 
HETATM   21  C15 UNL     1      26.138   5.099  49.461  1.00  0.00     0.011 A 
HETATM   22 BR1  UNL     1      26.974   6.570  48.592  1.00  0.00    -0.051 Br
HETATM   23  C16 UNL     1      24.953   5.255  50.185  1.00  0.00     0.019 A 
HETATM   24  C17 UNL     1      24.431   4.122  50.774  1.00  0.00     0.010 A 
ENDBRANCH   8  18
BRANCH   1  25
HETATM   25  O1  UNL     1      19.267  -0.856  53.478  1.00  0.00    -0.356 OA
HETATM   26  C1  UNL     1      18.452  -0.512  52.389  1.00  0.00     0.210 C 
ENDBRANCH   1  25
TORSDOF 4
ENDMDL
MODEL 4
REMARK VINA RESULT:      -7.8      3.678      5.683
REMARK  4 active torsions:
REMARK  status: ('A' for Active; 'I' for Inactive)
REMARK    1  A    between atoms: O1_2  and  C2_3 
REMARK    2  A    between atoms: N1_9  and  C8_10 
REMARK    3  A    between atoms: C9_12  and  O2_13 
REMARK    4  A    between atoms: C11_16  and  C12_17 
ROOT
HETATM    1  C2  UNL     1      22.924   0.036  53.287  1.00  0.00     0.070 A 
HETATM    2  C3  UNL     1      24.037  -0.672  53.663  1.00  0.00     0.037 A 
HETATM    3  C4  UNL     1      25.280  -0.344  53.172  1.00  0.00     0.012 A 
HETATM    4  C5  UNL     1      25.412   0.708  52.289  1.00  0.00    -0.031 A 
HETATM    5  C6  UNL     1      24.322   1.467  51.866  1.00  0.00     0.046 A 
HETATM    6  C7  UNL     1      23.116   1.076  52.404  1.00  0.00     0.067 A 
HETATM    7  N1  UNL     1      24.447   2.562  50.953  1.00  0.00    -0.316 N 
HETATM    8  C11 UNL     1      25.727   2.803  50.429  1.00  0.00     0.125 C 
HETATM    9  C18 UNL     1      26.737   2.542  51.561  1.00  0.00     0.035 C 
HETATM   10  C19 UNL     1      26.777   1.053  51.760  1.00  0.00     0.043 C 
ENDROOT
BRANCH   7  11
HETATM   11  C8  UNL     1      23.210   3.247  50.721  1.00  0.00     0.176 A 
HETATM   12  N2  UNL     1      22.370   3.349  49.953  1.00  0.00    -0.200 NA
HETATM   13  C9  UNL     1      21.276   4.077  49.960  1.00  0.00     0.171 A 
HETATM   14  C10 UNL     1      21.117   4.825  51.046  1.00  0.00     0.111 A 
HETATM   15  S1  UNL     1      22.609   4.441  52.069  1.00  0.00    -0.059 SA
BRANCH  13  16
HETATM   16  O2  UNL     1      20.425   3.976  48.836  1.00  0.00    -0.344 OA
HETATM   17  H7  UNL     1      19.971   3.112  48.581  1.00  0.00     0.219 HD
ENDBRANCH  13  16
ENDBRANCH   7  11
BRANCH   8  18
HETATM   18  C12 UNL     1      26.089   4.073  49.875  1.00  0.00    -0.035 A 
HETATM   19  C13 UNL     1      27.188   4.231  49.026  1.00  0.00     0.010 A 
HETATM   20  C14 UNL     1      27.584   5.430  48.468  1.00  0.00     0.019 A 
HETATM   21  C15 UNL     1      26.865   6.554  48.749  1.00  0.00     0.011 A 
HETATM   22 BR1  UNL     1      27.420   8.199  47.970  1.00  0.00    -0.051 Br
HETATM   23  C16 UNL     1      25.751   6.483  49.590  1.00  0.00     0.019 A 
HETATM   24  C17 UNL     1      25.436   5.241  50.100  1.00  0.00     0.010 A 
ENDBRANCH   8  18
BRANCH   1  25
HETATM   25  O1  UNL     1      21.669  -0.276  53.769  1.00  0.00    -0.356 OA
HETATM   26  C1  UNL     1      21.478  -1.409  54.574  1.00  0.00     0.210 C 
ENDBRANCH   1  25
TORSDOF 4
ENDMDL
MODEL 5
REMARK VINA RESULT:      -7.7      2.980      4.932
REMARK  4 active torsions:
REMARK  status: ('A' for Active; 'I' for Inactive)
REMARK    1  A    between atoms: O1_2  and  C2_3 
REMARK    2  A    between atoms: N1_9  and  C8_10 
REMARK    3  A    between atoms: C9_12  and  O2_13 
REMARK    4  A    between atoms: C11_16  and  C12_17 
ROOT
HETATM    1  C2  UNL     1      23.495  -0.754  54.394  1.00  0.00     0.070 A 
HETATM    2  C3  UNL     1      24.819  -1.015  54.639  1.00  0.00     0.037 A 
HETATM    3  C4  UNL     1      25.805  -0.412  53.892  1.00  0.00     0.012 A 
HETATM    4  C5  UNL     1      25.462   0.464  52.883  1.00  0.00    -0.031 A 
HETATM    5  C6  UNL     1      24.136   0.772  52.582  1.00  0.00     0.046 A 
HETATM    6  C7  UNL     1      23.212   0.129  53.375  1.00  0.00     0.067 A 
HETATM    7  N1  UNL     1      23.768   1.681  51.540  1.00  0.00    -0.316 N 
HETATM    8  C11 UNL     1      24.813   2.207  50.765  1.00  0.00     0.125 C 
HETATM    9  C18 UNL     1      25.998   2.463  51.714  1.00  0.00     0.035 C 
HETATM   10  C19 UNL     1      26.552   1.113  52.074  1.00  0.00     0.043 C 
ENDROOT
BRANCH   7  11
HETATM   11  C8  UNL     1      22.356   1.907  51.462  1.00  0.00     0.176 A 
HETATM   12  N2  UNL     1      21.522   2.550  51.909  1.00  0.00    -0.200 NA
HETATM   13  C9  UNL     1      20.232   2.582  51.665  1.00  0.00     0.171 A 
HETATM   14  C10 UNL     1      19.822   1.720  50.741  1.00  0.00     0.111 A 
HETATM   15  S1  UNL     1      21.371   0.852  50.228  1.00  0.00    -0.059 SA
BRANCH  13  16
HETATM   16  O2  UNL     1      19.458   3.509  52.399  1.00  0.00    -0.344 OA
HETATM   17  H7  UNL     1      19.005   3.264  53.266  1.00  0.00     0.219 HD
ENDBRANCH  13  16
ENDBRANCH   7  11
BRANCH   8  18
HETATM   18  C12 UNL     1      24.659   3.414  50.009  1.00  0.00    -0.035 A 
HETATM   19  C13 UNL     1      25.581   4.463  50.080  1.00  0.00     0.010 A 
HETATM   20  C14 UNL     1      25.480   5.646  49.378  1.00  0.00     0.019 A 
HETATM   21  C15 UNL     1      24.413   5.828  48.548  1.00  0.00     0.011 A 
HETATM   22 BR1  UNL     1      24.288   7.464  47.583  1.00  0.00    -0.051 Br
HETATM   23  C16 UNL     1      23.445   4.829  48.419  1.00  0.00     0.019 A 
HETATM   24  C17 UNL     1      23.633   3.682  49.162  1.00  0.00     0.010 A 
ENDBRANCH   8  18
BRANCH   1  25
HETATM   25  O1  UNL     1      22.490  -1.347  55.132  1.00  0.00    -0.356 OA
HETATM   26  C1  UNL     1      21.259  -1.655  54.535  1.00  0.00     0.210 C 
ENDBRANCH   1  25
TORSDOF 4
ENDMDL
MODEL 6
REMARK VINA RESULT:      -7.4      3.647      6.398
REMARK  4 active torsions:
REMARK  status: ('A' for Active; 'I' for Inactive)
REMARK    1  A    between atoms: O1_2  and  C2_3 
REMARK    2  A    between atoms: N1_9  and  C8_10 
REMARK    3  A    between atoms: C9_12  and  O2_13 
REMARK    4  A    between atoms: C11_16  and  C12_17 
ROOT
HETATM    1  C2  UNL     1      18.247   0.228  52.058  1.00  0.00     0.070 A 
HETATM    2  C3  UNL     1      18.046  -0.796  52.946  1.00  0.00     0.037 A 
HETATM    3  C4  UNL     1      19.107  -1.382  53.598  1.00  0.00     0.012 A 
HETATM    4  C5  UNL     1      20.390  -0.936  53.357  1.00  0.00    -0.031 A 
HETATM    5  C6  UNL     1      20.664   0.101  52.466  1.00  0.00     0.046 A 
HETATM    6  C7  UNL     1      19.549   0.632  51.857  1.00  0.00     0.067 A 
HETATM    7  N1  UNL     1      21.990   0.574  52.209  1.00  0.00    -0.316 N 
HETATM    8  C11 UNL     1      23.037  -0.110  52.847  1.00  0.00     0.125 C 
HETATM    9  C18 UNL     1      22.543  -0.484  54.256  1.00  0.00     0.035 C 
HETATM   10  C19 UNL     1      21.540  -1.588  54.076  1.00  0.00     0.043 C 
ENDROOT
BRANCH   7  11
HETATM   11  C8  UNL     1      22.026   1.696  51.320  1.00  0.00     0.176 A 
HETATM   12  N2  UNL     1      22.097   2.838  51.316  1.00  0.00    -0.200 NA
HETATM   13  C9  UNL     1      22.115   3.698  50.324  1.00  0.00     0.171 A 
HETATM   14  C10 UNL     1      22.037   3.151  49.116  1.00  0.00     0.111 A 
HETATM   15  S1  UNL     1      21.937   1.337  49.458  1.00  0.00    -0.059 SA
BRANCH  13  16
HETATM   16  O2  UNL     1      22.213   5.068  50.658  1.00  0.00    -0.344 OA
HETATM   17  H7  UNL     1      22.498   5.379  51.574  1.00  0.00     0.219 HD
ENDBRANCH  13  16
ENDBRANCH   7  11
BRANCH   8  18
HETATM   18  C12 UNL     1      24.324   0.488  53.036  1.00  0.00    -0.035 A 
HETATM   19  C13 UNL     1      25.512  -0.188  52.743  1.00  0.00     0.010 A 
HETATM   20  C14 UNL     1      26.777   0.339  52.909  1.00  0.00     0.019 A 
HETATM   21  C15 UNL     1      26.902   1.609  53.390  1.00  0.00     0.011 A 
HETATM   22 BR1  UNL     1      28.652   2.323  53.611  1.00  0.00    -0.051 Br
HETATM   23  C16 UNL     1      25.764   2.354  53.708  1.00  0.00     0.019 A 
HETATM   24  C17 UNL     1      24.544   1.741  53.509  1.00  0.00     0.010 A 
ENDBRANCH   8  18
BRANCH   1  25
HETATM   25  O1  UNL     1      17.197   0.830  51.394  1.00  0.00    -0.356 OA
HETATM   26  C1  UNL     1      17.231   0.981  50.000  1.00  0.00     0.210 C 
ENDBRANCH   1  25
TORSDOF 4
ENDMDL
MODEL 7
REMARK VINA RESULT:      -7.3      2.383      2.831
REMARK  4 active torsions:
REMARK  status: ('A' for Active; 'I' for Inactive)
REMARK    1  A    between atoms: O1_2  and  C2_3 
REMARK    2  A    between atoms: N1_9  and  C8_10 
REMARK    3  A    between atoms: C9_12  and  O2_13 
REMARK    4  A    between atoms: C11_16  and  C12_17 
ROOT
HETATM    1  C2  UNL     1      25.210   0.068  53.172  1.00  0.00     0.070 A 
HETATM    2  C3  UNL     1      24.976  -0.686  54.293  1.00  0.00     0.037 A 
HETATM    3  C4  UNL     1      23.694  -0.897  54.745  1.00  0.00     0.012 A 
HETATM    4  C5  UNL     1      22.628  -0.345  54.065  1.00  0.00    -0.031 A 
HETATM    5  C6  UNL     1      22.796   0.431  52.919  1.00  0.00     0.046 A 
HETATM    6  C7  UNL     1      24.109   0.594  52.534  1.00  0.00     0.067 A 
HETATM    7  N1  UNL     1      21.699   1.006  52.203  1.00  0.00    -0.316 N 
HETATM    8  C11 UNL     1      20.421   0.818  52.753  1.00  0.00     0.125 C 
HETATM    9  C18 UNL     1      20.382  -0.607  53.334  1.00  0.00     0.035 C 
HETATM   10  C19 UNL     1      21.232  -0.584  54.572  1.00  0.00     0.043 C 
ENDROOT
BRANCH   7  11
HETATM   11  C8  UNL     1      22.101   1.697  51.015  1.00  0.00     0.176 A 
HETATM   12  N2  UNL     1      22.234   1.545  49.889  1.00  0.00    -0.200 NA
HETATM   13  C9  UNL     1      22.635   2.370  48.949  1.00  0.00     0.171 A 
HETATM   14  C10 UNL     1      22.938   3.591  49.376  1.00  0.00     0.111 A 
HETATM   15  S1  UNL     1      22.623   3.513  51.195  1.00  0.00    -0.059 SA
BRANCH  13  16
HETATM   16  O2  UNL     1      22.692   1.867  47.629  1.00  0.00    -0.344 OA
HETATM   17  H7  UNL     1      21.897   1.889  47.010  1.00  0.00     0.219 HD
ENDBRANCH  13  16
ENDBRANCH   7  11
BRANCH   8  18
HETATM   18  C12 UNL     1      19.233   0.944  51.962  1.00  0.00    -0.035 A 
HETATM   19  C13 UNL     1      18.643   2.182  51.692  1.00  0.00     0.010 A 
HETATM   20  C14 UNL     1      17.500   2.361  50.940  1.00  0.00     0.019 A 
HETATM   21  C15 UNL     1      16.885   1.265  50.410  1.00  0.00     0.011 A 
HETATM   22 BR1  UNL     1      15.312   1.526  49.372  1.00  0.00    -0.051 Br
HETATM   23  C16 UNL     1      17.410  -0.011  50.632  1.00  0.00     0.019 A 
HETATM   24  C17 UNL     1      18.555  -0.087  51.397  1.00  0.00     0.010 A 
ENDBRANCH   8  18
BRANCH   1  25
HETATM   25  O1  UNL     1      26.489   0.291  52.701  1.00  0.00    -0.356 OA
HETATM   26  C1  UNL     1      27.461  -0.717  52.782  1.00  0.00     0.210 C 
ENDBRANCH   1  25
TORSDOF 4
ENDMDL
MODEL 8
REMARK VINA RESULT:      -7.2      2.645      3.090
REMARK  4 active torsions:
REMARK  status: ('A' for Active; 'I' for Inactive)
REMARK    1  A    between atoms: O1_2  and  C2_3 
REMARK    2  A    between atoms: N1_9  and  C8_10 
REMARK    3  A    between atoms: C9_12  and  O2_13 
REMARK    4  A    between atoms: C11_16  and  C12_17 
ROOT
HETATM    1  C2  UNL     1      25.333   1.896  53.365  1.00  0.00     0.070 A 
HETATM    2  C3  UNL     1      24.811   0.635  53.502  1.00  0.00     0.037 A 
HETATM    3  C4  UNL     1      23.714   0.243  52.769  1.00  0.00     0.012 A 
HETATM    4  C5  UNL     1      23.130   1.126  51.885  1.00  0.00    -0.031 A 
HETATM    5  C6  UNL     1      23.610   2.420  51.698  1.00  0.00     0.046 A 
HETATM    6  C7  UNL     1      24.708   2.734  52.467  1.00  0.00     0.067 A 
HETATM    7  N1  UNL     1      23.013   3.344  50.781  1.00  0.00    -0.316 N 
HETATM    8  C11 UNL     1      21.854   2.913  50.117  1.00  0.00     0.125 C 
HETATM    9  C18 UNL     1      22.047   1.421  49.789  1.00  0.00     0.035 C 
HETATM   10  C19 UNL     1      21.930   0.682  51.092  1.00  0.00     0.043 C 
ENDROOT
BRANCH   7  11
HETATM   11  C8  UNL     1      23.719   4.588  50.695  1.00  0.00     0.176 A 
HETATM   12  N2  UNL     1      23.741   5.641  51.139  1.00  0.00    -0.200 NA
HETATM   13  C9  UNL     1      24.524   6.667  50.890  1.00  0.00     0.171 A 
HETATM   14  C10 UNL     1      25.450   6.444  49.965  1.00  0.00     0.111 A 
HETATM   15  S1  UNL     1      25.155   4.691  49.457  1.00  0.00    -0.059 SA
BRANCH  13  16
HETATM   16  O2  UNL     1      24.288   7.852  51.624  1.00  0.00    -0.344 OA
HETATM   17  H7  UNL     1      23.962   8.699  51.186  1.00  0.00     0.219 HD
ENDBRANCH  13  16
ENDBRANCH   7  11
BRANCH   8  18
HETATM   18  C12 UNL     1      21.414   3.521  48.897  1.00  0.00    -0.035 A 
HETATM   19  C13 UNL     1      21.988   3.213  47.660  1.00  0.00     0.010 A 
HETATM   20  C14 UNL     1      21.606   3.770  46.456  1.00  0.00     0.019 A 
HETATM   21  C15 UNL     1      20.596   4.686  46.448  1.00  0.00     0.011 A 
HETATM   22 BR1  UNL     1      20.077   5.443  44.781  1.00  0.00    -0.051 Br
HETATM   23  C16 UNL     1      19.968   5.050  47.642  1.00  0.00     0.019 A 
HETATM   24  C17 UNL     1      20.421   4.439  48.793  1.00  0.00     0.010 A 
ENDBRANCH   8  18
BRANCH   1  25
HETATM   25  O1  UNL     1      26.432   2.309  54.089  1.00  0.00    -0.356 OA
HETATM   26  C1  UNL     1      27.729   1.994  53.654  1.00  0.00     0.210 C 
ENDBRANCH   1  25
TORSDOF 4
ENDMDL
MODEL 9
REMARK VINA RESULT:      -7.1      2.581      3.118
REMARK  4 active torsions:
REMARK  status: ('A' for Active; 'I' for Inactive)
REMARK    1  A    between atoms: O1_2  and  C2_3 
REMARK    2  A    between atoms: N1_9  and  C8_10 
REMARK    3  A    between atoms: C9_12  and  O2_13 
REMARK    4  A    between atoms: C11_16  and  C12_17 
ROOT
HETATM    1  C2  UNL     1      26.105   2.474  50.982  1.00  0.00     0.070 A 
HETATM    2  C3  UNL     1      26.779   1.653  51.848  1.00  0.00     0.037 A 
HETATM    3  C4  UNL     1      26.097   0.801  52.687  1.00  0.00     0.012 A 
HETATM    4  C5  UNL     1      24.718   0.772  52.660  1.00  0.00    -0.031 A 
HETATM    5  C6  UNL     1      23.972   1.581  51.805  1.00  0.00     0.046 A 
HETATM    6  C7  UNL     1      24.729   2.402  50.999  1.00  0.00     0.067 A 
HETATM    7  N1  UNL     1      22.542   1.557  51.765  1.00  0.00    -0.316 N 
HETATM    8  C11 UNL     1      21.900   0.723  52.695  1.00  0.00     0.125 C 
HETATM    9  C18 UNL     1      22.751  -0.553  52.823  1.00  0.00     0.035 C 
HETATM   10  C19 UNL     1      23.987  -0.163  53.584  1.00  0.00     0.043 C 
ENDROOT
BRANCH   7  11
HETATM   11  C8  UNL     1      21.991   2.412  50.757  1.00  0.00     0.176 A 
HETATM   12  N2  UNL     1      21.523   3.446  50.612  1.00  0.00    -0.200 NA
HETATM   13  C9  UNL     1      21.071   4.046  49.535  1.00  0.00     0.171 A 
HETATM   14  C10 UNL     1      21.174   3.332  48.420  1.00  0.00     0.111 A 
HETATM   15  S1  UNL     1      21.952   1.750  48.978  1.00  0.00    -0.059 SA
BRANCH  13  16
HETATM   16  O2  UNL     1      20.545   5.348  49.693  1.00  0.00    -0.344 OA
HETATM   17  H7  UNL     1      19.564   5.550  49.572  1.00  0.00     0.219 HD
ENDBRANCH  13  16
ENDBRANCH   7  11
BRANCH   8  18
HETATM   18  C12 UNL     1      20.555   0.270  52.499  1.00  0.00    -0.035 A 
HETATM   19  C13 UNL     1      19.892  -0.528  53.437  1.00  0.00     0.010 A 
HETATM   20  C14 UNL     1      18.601  -0.994  53.299  1.00  0.00     0.019 A 
HETATM   21  C15 UNL     1      17.901  -0.665  52.176  1.00  0.00     0.011 A 
HETATM   22 BR1  UNL     1      16.120  -1.312  52.000  1.00  0.00    -0.051 Br
HETATM   23  C16 UNL     1      18.490   0.129  51.188  1.00  0.00     0.019 A 
HETATM   24  C17 UNL     1      19.785   0.546  51.417  1.00  0.00     0.010 A 
ENDBRANCH   8  18
BRANCH   1  25
HETATM   25  O1  UNL     1      26.769   3.335  50.132  1.00  0.00    -0.356 OA
HETATM   26  C1  UNL     1      26.136   4.493  49.657  1.00  0.00     0.210 C 
ENDBRANCH   1  25
TORSDOF 4
ENDMDL
