MODEL 1
REMARK VINA RESULT:      -7.8      0.000      0.000
REMARK  0 active torsions:
REMARK  status: ('A' for Active; 'I' for Inactive)
ROOT
HETATM    1  C1  UNL     1      28.448  -2.850  53.078  1.00  0.00     0.016 C 
HETATM    2  C2  UNL     1      28.334  -1.377  52.666  1.00  0.00     0.022 C 
HETATM    3  C3  UNL     1      28.551  -0.520  53.861  1.00  0.00    -0.016 C 
HETATM    4  C4  UNL     1      28.550   0.851  54.015  1.00  0.00    -0.058 A 
HETATM    5  C5  UNL     1      28.655   2.164  54.702  1.00  0.00     0.065 A 
HETATM    6  C6  UNL     1      28.663   2.137  53.205  1.00  0.00     0.117 A 
HETATM    7  N1  UNL     1      27.290   2.279  52.684  1.00  0.00    -0.358 N 
HETATM    8  C7  UNL     1      26.250   1.610  52.091  1.00  0.00     0.156 C 
HETATM    9  N2  UNL     1      25.142   1.340  51.564  1.00  0.00    -0.235 NA
HETATM   10  C8  UNL     1      24.333   2.672  51.564  1.00  0.00     0.082 A 
HETATM   11  C9  UNL     1      24.239   1.513  52.093  1.00  0.00     0.208 A 
HETATM   12  C10 UNL     1      23.565   0.662  52.890  1.00  0.00    -0.084 C 
HETATM   13  C11 UNL     1      23.025  -0.052  53.546  1.00  0.00    -0.101 C 
HETATM   14  C12 UNL     1      22.346  -0.975  54.413  1.00  0.00     0.122 C 
HETATM   15  C13 UNL     1      23.242  -1.110  55.676  1.00  0.00    -0.004 C 
HETATM   16  C14 UNL     1      24.474  -1.176  55.074  1.00  0.00     0.047 C 
HETATM   17  N3  UNL     1      25.834  -1.254  54.499  1.00  0.00    -0.295 NA
HETATM   18  C15 UNL     1      25.938  -0.481  53.410  1.00  0.00     0.353 C 
HETATM   19  N4  UNL     1      26.502   0.147  52.287  1.00  0.00    -0.335 N 
HETATM   20  C16 UNL     1      26.940  -1.160  52.014  1.00  0.00     0.135 C 
HETATM   21  H9  UNL     1      26.662   3.182  52.624  1.00  0.00     0.162 HD
ENDROOT
TORSDOF 0
ENDMDL
MODEL 2
REMARK VINA RESULT:      -7.7      1.583      4.329
REMARK  0 active torsions:
REMARK  status: ('A' for Active; 'I' for Inactive)
ROOT
HETATM    1  C1  UNL     1      29.201   2.108  54.207  1.00  0.00     0.016 C 
HETATM    2  C2  UNL     1      27.994   1.162  54.254  1.00  0.00     0.022 C 
HETATM    3  C3  UNL     1      28.098   0.185  53.140  1.00  0.00    -0.016 C 
HETATM    4  C4  UNL     1      27.276  -0.855  52.756  1.00  0.00    -0.058 A 
HETATM    5  C5  UNL     1      26.792  -2.011  51.958  1.00  0.00     0.065 A 
HETATM    6  C6  UNL     1      26.156  -1.742  53.286  1.00  0.00     0.117 A 
HETATM    7  N1  UNL     1      24.982  -0.863  53.122  1.00  0.00    -0.358 N 
HETATM    8  C7  UNL     1      24.509   0.409  53.312  1.00  0.00     0.156 C 
HETATM    9  N2  UNL     1      23.764   1.420  53.343  1.00  0.00    -0.235 NA
HETATM   10  C8  UNL     1      22.398   0.963  52.749  1.00  0.00     0.082 A 
HETATM   11  C9  UNL     1      23.324   1.791  52.451  1.00  0.00     0.208 A 
HETATM   12  C10 UNL     1      23.808   2.724  51.609  1.00  0.00    -0.084 C 
HETATM   13  C11 UNL     1      24.224   3.492  50.925  1.00  0.00    -0.101 C 
HETATM   14  C12 UNL     1      24.783   4.469  50.031  1.00  0.00     0.122 C 
HETATM   15  C13 UNL     1      25.982   3.770  49.332  1.00  0.00    -0.004 C 
HETATM   16  C14 UNL     1      26.525   3.119  50.413  1.00  0.00     0.047 C 
HETATM   17  N3  UNL     1      27.167   2.388  51.527  1.00  0.00    -0.295 NA
HETATM   18  C15 UNL     1      26.252   1.935  52.391  1.00  0.00     0.353 C 
HETATM   19  N4  UNL     1      25.701   1.294  53.514  1.00  0.00    -0.335 N 
HETATM   20  C16 UNL     1      26.700   2.021  54.182  1.00  0.00     0.135 C 
HETATM   21  H9  UNL     1      23.980  -1.112  52.737  1.00  0.00     0.162 HD
ENDROOT
TORSDOF 0
ENDMDL
MODEL 3
REMARK VINA RESULT:      -7.3      3.027      6.089
REMARK  0 active torsions:
REMARK  status: ('A' for Active; 'I' for Inactive)
ROOT
HETATM    1  C1  UNL     1      19.789  -0.609  53.378  1.00  0.00     0.016 C 
HETATM    2  C2  UNL     1      19.909   0.630  52.482  1.00  0.00     0.022 C 
HETATM    3  C3  UNL     1      20.497   0.232  51.178  1.00  0.00    -0.016 C 
HETATM    4  C4  UNL     1      20.804   0.966  50.050  1.00  0.00    -0.058 A 
HETATM    5  C5  UNL     1      21.294   1.248  48.676  1.00  0.00     0.065 A 
HETATM    6  C6  UNL     1      20.495   2.300  49.381  1.00  0.00     0.117 A 
HETATM    7  N1  UNL     1      21.389   3.213  50.118  1.00  0.00    -0.358 N 
HETATM    8  C7  UNL     1      21.834   3.569  51.365  1.00  0.00     0.156 C 
HETATM    9  N2  UNL     1      22.437   4.146  52.304  1.00  0.00    -0.235 NA
HETATM   10  C8  UNL     1      23.331   5.233  51.635  1.00  0.00     0.082 A 
HETATM   11  C9  UNL     1      23.498   4.172  52.326  1.00  0.00     0.208 A 
HETATM   12  C10 UNL     1      24.340   3.300  52.914  1.00  0.00    -0.084 C 
HETATM   13  C11 UNL     1      25.018   2.570  53.401  1.00  0.00    -0.101 C 
HETATM   14  C12 UNL     1      25.890   1.605  54.014  1.00  0.00     0.122 C 
HETATM   15  C13 UNL     1      25.785   0.323  53.142  1.00  0.00    -0.004 C 
HETATM   16  C14 UNL     1      24.429   0.306  52.925  1.00  0.00     0.047 C 
HETATM   17  N3  UNL     1      22.979   0.221  52.649  1.00  0.00    -0.295 NA
HETATM   18  C15 UNL     1      22.447   1.441  52.508  1.00  0.00     0.353 C 
HETATM   19  N4  UNL     1      21.487   2.445  52.291  1.00  0.00    -0.335 N 
HETATM   20  C16 UNL     1      20.764   1.691  53.231  1.00  0.00     0.135 C 
HETATM   21  H9  UNL     1      22.030   4.020  49.727  1.00  0.00     0.162 HD
ENDROOT
TORSDOF 0
ENDMDL
MODEL 4
REMARK VINA RESULT:      -7.3      1.933      4.596
REMARK  0 active torsions:
REMARK  status: ('A' for Active; 'I' for Inactive)
ROOT
HETATM    1  C1  UNL     1      22.225   4.871  52.276  1.00  0.00     0.016 C 
HETATM    2  C2  UNL     1      23.717   4.519  52.228  1.00  0.00     0.022 C 
HETATM    3  C3  UNL     1      24.007   3.803  50.959  1.00  0.00    -0.016 C 
HETATM    4  C4  UNL     1      25.180   3.284  50.449  1.00  0.00    -0.058 A 
HETATM    5  C5  UNL     1      26.085   2.593  49.495  1.00  0.00     0.065 A 
HETATM    6  C6  UNL     1      26.691   3.376  50.617  1.00  0.00     0.117 A 
HETATM    7  N1  UNL     1      26.912   2.507  51.787  1.00  0.00    -0.358 N 
HETATM    8  C7  UNL     1      26.462   2.198  53.046  1.00  0.00     0.156 C 
HETATM    9  N2  UNL     1      26.339   1.673  54.180  1.00  0.00    -0.235 NA
HETATM   10  C8  UNL     1      27.466   0.602  54.281  1.00  0.00     0.082 A 
HETATM   11  C9  UNL     1      26.189   0.627  54.275  1.00  0.00     0.208 A 
HETATM   12  C10 UNL     1      25.023  -0.046  54.328  1.00  0.00    -0.084 C 
HETATM   13  C11 UNL     1      24.053  -0.583  54.366  1.00  0.00    -0.101 C 
HETATM   14  C12 UNL     1      22.793  -1.273  54.389  1.00  0.00     0.122 C 
HETATM   15  C13 UNL     1      22.222  -1.165  52.948  1.00  0.00    -0.004 C 
HETATM   16  C14 UNL     1      22.529   0.146  52.680  1.00  0.00     0.047 C 
HETATM   17  N3  UNL     1      22.826   1.549  52.319  1.00  0.00    -0.295 NA
HETATM   18  C15 UNL     1      23.991   1.942  52.848  1.00  0.00     0.353 C 
HETATM   19  N4  UNL     1      25.083   2.767  53.169  1.00  0.00    -0.335 N 
HETATM   20  C16 UNL     1      24.059   3.674  53.488  1.00  0.00     0.135 C 
HETATM   21  H9  UNL     1      27.694   1.747  51.948  1.00  0.00     0.162 HD
ENDROOT
TORSDOF 0
ENDMDL
MODEL 5
REMARK VINA RESULT:      -7.2      2.718      5.993
REMARK  0 active torsions:
REMARK  status: ('A' for Active; 'I' for Inactive)
ROOT
HETATM    1  C1  UNL     1      20.811   2.578  52.906  1.00  0.00     0.016 C 
HETATM    2  C2  UNL     1      21.431   3.150  51.625  1.00  0.00     0.022 C 
HETATM    3  C3  UNL     1      21.433   2.099  50.575  1.00  0.00    -0.016 C 
HETATM    4  C4  UNL     1      21.876   2.113  49.268  1.00  0.00    -0.058 A 
HETATM    5  C5  UNL     1      22.166   1.605  47.902  1.00  0.00     0.065 A 
HETATM    6  C6  UNL     1      22.246   3.079  48.150  1.00  0.00     0.117 A 
HETATM    7  N1  UNL     1      23.619   3.460  48.532  1.00  0.00    -0.358 N 
HETATM    8  C7  UNL     1      24.416   3.850  49.578  1.00  0.00     0.156 C 
HETATM    9  N2  UNL     1      25.404   4.215  50.261  1.00  0.00    -0.235 NA
HETATM   10  C8  UNL     1      26.606   4.287  49.272  1.00  0.00     0.082 A 
HETATM   11  C9  UNL     1      26.278   3.615  50.307  1.00  0.00     0.208 A 
HETATM   12  C10 UNL     1      26.581   2.652  51.199  1.00  0.00    -0.084 C 
HETATM   13  C11 UNL     1      26.811   1.859  51.940  1.00  0.00    -0.101 C 
HETATM   14  C12 UNL     1      27.090   0.817  52.890  1.00  0.00     0.122 C 
HETATM   15  C13 UNL     1      26.121  -0.347  52.542  1.00  0.00    -0.004 C 
HETATM   16  C14 UNL     1      24.977   0.375  52.302  1.00  0.00     0.047 C 
HETATM   17  N3  UNL     1      23.708   1.083  52.029  1.00  0.00    -0.295 NA
HETATM   18  C15 UNL     1      23.935   2.261  51.437  1.00  0.00     0.353 C 
HETATM   19  N4  UNL     1      23.683   3.507  50.838  1.00  0.00    -0.335 N 
HETATM   20  C16 UNL     1      22.857   3.666  51.963  1.00  0.00     0.135 C 
HETATM   21  H9  UNL     1      24.513   3.559  47.895  1.00  0.00     0.162 HD
ENDROOT
TORSDOF 0
ENDMDL
MODEL 6
REMARK VINA RESULT:      -7.2      2.959      6.062
REMARK  0 active torsions:
REMARK  status: ('A' for Active; 'I' for Inactive)
ROOT
HETATM    1  C1  UNL     1      22.636   1.964  47.825  1.00  0.00     0.016 C 
HETATM    2  C2  UNL     1      21.686   2.198  49.007  1.00  0.00     0.022 C 
HETATM    3  C3  UNL     1      22.097   3.432  49.724  1.00  0.00    -0.016 C 
HETATM    4  C4  UNL     1      21.573   4.062  50.835  1.00  0.00    -0.058 A 
HETATM    5  C5  UNL     1      21.436   5.077  51.911  1.00  0.00     0.065 A 
HETATM    6  C6  UNL     1      20.306   4.122  51.679  1.00  0.00     0.117 A 
HETATM    7  N1  UNL     1      20.463   2.928  52.531  1.00  0.00    -0.358 N 
HETATM    8  C7  UNL     1      20.793   1.597  52.533  1.00  0.00     0.156 C 
HETATM    9  N2  UNL     1      21.018   0.418  52.902  1.00  0.00    -0.235 NA
HETATM   10  C8  UNL     1      20.761   0.393  54.439  1.00  0.00     0.082 A 
HETATM   11  C9  UNL     1      21.747   0.217  53.646  1.00  0.00     0.208 A 
HETATM   12  C10 UNL     1      23.055  -0.059  53.477  1.00  0.00    -0.084 C 
HETATM   13  C11 UNL     1      24.131  -0.280  53.320  1.00  0.00    -0.101 C 
HETATM   14  C12 UNL     1      25.528  -0.542  53.107  1.00  0.00     0.122 C 
HETATM   15  C13 UNL     1      26.147   0.806  52.644  1.00  0.00    -0.004 C 
HETATM   16  C14 UNL     1      25.164   1.223  51.780  1.00  0.00     0.047 C 
HETATM   17  N3  UNL     1      24.150   1.736  50.835  1.00  0.00    -0.295 NA
HETATM   18  C15 UNL     1      22.915   1.415  51.238  1.00  0.00     0.353 C 
HETATM   19  N4  UNL     1      21.512   1.323  51.249  1.00  0.00    -0.335 N 
HETATM   20  C16 UNL     1      21.718   0.936  49.914  1.00  0.00     0.135 C 
HETATM   21  H9  UNL     1      20.279   2.820  53.613  1.00  0.00     0.162 HD
ENDROOT
TORSDOF 0
ENDMDL
MODEL 7
REMARK VINA RESULT:      -7.0      2.855      5.526
REMARK  0 active torsions:
REMARK  status: ('A' for Active; 'I' for Inactive)
ROOT
HETATM    1  C1  UNL     1      22.780   6.373  51.155  1.00  0.00     0.016 C 
HETATM    2  C2  UNL     1      23.857   5.355  51.553  1.00  0.00     0.022 C 
HETATM    3  C3  UNL     1      24.466   4.788  50.323  1.00  0.00    -0.016 C 
HETATM    4  C4  UNL     1      25.463   3.849  50.145  1.00  0.00    -0.058 A 
HETATM    5  C5  UNL     1      26.409   2.958  49.425  1.00  0.00     0.065 A 
HETATM    6  C6  UNL     1      26.605   3.173  50.893  1.00  0.00     0.117 A 
HETATM    7  N1  UNL     1      25.884   2.142  51.662  1.00  0.00    -0.358 N 
HETATM    8  C7  UNL     1      24.790   1.905  52.454  1.00  0.00     0.156 C 
HETATM    9  N2  UNL     1      23.939   1.342  53.186  1.00  0.00    -0.235 NA
HETATM   10  C8  UNL     1      24.397  -0.142  53.313  1.00  0.00     0.082 A 
HETATM   11  C9  UNL     1      23.401   0.498  52.834  1.00  0.00     0.208 A 
HETATM   12  C10 UNL     1      22.215   0.473  52.196  1.00  0.00    -0.084 C 
HETATM   13  C11 UNL     1      21.239   0.472  51.668  1.00  0.00    -0.101 C 
HETATM   14  C12 UNL     1      19.987   0.482  50.963  1.00  0.00     0.122 C 
HETATM   15  C13 UNL     1      20.296   1.066  49.556  1.00  0.00    -0.004 C 
HETATM   16  C14 UNL     1      21.139   2.089  49.915  1.00  0.00     0.047 C 
HETATM   17  N3  UNL     1      22.053   3.210  50.225  1.00  0.00    -0.295 NA
HETATM   18  C15 UNL     1      22.847   2.907  51.258  1.00  0.00     0.353 C 
HETATM   19  N4  UNL     1      23.842   3.043  52.242  1.00  0.00    -0.335 N 
HETATM   20  C16 UNL     1      23.196   4.274  52.452  1.00  0.00     0.135 C 
HETATM   21  H9  UNL     1      26.152   1.084  51.822  1.00  0.00     0.162 HD
ENDROOT
TORSDOF 0
ENDMDL
MODEL 8
REMARK VINA RESULT:      -7.0      3.378      6.638
REMARK  0 active torsions:
REMARK  status: ('A' for Active; 'I' for Inactive)
ROOT
HETATM    1  C1  UNL     1      25.512   1.455  53.460  1.00  0.00     0.016 C 
HETATM    2  C2  UNL     1      24.108   1.916  53.045  1.00  0.00     0.022 C 
HETATM    3  C3  UNL     1      23.772   1.321  51.725  1.00  0.00    -0.016 C 
HETATM    4  C4  UNL     1      22.646   1.427  50.935  1.00  0.00    -0.058 A 
HETATM    5  C5  UNL     1      21.749   1.205  49.772  1.00  0.00     0.065 A 
HETATM    6  C6  UNL     1      21.178   1.830  51.006  1.00  0.00     0.117 A 
HETATM    7  N1  UNL     1      21.272   3.300  50.926  1.00  0.00    -0.358 N 
HETATM    8  C7  UNL     1      21.936   4.401  51.402  1.00  0.00     0.156 C 
HETATM    9  N2  UNL     1      22.301   5.584  51.609  1.00  0.00    -0.235 NA
HETATM   10  C8  UNL     1      21.397   6.476  50.706  1.00  0.00     0.082 A 
HETATM   11  C9  UNL     1      22.638   6.191  50.807  1.00  0.00     0.208 A 
HETATM   12  C10 UNL     1      23.897   6.352  50.356  1.00  0.00    -0.084 C 
HETATM   13  C11 UNL     1      24.940   6.469  49.996  1.00  0.00    -0.101 C 
HETATM   14  C12 UNL     1      26.291   6.595  49.521  1.00  0.00     0.122 C 
HETATM   15  C13 UNL     1      26.631   5.238  48.842  1.00  0.00    -0.004 C 
HETATM   16  C14 UNL     1      26.072   4.381  49.757  1.00  0.00     0.047 C 
HETATM   17  N3  UNL     1      25.494   3.396  50.697  1.00  0.00    -0.295 NA
HETATM   18  C15 UNL     1      24.364   3.861  51.242  1.00  0.00     0.353 C 
HETATM   19  N4  UNL     1      23.202   3.909  52.032  1.00  0.00    -0.335 N 
HETATM   20  C16 UNL     1      24.092   3.470  53.027  1.00  0.00     0.135 C 
HETATM   21  H9  UNL     1      20.659   4.001  50.336  1.00  0.00     0.162 HD
ENDROOT
TORSDOF 0
ENDMDL
MODEL 9
REMARK VINA RESULT:      -6.9      4.481      7.616
REMARK  0 active torsions:
REMARK  status: ('A' for Active; 'I' for Inactive)
ROOT
HETATM    1  C1  UNL     1      24.259   2.941  53.063  1.00  0.00     0.016 C 
HETATM    2  C2  UNL     1      23.242   3.340  51.985  1.00  0.00     0.022 C 
HETATM    3  C3  UNL     1      23.316   2.369  50.864  1.00  0.00    -0.016 C 
HETATM    4  C4  UNL     1      22.619   2.289  49.675  1.00  0.00    -0.058 A 
HETATM    5  C5  UNL     1      22.203   1.762  48.350  1.00  0.00     0.065 A 
HETATM    6  C6  UNL     1      21.349   2.801  49.007  1.00  0.00     0.117 A 
HETATM    7  N1  UNL     1      21.764   4.150  48.578  1.00  0.00    -0.358 N 
HETATM    8  C7  UNL     1      22.409   5.294  48.972  1.00  0.00     0.156 C 
HETATM    9  N2  UNL     1      22.903   6.449  48.984  1.00  0.00    -0.235 NA
HETATM   10  C8  UNL     1      22.610   7.055  47.579  1.00  0.00     0.082 A 
HETATM   11  C9  UNL     1      23.634   6.728  48.269  1.00  0.00     0.208 A 
HETATM   12  C10 UNL     1      24.974   6.637  48.368  1.00  0.00    -0.084 C 
HETATM   13  C11 UNL     1      26.076   6.550  48.466  1.00  0.00    -0.101 C 
HETATM   14  C12 UNL     1      27.501   6.411  48.592  1.00  0.00     0.122 C 
HETATM   15  C13 UNL     1      27.788   4.885  48.518  1.00  0.00    -0.004 C 
HETATM   16  C14 UNL     1      26.761   4.423  49.305  1.00  0.00     0.047 C 
HETATM   17  N3  UNL     1      25.683   3.851  50.140  1.00  0.00    -0.295 NA
HETATM   18  C15 UNL     1      24.552   4.553  50.007  1.00  0.00     0.353 C 
HETATM   19  N4  UNL     1      23.214   4.947  50.185  1.00  0.00    -0.335 N 
HETATM   20  C16 UNL     1      23.552   4.798  51.541  1.00  0.00     0.135 C 
HETATM   21  H9  UNL     1      21.577   4.660  47.619  1.00  0.00     0.162 HD
ENDROOT
TORSDOF 0
ENDMDL
