MODEL 1
REMARK VINA RESULT:      -7.1      0.000      0.000
REMARK  5 active torsions:
REMARK  status: ('A' for Active; 'I' for Inactive)
REMARK    1  A    between atoms: C2_2  and  C3_3 
REMARK    2  A    between atoms: C5_6  and  N1_7 
REMARK    3  A    between atoms: C8_12  and  C9_13 
REMARK    4  A    between atoms: C10_14  and  C11_15 
REMARK    5  A    between atoms: C12_16  and  C14_18 
ROOT
HETATM    1  N1  UNL     1      26.963   1.043  52.745  1.00  0.00    -0.228 N 
HETATM    2  N2  UNL     1      27.974   0.122  52.465  1.00  0.00    -0.161 NA
HETATM    3  C6  UNL     1      28.450  -0.373  53.556  1.00  0.00     0.127 C 
HETATM    4 CL1  UNL     1      29.726  -1.561  53.725  1.00  0.00    -0.065 Cl
HETATM    5  C7  UNL     1      27.772   0.195  54.769  1.00  0.00     0.114 C 
HETATM    6  C8  UNL     1      26.631   0.953  54.123  1.00  0.00     0.198 C 
ENDROOT
BRANCH   1   7
HETATM    7  C5  UNL     1      26.353   1.946  51.778  1.00  0.00     0.191 A 
HETATM    8  S1  UNL     1      24.638   2.217  51.552  1.00  0.00    -0.060 SA
HETATM    9  C4  UNL     1      24.797   3.420  50.223  1.00  0.00     0.085 A 
HETATM   10  C3  UNL     1      26.220   3.448  50.132  1.00  0.00     0.065 A 
HETATM   11  N3  UNL     1      27.057   2.730  50.887  1.00  0.00    -0.223 NA
BRANCH  10  12
HETATM   12  C2  UNL     1      26.887   4.306  49.161  1.00  0.00     0.022 C 
HETATM   13  C1  UNL     1      26.518   5.536  48.909  1.00  0.00     0.013 C 
ENDBRANCH  10  12
ENDBRANCH   1   7
BRANCH   6  14
HETATM   14  C9  UNL     1      25.385   0.193  54.245  1.00  0.00    -0.074 C 
HETATM   15  C10 UNL     1      24.356  -0.425  54.326  1.00  0.00    -0.076 C 
BRANCH  15  16
HETATM   16  C11 UNL     1      23.119  -1.142  54.410  1.00  0.00     0.067 C 
HETATM   17  C12 UNL     1      21.946  -0.687  54.011  1.00  0.00    -0.066 C 
HETATM   18  C13 UNL     1      20.692  -1.484  54.127  1.00  0.00     0.044 C 
BRANCH  17  19
HETATM   19  C14 UNL     1      21.537   0.603  53.399  1.00  0.00     0.119 C 
HETATM   20 BR1  UNL     1      21.180   0.393  51.519  1.00  0.00    -0.092 Br
ENDBRANCH  17  19
ENDBRANCH  15  16
ENDBRANCH   6  14
TORSDOF 5
ENDMDL
MODEL 2
REMARK VINA RESULT:      -7.1      1.605      1.902
REMARK  5 active torsions:
REMARK  status: ('A' for Active; 'I' for Inactive)
REMARK    1  A    between atoms: C2_2  and  C3_3 
REMARK    2  A    between atoms: C5_6  and  N1_7 
REMARK    3  A    between atoms: C8_12  and  C9_13 
REMARK    4  A    between atoms: C10_14  and  C11_15 
REMARK    5  A    between atoms: C12_16  and  C14_18 
ROOT
HETATM    1  N1  UNL     1      25.883   1.012  52.129  1.00  0.00    -0.228 N 
HETATM    2  N2  UNL     1      26.610  -0.112  51.731  1.00  0.00    -0.161 NA
HETATM    3  C6  UNL     1      26.703  -0.957  52.701  1.00  0.00     0.127 C 
HETATM    4 CL1  UNL     1      27.514  -2.510  52.692  1.00  0.00    -0.065 Cl
HETATM    5  C7  UNL     1      26.007  -0.467  53.937  1.00  0.00     0.114 C 
HETATM    6  C8  UNL     1      25.285   0.747  53.390  1.00  0.00     0.198 C 
ENDROOT
BRANCH   1   7
HETATM    7  C5  UNL     1      25.762   2.251  51.372  1.00  0.00     0.191 A 
HETATM    8  S1  UNL     1      24.430   3.384  51.443  1.00  0.00    -0.060 SA
HETATM    9  C4  UNL     1      25.091   4.551  50.244  1.00  0.00     0.085 A 
HETATM   10  C3  UNL     1      26.308   3.871  49.938  1.00  0.00     0.065 A 
HETATM   11  N3  UNL     1      26.702   2.712  50.472  1.00  0.00    -0.223 NA
BRANCH  10  12
HETATM   12  C2  UNL     1      27.249   4.429  48.973  1.00  0.00     0.022 C 
HETATM   13  C1  UNL     1      27.248   5.685  48.605  1.00  0.00     0.013 C 
ENDBRANCH  10  12
ENDBRANCH   1   7
BRANCH   6  14
HETATM   14  C9  UNL     1      23.870   0.439  53.169  1.00  0.00    -0.074 C 
HETATM   15  C10 UNL     1      22.713   0.166  52.985  1.00  0.00    -0.076 C 
BRANCH  15  16
HETATM   16  C11 UNL     1      21.343  -0.176  52.749  1.00  0.00     0.067 C 
HETATM   17  C12 UNL     1      20.526   0.466  51.935  1.00  0.00    -0.066 C 
HETATM   18  C13 UNL     1      19.107   0.060  51.733  1.00  0.00     0.044 C 
BRANCH  17  19
HETATM   19  C14 UNL     1      20.723   1.654  51.064  1.00  0.00     0.119 C 
HETATM   20 BR1  UNL     1      21.456   1.147  49.359  1.00  0.00    -0.092 Br
ENDBRANCH  17  19
ENDBRANCH  15  16
ENDBRANCH   6  14
TORSDOF 5
ENDMDL
MODEL 3
REMARK VINA RESULT:      -7.1      3.913      6.951
REMARK  5 active torsions:
REMARK  status: ('A' for Active; 'I' for Inactive)
REMARK    1  A    between atoms: C2_2  and  C3_3 
REMARK    2  A    between atoms: C5_6  and  N1_7 
REMARK    3  A    between atoms: C8_12  and  C9_13 
REMARK    4  A    between atoms: C10_14  and  C11_15 
REMARK    5  A    between atoms: C12_16  and  C14_18 
ROOT
HETATM    1  N1  UNL     1      22.794   1.235  51.975  1.00  0.00    -0.228 N 
HETATM    2  N2  UNL     1      22.578   1.581  50.640  1.00  0.00    -0.161 NA
HETATM    3  C6  UNL     1      23.328   2.575  50.304  1.00  0.00     0.127 C 
HETATM    4 CL1  UNL     1      23.419   3.367  48.744  1.00  0.00    -0.065 Cl
HETATM    5  C7  UNL     1      24.186   3.038  51.445  1.00  0.00     0.114 C 
HETATM    6  C8  UNL     1      23.936   1.933  52.451  1.00  0.00     0.198 C 
ENDROOT
BRANCH   1   7
HETATM    7  C5  UNL     1      21.978   0.308  52.749  1.00  0.00     0.191 A 
HETATM    8  S1  UNL     1      22.544  -0.769  54.007  1.00  0.00    -0.060 SA
HETATM    9  C4  UNL     1      20.943  -1.496  54.387  1.00  0.00     0.085 A 
HETATM   10  C3  UNL     1      20.153  -0.773  53.443  1.00  0.00     0.065 A 
HETATM   11  N3  UNL     1      20.616   0.147  52.593  1.00  0.00    -0.223 NA
BRANCH  10  12
HETATM   12  C2  UNL     1      18.718  -1.004  53.343  1.00  0.00     0.022 C 
HETATM   13  C1  UNL     1      18.153  -2.163  53.570  1.00  0.00     0.013 C 
ENDBRANCH  10  12
ENDBRANCH   1   7
BRANCH   6  14
HETATM   14  C9  UNL     1      25.066   1.001  52.470  1.00  0.00    -0.074 C 
HETATM   15  C10 UNL     1      25.999   0.243  52.505  1.00  0.00    -0.076 C 
BRANCH  15  16
HETATM   16  C11 UNL     1      27.123  -0.643  52.558  1.00  0.00     0.067 C 
HETATM   17  C12 UNL     1      28.139  -0.535  53.395  1.00  0.00    -0.066 C 
HETATM   18  C13 UNL     1      29.283  -1.491  53.400  1.00  0.00     0.044 C 
BRANCH  17  19
HETATM   19  C14 UNL     1      28.443   0.448  54.467  1.00  0.00     0.119 C 
HETATM   20 BR1  UNL     1      28.769   2.195  53.730  1.00  0.00    -0.092 Br
ENDBRANCH  17  19
ENDBRANCH  15  16
ENDBRANCH   6  14
TORSDOF 5
ENDMDL
MODEL 4
REMARK VINA RESULT:      -7.0      1.884      2.377
REMARK  5 active torsions:
REMARK  status: ('A' for Active; 'I' for Inactive)
REMARK    1  A    between atoms: C2_2  and  C3_3 
REMARK    2  A    between atoms: C5_6  and  N1_7 
REMARK    3  A    between atoms: C8_12  and  C9_13 
REMARK    4  A    between atoms: C10_14  and  C11_15 
REMARK    5  A    between atoms: C12_16  and  C14_18 
ROOT
HETATM    1  N1  UNL     1      25.835   1.842  51.659  1.00  0.00    -0.228 N 
HETATM    2  N2  UNL     1      26.656   0.720  51.533  1.00  0.00    -0.161 NA
HETATM    3  C6  UNL     1      26.554  -0.034  52.573  1.00  0.00     0.127 C 
HETATM    4 CL1  UNL     1      27.381  -1.547  52.883  1.00  0.00    -0.065 Cl
HETATM    5  C7  UNL     1      25.593   0.530  53.579  1.00  0.00     0.114 C 
HETATM    6  C8  UNL     1      24.981   1.661  52.780  1.00  0.00     0.198 C 
ENDROOT
BRANCH   1   7
HETATM    7  C5  UNL     1      25.854   3.005  50.781  1.00  0.00     0.191 A 
HETATM    8  S1  UNL     1      24.520   4.095  50.475  1.00  0.00    -0.060 SA
HETATM    9  C4  UNL     1      25.397   5.174  49.333  1.00  0.00     0.085 A 
HETATM   10  C3  UNL     1      26.661   4.512  49.346  1.00  0.00     0.065 A 
HETATM   11  N3  UNL     1      26.953   3.418  50.054  1.00  0.00    -0.223 NA
BRANCH  10  12
HETATM   12  C2  UNL     1      27.771   5.015  48.547  1.00  0.00     0.022 C 
HETATM   13  C1  UNL     1      27.930   6.278  48.242  1.00  0.00     0.013 C 
ENDBRANCH  10  12
ENDBRANCH   1   7
BRANCH   6  14
HETATM   14  C9  UNL     1      23.657   1.276  52.289  1.00  0.00    -0.074 C 
HETATM   15  C10 UNL     1      22.561   0.976  51.894  1.00  0.00    -0.076 C 
BRANCH  15  16
HETATM   16  C11 UNL     1      21.246   0.626  51.446  1.00  0.00     0.067 C 
HETATM   17  C12 UNL     1      20.254   0.239  52.226  1.00  0.00    -0.066 C 
HETATM   18  C13 UNL     1      18.905  -0.113  51.698  1.00  0.00     0.044 C 
BRANCH  17  19
HETATM   19  C14 UNL     1      20.162   0.046  53.697  1.00  0.00     0.119 C 
HETATM   20 BR1  UNL     1      21.183  -1.486  54.257  1.00  0.00    -0.092 Br
ENDBRANCH  17  19
ENDBRANCH  15  16
ENDBRANCH   6  14
TORSDOF 5
ENDMDL
MODEL 5
REMARK VINA RESULT:      -6.9      1.898      5.680
REMARK  5 active torsions:
REMARK  status: ('A' for Active; 'I' for Inactive)
REMARK    1  A    between atoms: C2_2  and  C3_3 
REMARK    2  A    between atoms: C5_6  and  N1_7 
REMARK    3  A    between atoms: C8_12  and  C9_13 
REMARK    4  A    between atoms: C10_14  and  C11_15 
REMARK    5  A    between atoms: C12_16  and  C14_18 
ROOT
HETATM    1  N1  UNL     1      25.356   0.422  53.220  1.00  0.00    -0.228 N 
HETATM    2  N2  UNL     1      26.157   0.542  54.357  1.00  0.00    -0.161 NA
HETATM    3  C6  UNL     1      27.356   0.137  54.110  1.00  0.00     0.127 C 
HETATM    4 CL1  UNL     1      28.717   0.091  55.212  1.00  0.00    -0.065 Cl
HETATM    5  C7  UNL     1      27.506  -0.329  52.692  1.00  0.00     0.114 C 
HETATM    6  C8  UNL     1      26.184   0.121  52.106  1.00  0.00     0.198 C 
ENDROOT
BRANCH   1   7
HETATM    7  C5  UNL     1      23.908   0.581  53.187  1.00  0.00     0.191 A 
HETATM    8  S1  UNL     1      23.033   1.998  52.647  1.00  0.00    -0.060 SA
HETATM    9  C4  UNL     1      21.383   1.342  52.939  1.00  0.00     0.085 A 
HETATM   10  C3  UNL     1      21.753   0.057  53.438  1.00  0.00     0.065 A 
HETATM   11  N3  UNL     1      23.005  -0.384  53.586  1.00  0.00    -0.223 NA
BRANCH  10  12
HETATM   12  C2  UNL     1      20.735  -0.907  53.838  1.00  0.00     0.022 C 
HETATM   13  C1  UNL     1      19.485  -0.838  53.457  1.00  0.00     0.013 C 
ENDBRANCH  10  12
ENDBRANCH   1   7
BRANCH   6  14
HETATM   14  C9  UNL     1      26.367   1.348  51.327  1.00  0.00    -0.074 C 
HETATM   15  C10 UNL     1      26.503   2.365  50.699  1.00  0.00    -0.076 C 
BRANCH  15  16
HETATM   16  C11 UNL     1      26.640   3.580  49.954  1.00  0.00     0.067 C 
HETATM   17  C12 UNL     1      25.660   4.422  49.683  1.00  0.00    -0.066 C 
HETATM   18  C13 UNL     1      25.868   5.673  48.900  1.00  0.00     0.044 C 
BRANCH  17  19
HETATM   19  C14 UNL     1      24.214   4.406  50.022  1.00  0.00     0.119 C 
HETATM   20 BR1  UNL     1      23.248   3.207  48.868  1.00  0.00    -0.092 Br
ENDBRANCH  17  19
ENDBRANCH  15  16
ENDBRANCH   6  14
TORSDOF 5
ENDMDL
MODEL 6
REMARK VINA RESULT:      -6.6      3.824      6.503
REMARK  5 active torsions:
REMARK  status: ('A' for Active; 'I' for Inactive)
REMARK    1  A    between atoms: C2_2  and  C3_3 
REMARK    2  A    between atoms: C5_6  and  N1_7 
REMARK    3  A    between atoms: C8_12  and  C9_13 
REMARK    4  A    between atoms: C10_14  and  C11_15 
REMARK    5  A    between atoms: C12_16  and  C14_18 
ROOT
HETATM    1  N1  UNL     1      22.457   2.472  51.829  1.00  0.00    -0.228 N 
HETATM    2  N2  UNL     1      22.649   2.640  50.456  1.00  0.00    -0.161 NA
HETATM    3  C6  UNL     1      23.214   3.773  50.214  1.00  0.00     0.127 C 
HETATM    4 CL1  UNL     1      23.659   4.435  48.654  1.00  0.00    -0.065 Cl
HETATM    5  C7  UNL     1      23.484   4.543  51.474  1.00  0.00     0.114 C 
HETATM    6  C8  UNL     1      23.163   3.494  52.518  1.00  0.00     0.198 C 
ENDROOT
BRANCH   1   7
HETATM    7  C5  UNL     1      21.662   1.419  52.448  1.00  0.00     0.191 A 
HETATM    8  S1  UNL     1      19.946   1.154  52.232  1.00  0.00    -0.060 SA
HETATM    9  C4  UNL     1      19.825  -0.281  53.310  1.00  0.00     0.085 A 
HETATM   10  C3  UNL     1      21.192  -0.361  53.709  1.00  0.00     0.065 A 
HETATM   11  N3  UNL     1      22.163   0.464  53.309  1.00  0.00    -0.223 NA
BRANCH  10  12
HETATM   12  C2  UNL     1      21.641  -1.404  54.624  1.00  0.00     0.022 C 
HETATM   13  C1  UNL     1      22.764  -1.344  55.294  1.00  0.00     0.013 C 
ENDBRANCH  10  12
ENDBRANCH   1   7
BRANCH   6  14
HETATM   14  C9  UNL     1      24.398   2.916  53.052  1.00  0.00    -0.074 C 
HETATM   15  C10 UNL     1      25.418   2.459  53.498  1.00  0.00    -0.076 C 
BRANCH  15  16
HETATM   16  C11 UNL     1      26.644   1.937  54.023  1.00  0.00     0.067 C 
HETATM   17  C12 UNL     1      26.907   0.657  54.213  1.00  0.00    -0.066 C 
HETATM   18  C13 UNL     1      28.205   0.177  54.765  1.00  0.00     0.044 C 
BRANCH  17  19
HETATM   19  C14 UNL     1      26.102  -0.569  53.976  1.00  0.00     0.119 C 
HETATM   20 BR1  UNL     1      26.768  -1.550  52.461  1.00  0.00    -0.092 Br
ENDBRANCH  17  19
ENDBRANCH  15  16
ENDBRANCH   6  14
TORSDOF 5
ENDMDL
MODEL 7
REMARK VINA RESULT:      -6.6      3.409      5.854
REMARK  5 active torsions:
REMARK  status: ('A' for Active; 'I' for Inactive)
REMARK    1  A    between atoms: C2_2  and  C3_3 
REMARK    2  A    between atoms: C5_6  and  N1_7 
REMARK    3  A    between atoms: C8_12  and  C9_13 
REMARK    4  A    between atoms: C10_14  and  C11_15 
REMARK    5  A    between atoms: C12_16  and  C14_18 
ROOT
HETATM    1  N1  UNL     1      23.743   0.274  53.299  1.00  0.00    -0.228 N 
HETATM    2  N2  UNL     1      23.108  -0.924  53.632  1.00  0.00    -0.161 NA
HETATM    3  C6  UNL     1      21.854  -0.724  53.857  1.00  0.00     0.127 C 
HETATM    4 CL1  UNL     1      20.645  -1.910  54.307  1.00  0.00    -0.065 Cl
HETATM    5  C7  UNL     1      21.481   0.720  53.691  1.00  0.00     0.114 C 
HETATM    6  C8  UNL     1      22.755   1.271  53.085  1.00  0.00     0.198 C 
ENDROOT
BRANCH   1   7
HETATM    7  C5  UNL     1      25.183   0.463  53.191  1.00  0.00     0.191 A 
HETATM    8  S1  UNL     1      26.014   1.987  52.962  1.00  0.00    -0.060 SA
HETATM    9  C4  UNL     1      27.680   1.309  52.942  1.00  0.00     0.085 A 
HETATM   10  C3  UNL     1      27.350  -0.067  53.123  1.00  0.00     0.065 A 
HETATM   11  N3  UNL     1      26.114  -0.555  53.255  1.00  0.00    -0.223 NA
BRANCH  10  12
HETATM   12  C2  UNL     1      28.395  -1.082  53.180  1.00  0.00     0.022 C 
HETATM   13  C1  UNL     1      29.646  -0.817  53.462  1.00  0.00     0.013 C 
ENDBRANCH  10  12
ENDBRANCH   1   7
BRANCH   6  14
HETATM   14  C9  UNL     1      22.593   1.451  51.641  1.00  0.00    -0.074 C 
HETATM   15  C10 UNL     1      22.443   1.587  50.455  1.00  0.00    -0.076 C 
BRANCH  15  16
HETATM   16  C11 UNL     1      22.257   1.724  49.041  1.00  0.00     0.067 C 
HETATM   17  C12 UNL     1      22.505   2.817  48.343  1.00  0.00    -0.066 C 
HETATM   18  C13 UNL     1      22.289   2.897  46.871  1.00  0.00     0.044 C 
BRANCH  17  19
HETATM   19  C14 UNL     1      23.011   4.156  48.740  1.00  0.00     0.119 C 
HETATM   20 BR1  UNL     1      22.440   5.507  47.494  1.00  0.00    -0.092 Br
ENDBRANCH  17  19
ENDBRANCH  15  16
ENDBRANCH   6  14
TORSDOF 5
ENDMDL
MODEL 8
REMARK VINA RESULT:      -6.4      1.653      2.282
REMARK  5 active torsions:
REMARK  status: ('A' for Active; 'I' for Inactive)
REMARK    1  A    between atoms: C2_2  and  C3_3 
REMARK    2  A    between atoms: C5_6  and  N1_7 
REMARK    3  A    between atoms: C8_12  and  C9_13 
REMARK    4  A    between atoms: C10_14  and  C11_15 
REMARK    5  A    between atoms: C12_16  and  C14_18 
ROOT
HETATM    1  N1  UNL     1      25.893   0.877  52.329  1.00  0.00    -0.228 N 
HETATM    2  N2  UNL     1      26.892  -0.045  52.010  1.00  0.00    -0.161 NA
HETATM    3  C6  UNL     1      27.391  -0.560  53.081  1.00  0.00     0.127 C 
HETATM    4 CL1  UNL     1      28.664  -1.758  53.198  1.00  0.00    -0.065 Cl
HETATM    5  C7  UNL     1      26.744  -0.010  54.318  1.00  0.00     0.114 C 
HETATM    6  C8  UNL     1      25.593   0.765  53.713  1.00  0.00     0.198 C 
ENDROOT
BRANCH   1   7
HETATM    7  C5  UNL     1      25.265   1.800  51.393  1.00  0.00     0.191 A 
HETATM    8  S1  UNL     1      26.044   3.136  50.573  1.00  0.00    -0.060 SA
HETATM    9  C4  UNL     1      24.593   3.693  49.667  1.00  0.00     0.085 A 
HETATM   10  C3  UNL     1      23.661   2.724  50.146  1.00  0.00     0.065 A 
HETATM   11  N3  UNL     1      23.938   1.748  51.013  1.00  0.00    -0.223 NA
BRANCH  10  12
HETATM   12  C2  UNL     1      22.275   2.739  49.694  1.00  0.00     0.022 C 
HETATM   13  C1  UNL     1      21.738   1.785  48.976  1.00  0.00     0.013 C 
ENDBRANCH  10  12
ENDBRANCH   1   7
BRANCH   6  14
HETATM   14  C9  UNL     1      24.346   0.010  53.851  1.00  0.00    -0.074 C 
HETATM   15  C10 UNL     1      23.315  -0.603  53.946  1.00  0.00    -0.076 C 
BRANCH  15  16
HETATM   16  C11 UNL     1      22.075  -1.312  54.051  1.00  0.00     0.067 C 
HETATM   17  C12 UNL     1      20.894  -0.837  53.702  1.00  0.00    -0.066 C 
HETATM   18  C13 UNL     1      19.637  -1.627  53.837  1.00  0.00     0.044 C 
BRANCH  17  19
HETATM   19  C14 UNL     1      20.477   0.473  53.138  1.00  0.00     0.119 C 
HETATM   20 BR1  UNL     1      19.127   0.244  51.786  1.00  0.00    -0.092 Br
ENDBRANCH  17  19
ENDBRANCH  15  16
ENDBRANCH   6  14
TORSDOF 5
ENDMDL
MODEL 9
REMARK VINA RESULT:      -6.4      6.008      8.388
REMARK  5 active torsions:
REMARK  status: ('A' for Active; 'I' for Inactive)
REMARK    1  A    between atoms: C2_2  and  C3_3 
REMARK    2  A    between atoms: C5_6  and  N1_7 
REMARK    3  A    between atoms: C8_12  and  C9_13 
REMARK    4  A    between atoms: C10_14  and  C11_15 
REMARK    5  A    between atoms: C12_16  and  C14_18 
ROOT
HETATM    1  N1  UNL     1      30.177   6.987  48.283  1.00  0.00    -0.228 N 
HETATM    2  N2  UNL     1      30.014   8.138  49.056  1.00  0.00    -0.161 NA
HETATM    3  C6  UNL     1      28.938   8.762  48.717  1.00  0.00     0.127 C 
HETATM    4 CL1  UNL     1      28.306  10.250  49.393  1.00  0.00    -0.065 Cl
HETATM    5  C7  UNL     1      28.210   8.057  47.610  1.00  0.00     0.114 C 
HETATM    6  C8  UNL     1      28.984   6.757  47.547  1.00  0.00     0.198 C 
ENDROOT
BRANCH   1   7
HETATM    7  C5  UNL     1      31.377   6.161  48.242  1.00  0.00     0.191 A 
HETATM    8  S1  UNL     1      32.992   6.655  48.700  1.00  0.00    -0.060 SA
HETATM    9  C4  UNL     1      33.793   5.083  48.347  1.00  0.00     0.085 A 
HETATM   10  C3  UNL     1      32.648   4.358  47.902  1.00  0.00     0.065 A 
HETATM   11  N3  UNL     1      31.406   4.844  47.827  1.00  0.00    -0.223 NA
BRANCH  10  12
HETATM   12  C2  UNL     1      32.765   2.968  47.480  1.00  0.00     0.022 C 
HETATM   13  C1  UNL     1      32.016   2.427  46.553  1.00  0.00     0.013 C 
ENDBRANCH  10  12
ENDBRANCH   1   7
BRANCH   6  14
HETATM   14  C9  UNL     1      28.235   5.689  48.213  1.00  0.00    -0.074 C 
HETATM   15  C10 UNL     1      27.604   4.816  48.748  1.00  0.00    -0.076 C 
BRANCH  15  16
HETATM   16  C11 UNL     1      26.832   3.791  49.384  1.00  0.00     0.067 C 
HETATM   17  C12 UNL     1      25.687   3.979  50.013  1.00  0.00    -0.066 C 
HETATM   18  C13 UNL     1      24.930   2.868  50.657  1.00  0.00     0.044 C 
BRANCH  17  19
HETATM   19  C14 UNL     1      24.878   5.201  50.261  1.00  0.00     0.119 C 
HETATM   20 BR1  UNL     1      23.900   5.712  48.684  1.00  0.00    -0.092 Br
ENDBRANCH  17  19
ENDBRANCH  15  16
ENDBRANCH   6  14
TORSDOF 5
ENDMDL
