MODEL 1
REMARK VINA RESULT:      -7.0      0.000      0.000
REMARK  4 active torsions:
REMARK  status: ('A' for Active; 'I' for Inactive)
REMARK    1  A    between atoms: C4_6  and  S1_7 
REMARK    2  A    between atoms: S1_7  and  C5_8 
REMARK    3  A    between atoms: C8_11  and  N3_12 
REMARK    4  A    between atoms: N3_12  and  C9_13 
ROOT
HETATM    1  C5  UNL     1      22.341   0.439  53.347  1.00  0.00     0.030 A 
HETATM    2  C6  UNL     1      23.179   1.411  52.840  1.00  0.00     0.023 A 
HETATM    3  C7  UNL     1      24.550   1.352  52.923  1.00  0.00     0.030 A 
HETATM    4  C8  UNL     1      25.122   0.242  53.558  1.00  0.00     0.030 A 
HETATM    5  C13 UNL     1      24.285  -0.727  54.064  1.00  0.00     0.054 A 
HETATM    6  C14 UNL     1      22.911  -0.651  53.971  1.00  0.00     0.053 A 
HETATM    7 CL1  UNL     1      21.758  -1.809  54.571  1.00  0.00    -0.083 Cl
ENDROOT
BRANCH   1   8
HETATM    8  S1  UNL     1      20.625   0.817  53.076  1.00  0.00    -0.051 SA
BRANCH   8   9
HETATM    9  C4  UNL     1      20.450   2.192  51.981  1.00  0.00     0.172 A 
HETATM   10  N1  UNL     1      20.570   2.261  50.636  1.00  0.00    -0.339 N 
HETATM   11  C1  UNL     1      20.899   1.108  49.804  1.00  0.00     0.158 C 
HETATM   12  C2  UNL     1      20.347   3.526  50.177  1.00  0.00     0.112 A 
HETATM   13  C3  UNL     1      20.077   4.257  51.317  1.00  0.00     0.136 A 
HETATM   14  N2  UNL     1      20.146   3.443  52.373  1.00  0.00    -0.235 NA
ENDBRANCH   8   9
ENDBRANCH   1   8
BRANCH   4  15
HETATM   15  N3  UNL     1      26.510   0.034  53.721  1.00  0.00    -0.377 N 
HETATM   16  H8  UNL     1      26.822   0.381  54.683  1.00  0.00     0.160 HD
BRANCH  15  17
HETATM   17  C9  UNL     1      27.569  -0.509  52.946  1.00  0.00     0.147 A 
HETATM   18  C10 UNL     1      28.935  -0.259  53.475  1.00  0.00     0.022 A 
HETATM   19  C11 UNL     1      29.587  -1.423  53.643  1.00  0.00     0.114 A 
HETATM   20  N4  UNL     1      28.717  -2.505  53.248  1.00  0.00    -0.275 NA
HETATM   21  C12 UNL     1      27.577  -1.989  52.854  1.00  0.00     0.118 A 
ENDBRANCH  15  17
ENDBRANCH   4  15
TORSDOF 4
ENDMDL
MODEL 2
REMARK VINA RESULT:      -6.8      1.262      1.661
REMARK  4 active torsions:
REMARK  status: ('A' for Active; 'I' for Inactive)
REMARK    1  A    between atoms: C4_6  and  S1_7 
REMARK    2  A    between atoms: S1_7  and  C5_8 
REMARK    3  A    between atoms: C8_11  and  N3_12 
REMARK    4  A    between atoms: N3_12  and  C9_13 
ROOT
HETATM    1  C5  UNL     1      22.140   0.268  53.214  1.00  0.00     0.030 A 
HETATM    2  C6  UNL     1      22.981   1.264  52.760  1.00  0.00     0.023 A 
HETATM    3  C7  UNL     1      24.324   1.314  53.045  1.00  0.00     0.030 A 
HETATM    4  C8  UNL     1      24.865   0.296  53.840  1.00  0.00     0.030 A 
HETATM    5  C13 UNL     1      24.025  -0.697  54.293  1.00  0.00     0.054 A 
HETATM    6  C14 UNL     1      22.679  -0.731  53.997  1.00  0.00     0.053 A 
HETATM    7 CL1  UNL     1      21.526  -1.929  54.512  1.00  0.00    -0.083 Cl
ENDROOT
BRANCH   1   8
HETATM    8  S1  UNL     1      20.463   0.497  52.668  1.00  0.00    -0.051 SA
BRANCH   8   9
HETATM    9  C4  UNL     1      20.302   1.997  51.748  1.00  0.00     0.172 A 
HETATM   10  N1  UNL     1      20.501   2.243  50.434  1.00  0.00    -0.339 N 
HETATM   11  C1  UNL     1      20.927   1.219  49.486  1.00  0.00     0.158 C 
HETATM   12  C2  UNL     1      20.256   3.550  50.125  1.00  0.00     0.112 A 
HETATM   13  C3  UNL     1      19.888   4.117  51.329  1.00  0.00     0.136 A 
HETATM   14  N2  UNL     1      19.924   3.176  52.275  1.00  0.00    -0.235 NA
ENDBRANCH   8   9
ENDBRANCH   1   8
BRANCH   4  15
HETATM   15  N3  UNL     1      26.223   0.204  54.219  1.00  0.00    -0.377 N 
HETATM   16  H8  UNL     1      26.302  -0.203  55.203  1.00  0.00     0.160 HD
BRANCH  15  17
HETATM   17  C9  UNL     1      27.480   0.510  53.632  1.00  0.00     0.147 A 
HETATM   18  C10 UNL     1      27.608   1.887  53.089  1.00  0.00     0.022 A 
HETATM   19  C11 UNL     1      28.664   2.508  53.644  1.00  0.00     0.114 A 
HETATM   20  N4  UNL     1      29.297   1.605  54.576  1.00  0.00    -0.275 NA
HETATM   21  C12 UNL     1      28.629   0.477  54.569  1.00  0.00     0.118 A 
ENDBRANCH  15  17
ENDBRANCH   4  15
TORSDOF 4
ENDMDL
MODEL 3
REMARK VINA RESULT:      -6.7      3.718      7.580
REMARK  4 active torsions:
REMARK  status: ('A' for Active; 'I' for Inactive)
REMARK    1  A    between atoms: C4_6  and  S1_7 
REMARK    2  A    between atoms: S1_7  and  C5_8 
REMARK    3  A    between atoms: C8_11  and  N3_12 
REMARK    4  A    between atoms: N3_12  and  C9_13 
ROOT
HETATM    1  C5  UNL     1      25.665   1.347  52.781  1.00  0.00     0.030 A 
HETATM    2  C6  UNL     1      26.693   2.009  52.140  1.00  0.00     0.023 A 
HETATM    3  C7  UNL     1      26.513   2.799  51.030  1.00  0.00     0.030 A 
HETATM    4  C8  UNL     1      25.213   2.938  50.527  1.00  0.00     0.030 A 
HETATM    5  C13 UNL     1      24.189   2.277  51.168  1.00  0.00     0.054 A 
HETATM    6  C14 UNL     1      24.388   1.488  52.280  1.00  0.00     0.053 A 
HETATM    7 CL1  UNL     1      23.176   0.608  53.168  1.00  0.00    -0.083 Cl
ENDROOT
BRANCH   1   8
HETATM    8  S1  UNL     1      26.234   0.410  54.182  1.00  0.00    -0.051 SA
BRANCH   8   9
HETATM    9  C4  UNL     1      27.798  -0.337  53.844  1.00  0.00     0.172 A 
HETATM   10  N1  UNL     1      29.051   0.143  54.011  1.00  0.00    -0.339 N 
HETATM   11  C1  UNL     1      29.332   1.475  54.536  1.00  0.00     0.158 C 
HETATM   12  C2  UNL     1      29.993  -0.768  53.629  1.00  0.00     0.112 A 
HETATM   13  C3  UNL     1      29.256  -1.858  53.209  1.00  0.00     0.136 A 
HETATM   14  N2  UNL     1      27.958  -1.577  53.346  1.00  0.00    -0.235 NA
ENDBRANCH   8   9
ENDBRANCH   1   8
BRANCH   4  15
HETATM   15  N3  UNL     1      24.864   3.714  49.399  1.00  0.00    -0.377 N 
HETATM   16  H8  UNL     1      24.622   3.077  48.577  1.00  0.00     0.160 HD
BRANCH  15  17
HETATM   17  C9  UNL     1      24.757   5.097  49.093  1.00  0.00     0.147 A 
HETATM   18  C10 UNL     1      24.177   5.942  50.170  1.00  0.00     0.022 A 
HETATM   19  C11 UNL     1      25.023   6.938  50.484  1.00  0.00     0.114 A 
HETATM   20  N4  UNL     1      26.201   6.827  49.657  1.00  0.00    -0.275 NA
HETATM   21  C12 UNL     1      26.051   5.787  48.872  1.00  0.00     0.118 A 
ENDBRANCH  15  17
ENDBRANCH   4  15
TORSDOF 4
ENDMDL
MODEL 4
REMARK VINA RESULT:      -6.7      1.646      7.244
REMARK  4 active torsions:
REMARK  status: ('A' for Active; 'I' for Inactive)
REMARK    1  A    between atoms: C4_6  and  S1_7 
REMARK    2  A    between atoms: S1_7  and  C5_8 
REMARK    3  A    between atoms: C8_11  and  N3_12 
REMARK    4  A    between atoms: N3_12  and  C9_13 
ROOT
HETATM    1  C5  UNL     1      23.682  -0.162  53.548  1.00  0.00     0.030 A 
HETATM    2  C6  UNL     1      24.210   0.817  52.731  1.00  0.00     0.023 A 
HETATM    3  C7  UNL     1      23.508   1.416  51.711  1.00  0.00     0.030 A 
HETATM    4  C8  UNL     1      22.186   1.007  51.495  1.00  0.00     0.030 A 
HETATM    5  C13 UNL     1      21.662   0.030  52.312  1.00  0.00     0.054 A 
HETATM    6  C14 UNL     1      22.380  -0.560  53.329  1.00  0.00     0.053 A 
HETATM    7 CL1  UNL     1      21.824  -1.799  54.418  1.00  0.00    -0.083 Cl
ENDROOT
BRANCH   1   8
HETATM    8  S1  UNL     1      24.849  -0.729  54.765  1.00  0.00    -0.051 SA
BRANCH   8   9
HETATM    9  C4  UNL     1      26.495  -0.273  54.315  1.00  0.00     0.172 A 
HETATM   10  N1  UNL     1      27.324  -0.796  53.384  1.00  0.00    -0.339 N 
HETATM   11  C1  UNL     1      26.959  -1.923  52.532  1.00  0.00     0.158 C 
HETATM   12  C2  UNL     1      28.520  -0.139  53.352  1.00  0.00     0.112 A 
HETATM   13  C3  UNL     1      28.397   0.835  54.324  1.00  0.00     0.136 A 
HETATM   14  N2  UNL     1      27.188   0.733  54.881  1.00  0.00    -0.235 NA
ENDBRANCH   8   9
ENDBRANCH   1   8
BRANCH   4  15
HETATM   15  N3  UNL     1      21.336   1.526  50.494  1.00  0.00    -0.377 N 
HETATM   16  H8  UNL     1      21.464   0.980  49.585  1.00  0.00     0.160 HD
BRANCH  15  17
HETATM   17  C9  UNL     1      20.375   2.568  50.396  1.00  0.00     0.147 A 
HETATM   18  C10 UNL     1      18.960   2.121  50.315  1.00  0.00     0.022 A 
HETATM   19  C11 UNL     1      18.238   2.690  51.296  1.00  0.00     0.114 A 
HETATM   20  N4  UNL     1      19.104   3.536  52.081  1.00  0.00    -0.275 NA
HETATM   21  C12 UNL     1      20.311   3.468  51.573  1.00  0.00     0.118 A 
ENDBRANCH  15  17
ENDBRANCH   4  15
TORSDOF 4
ENDMDL
MODEL 5
REMARK VINA RESULT:      -6.7      2.571      7.527
REMARK  4 active torsions:
REMARK  status: ('A' for Active; 'I' for Inactive)
REMARK    1  A    between atoms: C4_6  and  S1_7 
REMARK    2  A    between atoms: S1_7  and  C5_8 
REMARK    3  A    between atoms: C8_11  and  N3_12 
REMARK    4  A    between atoms: N3_12  and  C9_13 
ROOT
HETATM    1  C5  UNL     1      25.262   0.919  53.484  1.00  0.00     0.030 A 
HETATM    2  C6  UNL     1      25.844   1.921  52.734  1.00  0.00     0.023 A 
HETATM    3  C7  UNL     1      25.230   2.526  51.664  1.00  0.00     0.030 A 
HETATM    4  C8  UNL     1      23.941   2.098  51.319  1.00  0.00     0.030 A 
HETATM    5  C13 UNL     1      23.361   1.098  52.068  1.00  0.00     0.054 A 
HETATM    6  C14 UNL     1      23.993   0.503  53.139  1.00  0.00     0.053 A 
HETATM    7 CL1  UNL     1      23.362  -0.764  54.152  1.00  0.00    -0.083 Cl
ENDROOT
BRANCH   1   8
HETATM    8  S1  UNL     1      26.321   0.352  54.795  1.00  0.00    -0.051 SA
BRANCH   8   9
HETATM    9  C4  UNL     1      27.869  -0.208  54.154  1.00  0.00     0.172 A 
HETATM   10  N1  UNL     1      29.044   0.444  54.009  1.00  0.00    -0.339 N 
HETATM   11  C1  UNL     1      29.233   1.841  54.387  1.00  0.00     0.158 C 
HETATM   12  C2  UNL     1      30.004  -0.364  53.474  1.00  0.00     0.112 A 
HETATM   13  C3  UNL     1      29.363  -1.573  53.288  1.00  0.00     0.136 A 
HETATM   14  N2  UNL     1      28.098  -1.454  53.698  1.00  0.00    -0.235 NA
ENDBRANCH   8   9
ENDBRANCH   1   8
BRANCH   4  15
HETATM   15  N3  UNL     1      23.178   2.620  50.251  1.00  0.00    -0.377 N 
HETATM   16  H8  UNL     1      22.179   2.816  50.576  1.00  0.00     0.160 HD
BRANCH  15  17
HETATM   17  C9  UNL     1      23.401   2.942  48.886  1.00  0.00     0.147 A 
HETATM   18  C10 UNL     1      22.528   2.231  47.915  1.00  0.00     0.022 A 
HETATM   19  C11 UNL     1      21.873   3.117  47.145  1.00  0.00     0.114 A 
HETATM   20  N4  UNL     1      22.255   4.451  47.543  1.00  0.00    -0.275 NA
HETATM   21  C12 UNL     1      23.118   4.353  48.525  1.00  0.00     0.118 A 
ENDBRANCH  15  17
ENDBRANCH   4  15
TORSDOF 4
ENDMDL
MODEL 6
REMARK VINA RESULT:      -6.6      2.436      7.767
REMARK  4 active torsions:
REMARK  status: ('A' for Active; 'I' for Inactive)
REMARK    1  A    between atoms: C4_6  and  S1_7 
REMARK    2  A    between atoms: S1_7  and  C5_8 
REMARK    3  A    between atoms: C8_11  and  N3_12 
REMARK    4  A    between atoms: N3_12  and  C9_13 
ROOT
HETATM    1  C5  UNL     1      25.188   0.773  53.418  1.00  0.00     0.030 A 
HETATM    2  C6  UNL     1      23.976   0.130  53.558  1.00  0.00     0.023 A 
HETATM    3  C7  UNL     1      22.932   0.273  52.675  1.00  0.00     0.030 A 
HETATM    4  C8  UNL     1      23.116   1.118  51.574  1.00  0.00     0.030 A 
HETATM    5  C13 UNL     1      24.326   1.759  51.436  1.00  0.00     0.054 A 
HETATM    6  C14 UNL     1      25.362   1.604  52.332  1.00  0.00     0.053 A 
HETATM    7 CL1  UNL     1      26.928   2.361  52.260  1.00  0.00    -0.083 Cl
ENDROOT
BRANCH   1   8
HETATM    8  S1  UNL     1      26.321   0.374  54.730  1.00  0.00    -0.051 SA
BRANCH   8   9
HETATM    9  C4  UNL     1      27.803  -0.338  54.086  1.00  0.00     0.172 A 
HETATM   10  N1  UNL     1      29.060   0.157  54.029  1.00  0.00    -0.339 N 
HETATM   11  C1  UNL     1      29.419   1.480  54.530  1.00  0.00     0.158 C 
HETATM   12  C2  UNL     1      29.923  -0.729  53.452  1.00  0.00     0.112 A 
HETATM   13  C3  UNL     1      29.133  -1.819  53.147  1.00  0.00     0.136 A 
HETATM   14  N2  UNL     1      27.880  -1.562  53.531  1.00  0.00    -0.235 NA
ENDBRANCH   8   9
ENDBRANCH   1   8
BRANCH   4  15
HETATM   15  N3  UNL     1      22.144   1.368  50.578  1.00  0.00    -0.377 N 
HETATM   16  H8  UNL     1      22.479   0.990  49.637  1.00  0.00     0.160 HD
BRANCH  15  17
HETATM   17  C9  UNL     1      20.864   1.981  50.518  1.00  0.00     0.147 A 
HETATM   18  C10 UNL     1      19.723   1.104  50.890  1.00  0.00     0.022 A 
HETATM   19  C11 UNL     1      19.014   1.664  51.885  1.00  0.00     0.114 A 
HETATM   20  N4  UNL     1      19.622   2.924  52.239  1.00  0.00    -0.275 NA
HETATM   21  C12 UNL     1      20.667   3.104  51.467  1.00  0.00     0.118 A 
ENDBRANCH  15  17
ENDBRANCH   4  15
TORSDOF 4
ENDMDL
MODEL 7
REMARK VINA RESULT:      -6.6      2.392      2.654
REMARK  4 active torsions:
REMARK  status: ('A' for Active; 'I' for Inactive)
REMARK    1  A    between atoms: C4_6  and  S1_7 
REMARK    2  A    between atoms: S1_7  and  C5_8 
REMARK    3  A    between atoms: C8_11  and  N3_12 
REMARK    4  A    between atoms: N3_12  and  C9_13 
ROOT
HETATM    1  C5  UNL     1      23.432   1.396  52.297  1.00  0.00     0.030 A 
HETATM    2  C6  UNL     1      24.676   1.578  51.728  1.00  0.00     0.023 A 
HETATM    3  C7  UNL     1      25.777   0.822  52.049  1.00  0.00     0.030 A 
HETATM    4  C8  UNL     1      25.624  -0.188  53.007  1.00  0.00     0.030 A 
HETATM    5  C13 UNL     1      24.382  -0.368  53.575  1.00  0.00     0.054 A 
HETATM    6  C14 UNL     1      23.288   0.400  53.240  1.00  0.00     0.053 A 
HETATM    7 CL1  UNL     1      21.678   0.265  53.889  1.00  0.00    -0.083 Cl
ENDROOT
BRANCH   1   8
HETATM    8  S1  UNL     1      22.225   2.538  51.665  1.00  0.00    -0.051 SA
BRANCH   8   9
HETATM    9  C4  UNL     1      22.988   4.056  51.183  1.00  0.00     0.172 A 
HETATM   10  N1  UNL     1      23.341   4.509  49.958  1.00  0.00    -0.339 N 
HETATM   11  C1  UNL     1      23.133   3.742  48.734  1.00  0.00     0.158 C 
HETATM   12  C2  UNL     1      23.904   5.750  50.025  1.00  0.00     0.112 A 
HETATM   13  C3  UNL     1      23.886   6.057  51.371  1.00  0.00     0.136 A 
HETATM   14  N2  UNL     1      23.339   5.036  52.036  1.00  0.00    -0.235 NA
ENDBRANCH   8   9
ENDBRANCH   1   8
BRANCH   4  15
HETATM   15  N3  UNL     1      26.655  -1.050  53.443  1.00  0.00    -0.377 N 
HETATM   16  H8  UNL     1      26.427  -2.059  53.175  1.00  0.00     0.160 HD
BRANCH  15  17
HETATM   17  C9  UNL     1      27.891  -0.914  54.130  1.00  0.00     0.147 A 
HETATM   18  C10 UNL     1      29.079  -0.704  53.263  1.00  0.00     0.022 A 
HETATM   19  C11 UNL     1      29.720   0.423  53.620  1.00  0.00     0.114 A 
HETATM   20  N4  UNL     1      29.016   1.029  54.725  1.00  0.00    -0.275 NA
HETATM   21  C12 UNL     1      27.983   0.274  55.014  1.00  0.00     0.118 A 
ENDBRANCH  15  17
ENDBRANCH   4  15
TORSDOF 4
ENDMDL
MODEL 8
REMARK VINA RESULT:      -6.6      4.702      5.499
REMARK  4 active torsions:
REMARK  status: ('A' for Active; 'I' for Inactive)
REMARK    1  A    between atoms: C4_6  and  S1_7 
REMARK    2  A    between atoms: S1_7  and  C5_8 
REMARK    3  A    between atoms: C8_11  and  N3_12 
REMARK    4  A    between atoms: N3_12  and  C9_13 
ROOT
HETATM    1  C5  UNL     1      25.339   3.420  51.000  1.00  0.00     0.030 A 
HETATM    2  C6  UNL     1      26.514   2.697  50.956  1.00  0.00     0.023 A 
HETATM    3  C7  UNL     1      26.979   1.936  52.003  1.00  0.00     0.030 A 
HETATM    4  C8  UNL     1      26.214   1.895  53.175  1.00  0.00     0.030 A 
HETATM    5  C13 UNL     1      25.041   2.616  53.217  1.00  0.00     0.054 A 
HETATM    6  C14 UNL     1      24.591   3.375  52.158  1.00  0.00     0.053 A 
HETATM    7 CL1  UNL     1      23.133   4.324  52.098  1.00  0.00    -0.083 Cl
ENDROOT
BRANCH   1   8
HETATM    8  S1  UNL     1      25.027   4.296  49.485  1.00  0.00    -0.051 SA
BRANCH   8   9
HETATM    9  C4  UNL     1      26.470   5.166  48.954  1.00  0.00     0.172 A 
HETATM   10  N1  UNL     1      26.656   6.482  48.705  1.00  0.00    -0.339 N 
HETATM   11  C1  UNL     1      25.597   7.477  48.841  1.00  0.00     0.158 C 
HETATM   12  C2  UNL     1      27.938   6.743  48.318  1.00  0.00     0.112 A 
HETATM   13  C3  UNL     1      28.555   5.507  48.338  1.00  0.00     0.136 A 
HETATM   14  N2  UNL     1      27.663   4.589  48.717  1.00  0.00    -0.235 NA
ENDBRANCH   8   9
ENDBRANCH   1   8
BRANCH   4  15
HETATM   15  N3  UNL     1      26.552   1.160  54.333  1.00  0.00    -0.377 N 
HETATM   16  H8  UNL     1      25.886   1.405  55.131  1.00  0.00     0.160 HD
BRANCH  15  17
HETATM   17  C9  UNL     1      27.534   0.198  54.693  1.00  0.00     0.147 A 
HETATM   18  C10 UNL     1      27.625  -0.982  53.794  1.00  0.00     0.022 A 
HETATM   19  C11 UNL     1      28.880  -1.114  53.329  1.00  0.00     0.114 A 
HETATM   20  N4  UNL     1      29.692  -0.053  53.873  1.00  0.00    -0.275 NA
HETATM   21  C12 UNL     1      28.933   0.689  54.644  1.00  0.00     0.118 A 
ENDBRANCH  15  17
ENDBRANCH   4  15
TORSDOF 4
ENDMDL
MODEL 9
REMARK VINA RESULT:      -6.5      3.436      4.069
REMARK  4 active torsions:
REMARK  status: ('A' for Active; 'I' for Inactive)
REMARK    1  A    between atoms: C4_6  and  S1_7 
REMARK    2  A    between atoms: S1_7  and  C5_8 
REMARK    3  A    between atoms: C8_11  and  N3_12 
REMARK    4  A    between atoms: N3_12  and  C9_13 
ROOT
HETATM    1  C5  UNL     1      24.682   3.005  50.757  1.00  0.00     0.030 A 
HETATM    2  C6  UNL     1      23.963   2.551  51.844  1.00  0.00     0.023 A 
HETATM    3  C7  UNL     1      24.543   2.053  52.986  1.00  0.00     0.030 A 
HETATM    4  C8  UNL     1      25.942   2.006  53.044  1.00  0.00     0.030 A 
HETATM    5  C13 UNL     1      26.658   2.460  51.959  1.00  0.00     0.054 A 
HETATM    6  C14 UNL     1      26.058   2.956  50.821  1.00  0.00     0.053 A 
HETATM    7 CL1  UNL     1      26.857   3.553  49.395  1.00  0.00    -0.083 Cl
ENDROOT
BRANCH   1   8
HETATM    8  S1  UNL     1      23.630   3.583  49.444  1.00  0.00    -0.051 SA
BRANCH   8   9
HETATM    9  C4  UNL     1      22.712   5.003  49.954  1.00  0.00     0.172 A 
HETATM   10  N1  UNL     1      23.136   6.191  50.442  1.00  0.00    -0.339 N 
HETATM   11  C1  UNL     1      24.544   6.511  50.650  1.00  0.00     0.158 C 
HETATM   12  C2  UNL     1      22.090   7.026  50.708  1.00  0.00     0.112 A 
HETATM   13  C3  UNL     1      20.974   6.292  50.356  1.00  0.00     0.136 A 
HETATM   14  N2  UNL     1      21.370   5.096  49.913  1.00  0.00    -0.235 NA
ENDBRANCH   8   9
ENDBRANCH   1   8
BRANCH   4  15
HETATM   15  N3  UNL     1      26.687   1.526  54.144  1.00  0.00    -0.377 N 
HETATM   16  H8  UNL     1      26.797   2.296  54.876  1.00  0.00     0.160 HD
BRANCH  15  17
HETATM   17  C9  UNL     1      27.310   0.303  54.512  1.00  0.00     0.147 A 
HETATM   18  C10 UNL     1      27.328  -0.742  53.457  1.00  0.00     0.022 A 
HETATM   19  C11 UNL     1      28.589  -1.144  53.223  1.00  0.00     0.114 A 
HETATM   20  N4  UNL     1      29.480  -0.407  54.087  1.00  0.00    -0.275 NA
HETATM   21  C12 UNL     1      28.758   0.411  54.815  1.00  0.00     0.118 A 
ENDBRANCH  15  17
ENDBRANCH   4  15
TORSDOF 4
ENDMDL
