MODEL 1
REMARK VINA RESULT:      -8.4      0.000      0.000
REMARK  8 active torsions:
REMARK  status: ('A' for Active; 'I' for Inactive)
REMARK    1  A    between atoms: C4_4  and  N1_5 
REMARK    2  A    between atoms: N1_5  and  C5_6 
REMARK    3  A    between atoms: C9_12  and  O1_13 
REMARK    4  A    between atoms: C11_15  and  O2_16 
REMARK    5  A    between atoms: O2_16  and  C12_17 
REMARK    6  A    between atoms: C12_17  and  C13_18 
REMARK    7  A    between atoms: C13_18  and  C14_19 
REMARK    8  A    between atoms: C14_19  and  N4_20 
ROOT
HETATM    1  C5  UNL     1      24.331  -0.350  53.703  1.00  0.00     0.142 A 
HETATM    2  N2  UNL     1      24.629  -0.938  54.807  1.00  0.00    -0.224 NA
HETATM    3  C6  UNL     1      23.962  -1.536  55.758  1.00  0.00     0.236 A 
HETATM    4  N3  UNL     1      22.669  -1.519  55.497  1.00  0.00    -0.241 NA
HETATM    5  C7  UNL     1      22.099  -0.957  54.383  1.00  0.00     0.075 A 
HETATM    6  C8  UNL     1      20.753  -1.040  54.208  1.00  0.00     0.072 A 
HETATM    7  C9  UNL     1      20.130  -0.505  53.045  1.00  0.00     0.103 A 
HETATM    8  C11 UNL     1      21.110   0.102  52.168  1.00  0.00     0.103 A 
HETATM    9  C19 UNL     1      22.430   0.203  52.297  1.00  0.00     0.057 A 
HETATM   10  C20 UNL     1      22.984  -0.359  53.473  1.00  0.00     0.042 A 
ENDROOT
BRANCH   1  11
HETATM   11  N1  UNL     1      25.200   0.244  52.779  1.00  0.00    -0.340 N 
HETATM   12  H5  UNL     1      25.043   0.840  51.965  1.00  0.00     0.167 HD
BRANCH  11  13
HETATM   13  C4  UNL     1      26.552  -0.028  53.064  1.00  0.00     0.034 A 
HETATM   14  C3  UNL     1      27.533   0.731  53.608  1.00  0.00     0.039 A 
HETATM   15  C2  UNL     1      28.826   0.672  53.969  1.00  0.00    -0.021 A 
HETATM   16  C1  UNL     1      29.512   1.829  54.582  1.00  0.00     0.051 C 
HETATM   17  C23 UNL     1      29.206  -0.573  53.652  1.00  0.00     0.122 A 
HETATM   18  C22 UNL     1      28.539  -1.644  53.083  1.00  0.00     0.045 A 
HETATM   19  F1  UNL     1      30.515  -0.879  53.951  1.00  0.00    -0.206 F 
HETATM   20  C21 UNL     1      27.196  -1.279  52.815  1.00  0.00     0.032 A 
ENDBRANCH  11  13
ENDBRANCH   1  11
BRANCH   8  21
HETATM   21  O2  UNL     1      20.290   0.575  51.159  1.00  0.00    -0.348 OA
BRANCH  21  22
HETATM   22  C12 UNL     1      19.570   0.988  50.273  1.00  0.00     0.177 C 
BRANCH  22  23
HETATM   23  C13 UNL     1      20.403   1.941  49.271  1.00  0.00     0.046 C 
BRANCH  23  24
HETATM   24  C14 UNL     1      20.818   3.116  50.096  1.00  0.00     0.119 C 
BRANCH  24  25
HETATM   25  N4  UNL     1      22.164   3.328  50.331  1.00  0.00    -0.408 N 
HETATM   26  C15 UNL     1      23.193   3.442  49.410  1.00  0.00     0.143 C 
HETATM   27  C16 UNL     1      24.573   3.234  50.042  1.00  0.00     0.187 C 
HETATM   28  O3  UNL     1      24.472   2.824  51.346  1.00  0.00    -0.388 OA
HETATM   29  C17 UNL     1      23.753   3.639  52.163  1.00  0.00     0.187 C 
HETATM   30  C18 UNL     1      22.439   4.042  51.573  1.00  0.00     0.143 C 
ENDBRANCH  24  25
ENDBRANCH  23  24
ENDBRANCH  22  23
ENDBRANCH  21  22
ENDBRANCH   8  21
BRANCH   7  31
HETATM   31  O1  UNL     1      18.885  -0.518  52.699  1.00  0.00    -0.353 OA
HETATM   32  C10 UNL     1      17.647  -0.935  52.899  1.00  0.00     0.210 C 
ENDBRANCH   7  31
TORSDOF 8
ENDMDL
MODEL 2
REMARK VINA RESULT:      -7.7      2.554      4.176
REMARK  8 active torsions:
REMARK  status: ('A' for Active; 'I' for Inactive)
REMARK    1  A    between atoms: C4_4  and  N1_5 
REMARK    2  A    between atoms: N1_5  and  C5_6 
REMARK    3  A    between atoms: C9_12  and  O1_13 
REMARK    4  A    between atoms: C11_15  and  O2_16 
REMARK    5  A    between atoms: O2_16  and  C12_17 
REMARK    6  A    between atoms: C12_17  and  C13_18 
REMARK    7  A    between atoms: C13_18  and  C14_19 
REMARK    8  A    between atoms: C14_19  and  N4_20 
ROOT
HETATM    1  C5  UNL     1      24.377  -0.236  53.747  1.00  0.00     0.142 A 
HETATM    2  N2  UNL     1      24.799  -0.799  54.823  1.00  0.00    -0.224 NA
HETATM    3  C6  UNL     1      24.252  -1.447  55.817  1.00  0.00     0.236 A 
HETATM    4  N3  UNL     1      22.945  -1.529  55.651  1.00  0.00    -0.241 NA
HETATM    5  C7  UNL     1      22.254  -1.012  54.585  1.00  0.00     0.075 A 
HETATM    6  C8  UNL     1      20.909  -1.196  54.509  1.00  0.00     0.072 A 
HETATM    7  C9  UNL     1      20.162  -0.710  53.398  1.00  0.00     0.103 A 
HETATM    8  C11 UNL     1      21.027  -0.029  52.456  1.00  0.00     0.103 A 
HETATM    9  C19 UNL     1      22.341   0.172  52.488  1.00  0.00     0.057 A 
HETATM   10  C20 UNL     1      23.021  -0.348  53.616  1.00  0.00     0.042 A 
ENDROOT
BRANCH   1  11
HETATM   11  N1  UNL     1      25.128   0.423  52.765  1.00  0.00    -0.340 N 
HETATM   12  H5  UNL     1      24.865   0.964  51.940  1.00  0.00     0.167 HD
BRANCH  11  13
HETATM   13  C4  UNL     1      26.514   0.328  52.997  1.00  0.00     0.034 A 
HETATM   14  C3  UNL     1      27.351  -0.736  53.056  1.00  0.00     0.039 A 
HETATM   15  C2  UNL     1      28.646  -1.042  53.239  1.00  0.00    -0.021 A 
HETATM   16  C1  UNL     1      29.125  -2.440  53.197  1.00  0.00     0.051 C 
HETATM   17  C23 UNL     1      29.246   0.141  53.424  1.00  0.00     0.122 A 
HETATM   18  C22 UNL     1      28.775   1.442  53.451  1.00  0.00     0.045 A 
HETATM   19  F1  UNL     1      30.609   0.081  53.619  1.00  0.00    -0.206 F 
HETATM   20  C21 UNL     1      27.375   1.444  53.227  1.00  0.00     0.032 A 
ENDBRANCH  11  13
ENDBRANCH   1  11
BRANCH   8  21
HETATM   21  O2  UNL     1      20.101   0.380  51.513  1.00  0.00    -0.348 OA
BRANCH  21  22
HETATM   22  C12 UNL     1      19.290   0.741  50.684  1.00  0.00     0.177 C 
BRANCH  22  23
HETATM   23  C13 UNL     1      18.316   1.869  51.308  1.00  0.00     0.046 C 
BRANCH  23  24
HETATM   24  C14 UNL     1      16.932   1.328  51.149  1.00  0.00     0.119 C 
BRANCH  24  25
HETATM   25  N4  UNL     1      15.857   2.183  51.302  1.00  0.00    -0.408 N 
HETATM   26  C15 UNL     1      15.261   2.998  50.352  1.00  0.00     0.143 C 
HETATM   27  C16 UNL     1      14.404   4.102  50.980  1.00  0.00     0.187 C 
HETATM   28  O3  UNL     1      14.547   4.135  52.343  1.00  0.00    -0.388 OA
HETATM   29  C17 UNL     1      14.274   2.971  52.989  1.00  0.00     0.187 C 
HETATM   30  C18 UNL     1      14.936   1.786  52.361  1.00  0.00     0.143 C 
ENDBRANCH  24  25
ENDBRANCH  23  24
ENDBRANCH  22  23
ENDBRANCH  21  22
ENDBRANCH   8  21
BRANCH   7  31
HETATM   31  O1  UNL     1      18.900  -0.818  53.145  1.00  0.00    -0.353 OA
HETATM   32  C10 UNL     1      17.758  -1.467  53.282  1.00  0.00     0.210 C 
ENDBRANCH   7  31
TORSDOF 8
ENDMDL
MODEL 3
REMARK VINA RESULT:      -7.5      3.232      5.358
REMARK  8 active torsions:
REMARK  status: ('A' for Active; 'I' for Inactive)
REMARK    1  A    between atoms: C4_4  and  N1_5 
REMARK    2  A    between atoms: N1_5  and  C5_6 
REMARK    3  A    between atoms: C9_12  and  O1_13 
REMARK    4  A    between atoms: C11_15  and  O2_16 
REMARK    5  A    between atoms: O2_16  and  C12_17 
REMARK    6  A    between atoms: C12_17  and  C13_18 
REMARK    7  A    between atoms: C13_18  and  C14_19 
REMARK    8  A    between atoms: C14_19  and  N4_20 
ROOT
HETATM    1  C5  UNL     1      25.727   2.649  50.829  1.00  0.00     0.142 A 
HETATM    2  N2  UNL     1      26.926   2.622  51.292  1.00  0.00    -0.224 NA
HETATM    3  C6  UNL     1      27.518   2.087  52.327  1.00  0.00     0.236 A 
HETATM    4  N3  UNL     1      26.650   1.417  53.060  1.00  0.00    -0.241 NA
HETATM    5  C7  UNL     1      25.313   1.291  52.778  1.00  0.00     0.075 A 
HETATM    6  C8  UNL     1      24.527   0.538  53.592  1.00  0.00     0.072 A 
HETATM    7  C9  UNL     1      23.144   0.351  53.310  1.00  0.00     0.103 A 
HETATM    8  C11 UNL     1      22.763   1.062  52.107  1.00  0.00     0.103 A 
HETATM    9  C19 UNL     1      23.496   1.805  51.282  1.00  0.00     0.057 A 
HETATM   10  C20 UNL     1      24.864   1.940  51.618  1.00  0.00     0.042 A 
ENDROOT
BRANCH   1  11
HETATM   11  N1  UNL     1      25.262   3.283  49.670  1.00  0.00    -0.340 N 
HETATM   12  H5  UNL     1      24.658   2.975  48.907  1.00  0.00     0.167 HD
BRANCH  11  13
HETATM   13  C4  UNL     1      25.711   4.615  49.573  1.00  0.00     0.034 A 
HETATM   14  C3  UNL     1      26.748   5.175  48.906  1.00  0.00     0.039 A 
HETATM   15  C2  UNL     1      27.323   6.366  48.669  1.00  0.00    -0.021 A 
HETATM   16  C1  UNL     1      28.512   6.493  47.800  1.00  0.00     0.051 C 
HETATM   17  C23 UNL     1      26.576   7.240  49.356  1.00  0.00     0.122 A 
HETATM   18  C22 UNL     1      25.458   7.095  50.159  1.00  0.00     0.045 A 
HETATM   19  F1  UNL     1      26.970   8.556  49.252  1.00  0.00    -0.206 F 
HETATM   20  C21 UNL     1      25.087   5.729  50.215  1.00  0.00     0.032 A 
ENDBRANCH  11  13
ENDBRANCH   1  11
BRANCH   8  21
HETATM   21  O2  UNL     1      21.411   0.776  52.060  1.00  0.00    -0.348 OA
BRANCH  21  22
HETATM   22  C12 UNL     1      20.223   0.526  52.018  1.00  0.00     0.177 C 
BRANCH  22  23
HETATM   23  C13 UNL     1      19.656   0.751  50.522  1.00  0.00     0.046 C 
BRANCH  23  24
HETATM   24  C14 UNL     1      19.836   2.208  50.246  1.00  0.00     0.119 C 
BRANCH  24  25
HETATM   25  N4  UNL     1      20.663   2.597  49.210  1.00  0.00    -0.408 N 
HETATM   26  C15 UNL     1      21.239   1.811  48.224  1.00  0.00     0.143 C 
HETATM   27  C16 UNL     1      22.417   2.505  47.533  1.00  0.00     0.187 C 
HETATM   28  O3  UNL     1      22.739   3.685  48.153  1.00  0.00    -0.388 OA
HETATM   29  C17 UNL     1      21.726   4.585  48.263  1.00  0.00     0.187 C 
HETATM   30  C18 UNL     1      20.462   3.977  48.783  1.00  0.00     0.143 C 
ENDBRANCH  24  25
ENDBRANCH  23  24
ENDBRANCH  22  23
ENDBRANCH  21  22
ENDBRANCH   8  21
BRANCH   7  31
HETATM   31  O1  UNL     1      22.262  -0.347  53.946  1.00  0.00    -0.353 OA
HETATM   32  C10 UNL     1      21.928  -1.444  54.602  1.00  0.00     0.210 C 
ENDBRANCH   7  31
TORSDOF 8
ENDMDL
MODEL 4
REMARK VINA RESULT:      -7.4      3.249      6.932
REMARK  8 active torsions:
REMARK  status: ('A' for Active; 'I' for Inactive)
REMARK    1  A    between atoms: C4_4  and  N1_5 
REMARK    2  A    between atoms: N1_5  and  C5_6 
REMARK    3  A    between atoms: C9_12  and  O1_13 
REMARK    4  A    between atoms: C11_15  and  O2_16 
REMARK    5  A    between atoms: O2_16  and  C12_17 
REMARK    6  A    between atoms: C12_17  and  C13_18 
REMARK    7  A    between atoms: C13_18  and  C14_19 
REMARK    8  A    between atoms: C14_19  and  N4_20 
ROOT
HETATM    1  C5  UNL     1      21.600   0.483  53.349  1.00  0.00     0.142 A 
HETATM    2  N2  UNL     1      21.136  -0.405  54.155  1.00  0.00    -0.224 NA
HETATM    3  C6  UNL     1      21.646  -1.328  54.926  1.00  0.00     0.236 A 
HETATM    4  N3  UNL     1      22.963  -1.328  54.837  1.00  0.00    -0.241 NA
HETATM    5  C7  UNL     1      23.698  -0.477  54.051  1.00  0.00     0.075 A 
HETATM    6  C8  UNL     1      25.055  -0.550  54.076  1.00  0.00     0.072 A 
HETATM    7  C9  UNL     1      25.853   0.342  53.305  1.00  0.00     0.103 A 
HETATM    8  C11 UNL     1      25.020   1.252  52.545  1.00  0.00     0.103 A 
HETATM    9  C19 UNL     1      23.696   1.360  52.492  1.00  0.00     0.057 A 
HETATM   10  C20 UNL     1      22.965   0.448  53.292  1.00  0.00     0.042 A 
ENDROOT
BRANCH   1  11
HETATM   11  N1  UNL     1      20.886   1.419  52.591  1.00  0.00    -0.340 N 
HETATM   12  H5  UNL     1      21.042   2.407  52.386  1.00  0.00     0.167 HD
BRANCH  11  13
HETATM   13  C4  UNL     1      19.747   0.858  51.982  1.00  0.00     0.034 A 
HETATM   14  C3  UNL     1      18.858  -0.071  52.408  1.00  0.00     0.039 A 
HETATM   15  C2  UNL     1      17.742  -0.711  52.019  1.00  0.00    -0.021 A 
HETATM   16  C1  UNL     1      17.070  -1.697  52.891  1.00  0.00     0.051 C 
HETATM   17  C23 UNL     1      17.487  -0.225  50.796  1.00  0.00     0.122 A 
HETATM   18  C22 UNL     1      18.130   0.707  50.001  1.00  0.00     0.045 A 
HETATM   19  F1  UNL     1      16.358  -0.731  50.190  1.00  0.00    -0.206 F 
HETATM   20  C21 UNL     1      19.269   1.206  50.681  1.00  0.00     0.032 A 
ENDBRANCH  11  13
ENDBRANCH   1  11
BRANCH   8  21
HETATM   21  O2  UNL     1      25.985   1.971  51.864  1.00  0.00    -0.348 OA
BRANCH  21  22
HETATM   22  C12 UNL     1      26.832   2.603  51.264  1.00  0.00     0.177 C 
BRANCH  22  23
HETATM   23  C13 UNL     1      26.250   3.114  49.847  1.00  0.00     0.046 C 
BRANCH  23  24
HETATM   24  C14 UNL     1      25.672   4.464  50.120  1.00  0.00     0.119 C 
BRANCH  24  25
HETATM   25  N4  UNL     1      24.323   4.571  50.401  1.00  0.00    -0.408 N 
HETATM   26  C15 UNL     1      23.714   5.167  51.494  1.00  0.00     0.143 C 
HETATM   27  C16 UNL     1      22.263   4.713  51.680  1.00  0.00     0.187 C 
HETATM   28  O3  UNL     1      21.941   3.696  50.818  1.00  0.00    -0.388 OA
HETATM   29  C17 UNL     1      22.133   3.963  49.500  1.00  0.00     0.187 C 
HETATM   30  C18 UNL     1      23.472   4.568  49.216  1.00  0.00     0.143 C 
ENDBRANCH  24  25
ENDBRANCH  23  24
ENDBRANCH  22  23
ENDBRANCH  21  22
ENDBRANCH   8  21
BRANCH   7  31
HETATM   31  O1  UNL     1      27.139   0.439  53.229  1.00  0.00    -0.353 OA
HETATM   32  C10 UNL     1      28.330  -0.132  53.228  1.00  0.00     0.210 C 
ENDBRANCH   7  31
TORSDOF 8
ENDMDL
MODEL 5
REMARK VINA RESULT:      -7.4      5.807      9.180
REMARK  8 active torsions:
REMARK  status: ('A' for Active; 'I' for Inactive)
REMARK    1  A    between atoms: C4_4  and  N1_5 
REMARK    2  A    between atoms: N1_5  and  C5_6 
REMARK    3  A    between atoms: C9_12  and  O1_13 
REMARK    4  A    between atoms: C11_15  and  O2_16 
REMARK    5  A    between atoms: O2_16  and  C12_17 
REMARK    6  A    between atoms: C12_17  and  C13_18 
REMARK    7  A    between atoms: C13_18  and  C14_19 
REMARK    8  A    between atoms: C14_19  and  N4_20 
ROOT
HETATM    1  C5  UNL     1      25.655   3.594  49.782  1.00  0.00     0.142 A 
HETATM    2  N2  UNL     1      24.409   3.761  50.051  1.00  0.00    -0.224 NA
HETATM    3  C6  UNL     1      23.549   4.738  49.938  1.00  0.00     0.236 A 
HETATM    4  N3  UNL     1      24.127   5.803  49.415  1.00  0.00    -0.241 NA
HETATM    5  C7  UNL     1      25.444   5.878  49.039  1.00  0.00     0.075 A 
HETATM    6  C8  UNL     1      25.912   7.023  48.474  1.00  0.00     0.072 A 
HETATM    7  C9  UNL     1      27.263   7.125  48.034  1.00  0.00     0.103 A 
HETATM    8  C11 UNL     1      27.983   5.895  48.291  1.00  0.00     0.103 A 
HETATM    9  C19 UNL     1      27.566   4.756  48.835  1.00  0.00     0.057 A 
HETATM   10  C20 UNL     1      26.210   4.720  49.241  1.00  0.00     0.042 A 
ENDROOT
BRANCH   1  11
HETATM   11  N1  UNL     1      26.434   2.445  49.968  1.00  0.00    -0.340 N 
HETATM   12  H5  UNL     1      27.019   1.895  49.338  1.00  0.00     0.167 HD
BRANCH  11  13
HETATM   13  C4  UNL     1      26.407   1.991  51.301  1.00  0.00     0.034 A 
HETATM   14  C3  UNL     1      25.591   1.124  51.946  1.00  0.00     0.039 A 
HETATM   15  C2  UNL     1      25.402   0.559  53.151  1.00  0.00    -0.021 A 
HETATM   16  C1  UNL     1      24.314  -0.412  53.390  1.00  0.00     0.051 C 
HETATM   17  C23 UNL     1      26.373   1.075  53.918  1.00  0.00     0.122 A 
HETATM   18  C22 UNL     1      27.389   1.980  53.667  1.00  0.00     0.045 A 
HETATM   19  F1  UNL     1      26.392   0.623  55.219  1.00  0.00    -0.206 F 
HETATM   20  C21 UNL     1      27.331   2.396  52.313  1.00  0.00     0.032 A 
ENDBRANCH  11  13
ENDBRANCH   1  11
BRANCH   8  21
HETATM   21  O2  UNL     1      29.242   6.238  47.832  1.00  0.00    -0.348 OA
BRANCH  21  22
HETATM   22  C12 UNL     1      30.348   6.536  47.429  1.00  0.00     0.177 C 
BRANCH  22  23
HETATM   23  C13 UNL     1      31.281   7.013  48.658  1.00  0.00     0.046 C 
BRANCH  23  24
HETATM   24  C14 UNL     1      32.263   5.906  48.862  1.00  0.00     0.119 C 
BRANCH  24  25
HETATM   25  N4  UNL     1      32.788   5.263  47.756  1.00  0.00    -0.408 N 
HETATM   26  C15 UNL     1      33.845   5.657  46.950  1.00  0.00     0.143 C 
HETATM   27  C16 UNL     1      33.852   4.938  45.598  1.00  0.00     0.187 C 
HETATM   28  O3  UNL     1      32.720   4.183  45.423  1.00  0.00    -0.388 OA
HETATM   29  C17 UNL     1      32.478   3.259  46.390  1.00  0.00     0.187 C 
HETATM   30  C18 UNL     1      32.602   3.816  47.773  1.00  0.00     0.143 C 
ENDBRANCH  24  25
ENDBRANCH  23  24
ENDBRANCH  22  23
ENDBRANCH  21  22
ENDBRANCH   8  21
BRANCH   7  31
HETATM   31  O1  UNL     1      27.866   8.110  47.455  1.00  0.00    -0.353 OA
HETATM   32  C10 UNL     1      27.971   9.405  47.215  1.00  0.00     0.210 C 
ENDBRANCH   7  31
TORSDOF 8
ENDMDL
MODEL 6
REMARK VINA RESULT:      -7.3      5.849      9.421
REMARK  8 active torsions:
REMARK  status: ('A' for Active; 'I' for Inactive)
REMARK    1  A    between atoms: C4_4  and  N1_5 
REMARK    2  A    between atoms: N1_5  and  C5_6 
REMARK    3  A    between atoms: C9_12  and  O1_13 
REMARK    4  A    between atoms: C11_15  and  O2_16 
REMARK    5  A    between atoms: O2_16  and  C12_17 
REMARK    6  A    between atoms: C12_17  and  C13_18 
REMARK    7  A    between atoms: C13_18  and  C14_19 
REMARK    8  A    between atoms: C14_19  and  N4_20 
ROOT
HETATM    1  C5  UNL     1      24.850   4.689  50.102  1.00  0.00     0.142 A 
HETATM    2  N2  UNL     1      23.867   5.113  50.815  1.00  0.00    -0.224 NA
HETATM    3  C6  UNL     1      23.484   6.268  51.289  1.00  0.00     0.236 A 
HETATM    4  N3  UNL     1      24.331   7.216  50.935  1.00  0.00    -0.241 NA
HETATM    5  C7  UNL     1      25.455   7.022  50.173  1.00  0.00     0.075 A 
HETATM    6  C8  UNL     1      26.229   8.089  49.841  1.00  0.00     0.072 A 
HETATM    7  C9  UNL     1      27.381   7.934  49.018  1.00  0.00     0.103 A 
HETATM    8  C11 UNL     1      27.564   6.546  48.646  1.00  0.00     0.103 A 
HETATM    9  C19 UNL     1      26.834   5.475  48.944  1.00  0.00     0.057 A 
HETATM   10  C20 UNL     1      25.698   5.704  49.757  1.00  0.00     0.042 A 
ENDROOT
BRANCH   1  11
HETATM   11  N1  UNL     1      25.104   3.381  49.671  1.00  0.00    -0.340 N 
HETATM   12  H5  UNL     1      25.160   2.956  48.744  1.00  0.00     0.167 HD
BRANCH  11  13
HETATM   13  C4  UNL     1      25.352   2.503  50.744  1.00  0.00     0.034 A 
HETATM   14  C3  UNL     1      24.525   1.743  51.501  1.00  0.00     0.039 A 
HETATM   15  C2  UNL     1      24.545   0.862  52.515  1.00  0.00    -0.021 A 
HETATM   16  C1  UNL     1      23.306   0.239  53.026  1.00  0.00     0.051 C 
HETATM   17  C23 UNL     1      25.842   0.751  52.836  1.00  0.00     0.122 A 
HETATM   18  C22 UNL     1      26.988   1.341  52.335  1.00  0.00     0.045 A 
HETATM   19  F1  UNL     1      26.118  -0.128  53.860  1.00  0.00    -0.206 F 
HETATM   20  C21 UNL     1      26.647   2.218  51.275  1.00  0.00     0.032 A 
ENDBRANCH  11  13
ENDBRANCH   1  11
BRANCH   8  21
HETATM   21  O2  UNL     1      28.730   6.633  47.907  1.00  0.00    -0.348 OA
BRANCH  21  22
HETATM   22  C12 UNL     1      29.755   6.710  47.261  1.00  0.00     0.177 C 
BRANCH  22  23
HETATM   23  C13 UNL     1      31.003   7.049  48.227  1.00  0.00     0.046 C 
BRANCH  23  24
HETATM   24  C14 UNL     1      31.511   5.725  48.698  1.00  0.00     0.119 C 
BRANCH  24  25
HETATM   25  N4  UNL     1      32.800   5.347  48.373  1.00  0.00    -0.408 N 
HETATM   26  C15 UNL     1      33.219   4.232  47.665  1.00  0.00     0.143 C 
HETATM   27  C16 UNL     1      34.704   3.923  47.880  1.00  0.00     0.187 C 
HETATM   28  O3  UNL     1      35.249   4.724  48.851  1.00  0.00    -0.388 OA
HETATM   29  C17 UNL     1      35.122   6.061  48.645  1.00  0.00     0.187 C 
HETATM   30  C18 UNL     1      33.732   6.464  48.267  1.00  0.00     0.143 C 
ENDBRANCH  24  25
ENDBRANCH  23  24
ENDBRANCH  22  23
ENDBRANCH  21  22
ENDBRANCH   8  21
BRANCH   7  31
HETATM   31  O1  UNL     1      28.206   8.827  48.581  1.00  0.00    -0.353 OA
HETATM   32  C10 UNL     1      28.739  10.032  48.671  1.00  0.00     0.210 C 
ENDBRANCH   7  31
TORSDOF 8
ENDMDL
MODEL 7
REMARK VINA RESULT:      -7.1      3.695      7.617
REMARK  8 active torsions:
REMARK  status: ('A' for Active; 'I' for Inactive)
REMARK    1  A    between atoms: C4_4  and  N1_5 
REMARK    2  A    between atoms: N1_5  and  C5_6 
REMARK    3  A    between atoms: C9_12  and  O1_13 
REMARK    4  A    between atoms: C11_15  and  O2_16 
REMARK    5  A    between atoms: O2_16  and  C12_17 
REMARK    6  A    between atoms: C12_17  and  C13_18 
REMARK    7  A    between atoms: C13_18  and  C14_19 
REMARK    8  A    between atoms: C14_19  and  N4_20 
ROOT
HETATM    1  C5  UNL     1      24.439   4.146  49.727  1.00  0.00     0.142 A 
HETATM    2  N2  UNL     1      25.449   4.714  49.168  1.00  0.00    -0.224 NA
HETATM    3  C6  UNL     1      26.743   4.536  49.172  1.00  0.00     0.236 A 
HETATM    4  N3  UNL     1      27.067   3.518  49.946  1.00  0.00    -0.241 NA
HETATM    5  C7  UNL     1      26.175   2.749  50.648  1.00  0.00     0.075 A 
HETATM    6  C8  UNL     1      26.631   1.699  51.383  1.00  0.00     0.072 A 
HETATM    7  C9  UNL     1      25.732   0.853  52.093  1.00  0.00     0.103 A 
HETATM    8  C11 UNL     1      24.363   1.290  51.912  1.00  0.00     0.103 A 
HETATM    9  C19 UNL     1      23.872   2.304  51.204  1.00  0.00     0.057 A 
HETATM   10  C20 UNL     1      24.822   3.097  50.516  1.00  0.00     0.042 A 
ENDROOT
BRANCH   1  11
HETATM   11  N1  UNL     1      23.084   4.474  49.600  1.00  0.00    -0.340 N 
HETATM   12  H5  UNL     1      22.351   4.670  50.285  1.00  0.00     0.167 HD
BRANCH  11  13
HETATM   13  C4  UNL     1      22.680   4.572  48.254  1.00  0.00     0.034 A 
HETATM   14  C3  UNL     1      22.600   5.626  47.407  1.00  0.00     0.039 A 
HETATM   15  C2  UNL     1      22.275   5.931  46.140  1.00  0.00    -0.021 A 
HETATM   16  C1  UNL     1      22.369   7.314  45.626  1.00  0.00     0.051 C 
HETATM   17  C23 UNL     1      21.914   4.760  45.597  1.00  0.00     0.122 A 
HETATM   18  C22 UNL     1      21.841   3.473  46.099  1.00  0.00     0.045 A 
HETATM   19  F1  UNL     1      21.546   4.819  44.270  1.00  0.00    -0.206 F 
HETATM   20  C21 UNL     1      22.247   3.469  47.456  1.00  0.00     0.032 A 
ENDBRANCH  11  13
ENDBRANCH   1  11
BRANCH   8  21
HETATM   21  O2  UNL     1      23.697   0.372  52.703  1.00  0.00    -0.348 OA
BRANCH  21  22
HETATM   22  C12 UNL     1      23.110  -0.436  53.396  1.00  0.00     0.177 C 
BRANCH  22  23
HETATM   23  C13 UNL     1      21.542  -0.468  53.013  1.00  0.00     0.046 C 
BRANCH  23  24
HETATM   24  C14 UNL     1      21.007   0.866  53.422  1.00  0.00     0.119 C 
BRANCH  24  25
HETATM   25  N4  UNL     1      20.434   1.681  52.464  1.00  0.00    -0.408 N 
HETATM   26  C15 UNL     1      20.438   3.065  52.396  1.00  0.00     0.143 C 
HETATM   27  C16 UNL     1      19.354   3.610  51.460  1.00  0.00     0.187 C 
HETATM   28  O3  UNL     1      18.519   2.613  51.024  1.00  0.00    -0.388 OA
HETATM   29  C17 UNL     1      19.128   1.570  50.401  1.00  0.00     0.187 C 
HETATM   30  C18 UNL     1      20.313   1.053  51.153  1.00  0.00     0.143 C 
ENDBRANCH  24  25
ENDBRANCH  23  24
ENDBRANCH  22  23
ENDBRANCH  21  22
ENDBRANCH   8  21
BRANCH   7  31
HETATM   31  O1  UNL     1      25.979  -0.194  52.807  1.00  0.00    -0.353 OA
HETATM   32  C10 UNL     1      26.665  -1.305  53.009  1.00  0.00     0.210 C 
ENDBRANCH   7  31
TORSDOF 8
ENDMDL
MODEL 8
REMARK VINA RESULT:      -7.1      6.080      9.124
REMARK  8 active torsions:
REMARK  status: ('A' for Active; 'I' for Inactive)
REMARK    1  A    between atoms: C4_4  and  N1_5 
REMARK    2  A    between atoms: N1_5  and  C5_6 
REMARK    3  A    between atoms: C9_12  and  O1_13 
REMARK    4  A    between atoms: C11_15  and  O2_16 
REMARK    5  A    between atoms: O2_16  and  C12_17 
REMARK    6  A    between atoms: C12_17  and  C13_18 
REMARK    7  A    between atoms: C13_18  and  C14_19 
REMARK    8  A    between atoms: C14_19  and  N4_20 
ROOT
HETATM    1  C5  UNL     1      29.648   6.094  47.736  1.00  0.00     0.142 A 
HETATM    2  N2  UNL     1      30.036   7.291  47.476  1.00  0.00    -0.224 NA
HETATM    3  C6  UNL     1      29.528   8.488  47.603  1.00  0.00     0.236 A 
HETATM    4  N3  UNL     1      28.320   8.424  48.128  1.00  0.00    -0.241 NA
HETATM    5  C7  UNL     1      27.682   7.266  48.495  1.00  0.00     0.075 A 
HETATM    6  C8  UNL     1      26.449   7.334  49.064  1.00  0.00     0.072 A 
HETATM    7  C9  UNL     1      25.773   6.157  49.496  1.00  0.00     0.103 A 
HETATM    8  C11 UNL     1      26.570   4.978  49.226  1.00  0.00     0.103 A 
HETATM    9  C19 UNL     1      27.776   4.865  48.677  1.00  0.00     0.057 A 
HETATM   10  C20 UNL     1      28.394   6.076  48.280  1.00  0.00     0.042 A 
ENDROOT
BRANCH   1  11
HETATM   11  N1  UNL     1      30.346   4.896  47.537  1.00  0.00    -0.340 N 
HETATM   12  H5  UNL     1      30.047   3.955  47.274  1.00  0.00     0.167 HD
BRANCH  11  13
HETATM   13  C4  UNL     1      31.734   5.050  47.715  1.00  0.00     0.034 A 
HETATM   14  C3  UNL     1      32.795   4.595  47.005  1.00  0.00     0.039 A 
HETATM   15  C2  UNL     1      34.137   4.633  46.985  1.00  0.00    -0.021 A 
HETATM   16  C1  UNL     1      34.916   3.952  45.929  1.00  0.00     0.051 C 
HETATM   17  C23 UNL     1      34.467   5.377  48.050  1.00  0.00     0.122 A 
HETATM   18  C22 UNL     1      33.715   6.013  49.022  1.00  0.00     0.045 A 
HETATM   19  F1  UNL     1      35.819   5.574  48.230  1.00  0.00    -0.206 F 
HETATM   20  C21 UNL     1      32.337   5.793  48.776  1.00  0.00     0.032 A 
ENDBRANCH  11  13
ENDBRANCH   1  11
BRANCH   8  21
HETATM   21  O2  UNL     1      25.717   3.987  49.678  1.00  0.00    -0.348 OA
BRANCH  21  22
HETATM   22  C12 UNL     1      24.968   3.117  50.073  1.00  0.00     0.177 C 
BRANCH  22  23
HETATM   23  C13 UNL     1      25.342   2.702  51.588  1.00  0.00     0.046 C 
BRANCH  23  24
HETATM   24  C14 UNL     1      26.686   2.055  51.502  1.00  0.00     0.119 C 
BRANCH  24  25
HETATM   25  N4  UNL     1      27.013   1.064  52.409  1.00  0.00    -0.408 N 
HETATM   26  C15 UNL     1      28.067   1.030  53.307  1.00  0.00     0.143 C 
HETATM   27  C16 UNL     1      28.357  -0.383  53.820  1.00  0.00     0.187 C 
HETATM   28  O3  UNL     1      27.612  -1.323  53.154  1.00  0.00    -0.388 OA
HETATM   29  C17 UNL     1      26.267  -1.132  53.183  1.00  0.00     0.187 C 
HETATM   30  C18 UNL     1      25.870   0.272  52.852  1.00  0.00     0.143 C 
ENDBRANCH  24  25
ENDBRANCH  23  24
ENDBRANCH  22  23
ENDBRANCH  21  22
ENDBRANCH   8  21
BRANCH   7  31
HETATM   31  O1  UNL     1      24.626   6.035  50.076  1.00  0.00    -0.353 OA
HETATM   32  C10 UNL     1      23.730   6.474  50.942  1.00  0.00     0.210 C 
ENDBRANCH   7  31
TORSDOF 8
ENDMDL
MODEL 9
REMARK VINA RESULT:      -6.9      3.685      6.082
REMARK  8 active torsions:
REMARK  status: ('A' for Active; 'I' for Inactive)
REMARK    1  A    between atoms: C4_4  and  N1_5 
REMARK    2  A    between atoms: N1_5  and  C5_6 
REMARK    3  A    between atoms: C9_12  and  O1_13 
REMARK    4  A    between atoms: C11_15  and  O2_16 
REMARK    5  A    between atoms: O2_16  and  C12_17 
REMARK    6  A    between atoms: C12_17  and  C13_18 
REMARK    7  A    between atoms: C13_18  and  C14_19 
REMARK    8  A    between atoms: C14_19  and  N4_20 
ROOT
HETATM    1  C5  UNL     1      25.684   2.684  50.781  1.00  0.00     0.142 A 
HETATM    2  N2  UNL     1      26.860   2.719  51.300  1.00  0.00    -0.224 NA
HETATM    3  C6  UNL     1      27.433   2.204  52.355  1.00  0.00     0.236 A 
HETATM    4  N3  UNL     1      26.572   1.475  53.039  1.00  0.00    -0.241 NA
HETATM    5  C7  UNL     1      25.260   1.277  52.693  1.00  0.00     0.075 A 
HETATM    6  C8  UNL     1      24.481   0.470  53.461  1.00  0.00     0.072 A 
HETATM    7  C9  UNL     1      23.126   0.208  53.112  1.00  0.00     0.103 A 
HETATM    8  C11 UNL     1      22.761   0.913  51.901  1.00  0.00     0.103 A 
HETATM    9  C19 UNL     1      23.486   1.708  51.120  1.00  0.00     0.057 A 
HETATM   10  C20 UNL     1      24.828   1.916  51.521  1.00  0.00     0.042 A 
ENDROOT
BRANCH   1  11
HETATM   11  N1  UNL     1      25.238   3.307  49.609  1.00  0.00    -0.340 N 
HETATM   12  H5  UNL     1      24.482   3.094  48.956  1.00  0.00     0.167 HD
BRANCH  11  13
HETATM   13  C4  UNL     1      25.977   4.467  49.305  1.00  0.00     0.034 A 
HETATM   14  C3  UNL     1      27.241   4.642  48.851  1.00  0.00     0.039 A 
HETATM   15  C2  UNL     1      28.103   5.608  48.493  1.00  0.00    -0.021 A 
HETATM   16  C1  UNL     1      29.464   5.294  48.011  1.00  0.00     0.051 C 
HETATM   17  C23 UNL     1      27.422   6.748  48.677  1.00  0.00     0.122 A 
HETATM   18  C22 UNL     1      26.140   7.016  49.124  1.00  0.00     0.045 A 
HETATM   19  F1  UNL     1      28.108   7.898  48.354  1.00  0.00    -0.206 F 
HETATM   20  C21 UNL     1      25.476   5.800  49.422  1.00  0.00     0.032 A 
ENDBRANCH  11  13
ENDBRANCH   1  11
BRANCH   8  21
HETATM   21  O2  UNL     1      21.431   0.551  51.788  1.00  0.00    -0.348 OA
BRANCH  21  22
HETATM   22  C12 UNL     1      20.263   0.231  51.686  1.00  0.00     0.177 C 
BRANCH  22  23
HETATM   23  C13 UNL     1      19.483   1.261  50.717  1.00  0.00     0.046 C 
BRANCH  23  24
HETATM   24  C14 UNL     1      18.030   1.025  50.977  1.00  0.00     0.119 C 
BRANCH  24  25
HETATM   25  N4  UNL     1      17.198   2.113  51.163  1.00  0.00    -0.408 N 
HETATM   26  C15 UNL     1      17.541   3.419  51.473  1.00  0.00     0.143 C 
HETATM   27  C16 UNL     1      16.358   4.223  52.021  1.00  0.00     0.187 C 
HETATM   28  O3  UNL     1      15.263   3.425  52.233  1.00  0.00    -0.388 OA
HETATM   29  C17 UNL     1      14.830   2.725  51.152  1.00  0.00     0.187 C 
HETATM   30  C18 UNL     1      15.938   2.020  50.433  1.00  0.00     0.143 C 
ENDBRANCH  24  25
ENDBRANCH  23  24
ENDBRANCH  22  23
ENDBRANCH  21  22
ENDBRANCH   8  21
BRANCH   7  31
HETATM   31  O1  UNL     1      22.257  -0.548  53.698  1.00  0.00    -0.353 OA
HETATM   32  C10 UNL     1      21.854  -1.209  54.768  1.00  0.00     0.210 C 
ENDBRANCH   7  31
TORSDOF 8
ENDMDL
