MODEL 1
REMARK VINA RESULT:      -7.5      0.000      0.000
REMARK  6 active torsions:
REMARK  status: ('A' for Active; 'I' for Inactive)
REMARK    1  A    between atoms: C5_8  and  C6_9 
REMARK    2  A    between atoms: C6_9  and  C7_10 
REMARK    3  A    between atoms: C7_10  and  C8_11 
REMARK    4  A    between atoms: C7_10  and  N4_19 
REMARK    5  A    between atoms: C8_11  and  C9_12 
REMARK    6  A    between atoms: C9_12  and  C10_13 
ROOT
HETATM    1  C7  UNL     1      24.362   3.141  51.984  1.00  0.00     0.134 C 
ENDROOT
BRANCH   1   2
HETATM    2  C6  UNL     1      24.860   2.744  53.352  1.00  0.00     0.058 C 
BRANCH   2   3
HETATM    3  C5  UNL     1      25.815   1.619  53.304  1.00  0.00     0.009 C 
HETATM    4  C4  UNL     1      27.097   1.517  53.619  1.00  0.00     0.076 A 
HETATM    5  C2  UNL     1      28.138   0.472  53.617  1.00  0.00     0.097 A 
HETATM    6  N3  UNL     1      27.773   2.692  54.116  1.00  0.00    -0.277 N 
HETATM    7  N1  UNL     1      27.794  -0.706  53.208  1.00  0.00    -0.291 NA
HETATM    8  C3  UNL     1      29.347   1.119  54.113  1.00  0.00     0.172 A 
HETATM    9  C1  UNL     1      28.785  -1.765  53.187  1.00  0.00     0.178 C 
HETATM   10  N2  UNL     1      29.100   2.351  54.378  1.00  0.00    -0.184 NA
HETATM   11  H5  UNL     1      27.539   3.690  54.321  1.00  0.00     0.189 HD
ENDBRANCH   2   3
ENDBRANCH   1   2
BRANCH   1  12
HETATM   12  C8  UNL     1      23.659   1.999  51.276  1.00  0.00     0.034 C 
BRANCH  12  13
HETATM   13  C9  UNL     1      22.220   1.990  51.660  1.00  0.00     0.041 C 
BRANCH  13  14
HETATM   14  C10 UNL     1      21.881   0.953  52.664  1.00  0.00    -0.058 A 
HETATM   15  C11 UNL     1      22.660  -0.206  52.728  1.00  0.00     0.007 A 
HETATM   16  C12 UNL     1      22.394  -1.223  53.652  1.00  0.00     0.001 A 
HETATM   17  C13 UNL     1      21.339  -1.076  54.516  1.00  0.00     0.000 A 
HETATM   18  C14 UNL     1      20.590   0.066  54.438  1.00  0.00     0.001 A 
HETATM   19  C15 UNL     1      20.822   1.090  53.540  1.00  0.00     0.007 A 
ENDBRANCH  13  14
ENDBRANCH  12  13
ENDBRANCH   1  12
BRANCH   1  20
HETATM   20  N4  UNL     1      23.416   4.206  52.198  1.00  0.00    -0.195 NA
HETATM   21  N5  UNL     1      23.695   5.127  52.991  1.00  0.00    -0.208 NA
HETATM   22  H19 UNL     1      24.561   5.193  53.515  1.00  0.00     0.211 HD
ENDBRANCH   1  20
TORSDOF 6
ENDMDL
MODEL 2
REMARK VINA RESULT:      -7.3      1.679      2.092
REMARK  6 active torsions:
REMARK  status: ('A' for Active; 'I' for Inactive)
REMARK    1  A    between atoms: C5_8  and  C6_9 
REMARK    2  A    between atoms: C6_9  and  C7_10 
REMARK    3  A    between atoms: C7_10  and  C8_11 
REMARK    4  A    between atoms: C7_10  and  N4_19 
REMARK    5  A    between atoms: C8_11  and  C9_12 
REMARK    6  A    between atoms: C9_12  and  C10_13 
ROOT
HETATM    1  C7  UNL     1      24.111   1.447  51.994  1.00  0.00     0.134 C 
ENDROOT
BRANCH   1   2
HETATM    2  C6  UNL     1      24.418   0.950  53.385  1.00  0.00     0.058 C 
BRANCH   2   3
HETATM    3  C5  UNL     1      25.763   0.350  53.489  1.00  0.00     0.009 C 
HETATM    4  C4  UNL     1      26.961   0.866  53.716  1.00  0.00     0.076 A 
HETATM    5  C2  UNL     1      28.348   0.381  53.841  1.00  0.00     0.097 A 
HETATM    6  N3  UNL     1      27.062   2.293  53.910  1.00  0.00    -0.277 N 
HETATM    7  N1  UNL     1      28.546  -0.890  53.707  1.00  0.00    -0.291 NA
HETATM    8  C3  UNL     1      29.158   1.567  54.100  1.00  0.00     0.172 A 
HETATM    9  C1  UNL     1      29.895  -1.411  53.822  1.00  0.00     0.178 C 
HETATM   10  N2  UNL     1      28.404   2.606  54.130  1.00  0.00    -0.184 NA
HETATM   11  H5  UNL     1      26.422   3.119  53.928  1.00  0.00     0.189 HD
ENDBRANCH   2   3
ENDBRANCH   1   2
BRANCH   1  12
HETATM   12  C8  UNL     1      22.647   1.283  51.636  1.00  0.00     0.034 C 
BRANCH  12  13
HETATM   13  C9  UNL     1      21.900   0.789  52.826  1.00  0.00     0.041 C 
BRANCH  13  14
HETATM   14  C10 UNL     1      20.533   0.310  52.510  1.00  0.00    -0.058 A 
HETATM   15  C11 UNL     1      19.863  -0.487  53.444  1.00  0.00     0.007 A 
HETATM   16  C12 UNL     1      18.571  -0.972  53.208  1.00  0.00     0.001 A 
HETATM   17  C13 UNL     1      17.948  -0.654  52.027  1.00  0.00     0.000 A 
HETATM   18  C14 UNL     1      18.621   0.126  51.127  1.00  0.00     0.001 A 
HETATM   19  C15 UNL     1      19.894   0.622  51.325  1.00  0.00     0.007 A 
ENDBRANCH  13  14
ENDBRANCH  12  13
ENDBRANCH   1  12
BRANCH   1  20
HETATM   20  N4  UNL     1      24.434   2.852  51.992  1.00  0.00    -0.195 NA
HETATM   21  N5  UNL     1      24.360   3.501  53.055  1.00  0.00    -0.208 NA
HETATM   22  H19 UNL     1      24.086   3.112  53.950  1.00  0.00     0.211 HD
ENDBRANCH   1  20
TORSDOF 6
ENDMDL
MODEL 3
REMARK VINA RESULT:      -7.2      2.550      4.302
REMARK  6 active torsions:
REMARK  status: ('A' for Active; 'I' for Inactive)
REMARK    1  A    between atoms: C5_8  and  C6_9 
REMARK    2  A    between atoms: C6_9  and  C7_10 
REMARK    3  A    between atoms: C7_10  and  C8_11 
REMARK    4  A    between atoms: C7_10  and  N4_19 
REMARK    5  A    between atoms: C8_11  and  C9_12 
REMARK    6  A    between atoms: C9_12  and  C10_13 
ROOT
HETATM    1  C7  UNL     1      22.621  -0.060  53.896  1.00  0.00     0.134 C 
ENDROOT
BRANCH   1   2
HETATM    2  C6  UNL     1      23.804  -0.683  53.198  1.00  0.00     0.058 C 
BRANCH   2   3
HETATM    3  C5  UNL     1      25.041   0.107  53.363  1.00  0.00     0.009 C 
HETATM    4  C4  UNL     1      26.321  -0.230  53.405  1.00  0.00     0.076 A 
HETATM    5  C2  UNL     1      27.620   0.451  53.560  1.00  0.00     0.097 A 
HETATM    6  N3  UNL     1      26.664  -1.626  53.272  1.00  0.00    -0.277 N 
HETATM    7  N1  UNL     1      27.601   1.737  53.701  1.00  0.00    -0.291 NA
HETATM    8  C3  UNL     1      28.627  -0.603  53.507  1.00  0.00     0.172 A 
HETATM    9  C1  UNL     1      28.856   2.449  53.858  1.00  0.00     0.178 C 
HETATM   10  N2  UNL     1      28.052  -1.740  53.347  1.00  0.00    -0.184 NA
HETATM   11  H5  UNL     1      26.166  -2.536  53.142  1.00  0.00     0.189 HD
ENDBRANCH   2   3
ENDBRANCH   1   2
BRANCH   1  12
HETATM   12  C8  UNL     1      21.845   0.874  52.987  1.00  0.00     0.034 C 
BRANCH  12  13
HETATM   13  C9  UNL     1      21.596   0.200  51.683  1.00  0.00     0.041 C 
BRANCH  13  14
HETATM   14  C10 UNL     1      21.969   1.025  50.508  1.00  0.00    -0.058 A 
HETATM   15  C11 UNL     1      22.960   1.999  50.654  1.00  0.00     0.007 A 
HETATM   16  C12 UNL     1      23.359   2.811  49.586  1.00  0.00     0.001 A 
HETATM   17  C13 UNL     1      22.758   2.643  48.364  1.00  0.00     0.000 A 
HETATM   18  C14 UNL     1      21.791   1.684  48.242  1.00  0.00     0.001 A 
HETATM   19  C15 UNL     1      21.372   0.865  49.273  1.00  0.00     0.007 A 
ENDBRANCH  13  14
ENDBRANCH  12  13
ENDBRANCH   1  12
BRANCH   1  20
HETATM   20  N4  UNL     1      21.763  -1.152  54.279  1.00  0.00    -0.195 NA
HETATM   21  N5  UNL     1      22.050  -1.838  55.280  1.00  0.00    -0.208 NA
HETATM   22  H19 UNL     1      22.862  -1.687  55.868  1.00  0.00     0.211 HD
ENDBRANCH   1  20
TORSDOF 6
ENDMDL
MODEL 4
REMARK VINA RESULT:      -7.0      2.505      6.197
REMARK  6 active torsions:
REMARK  status: ('A' for Active; 'I' for Inactive)
REMARK    1  A    between atoms: C5_8  and  C6_9 
REMARK    2  A    between atoms: C6_9  and  C7_10 
REMARK    3  A    between atoms: C7_10  and  C8_11 
REMARK    4  A    between atoms: C7_10  and  N4_19 
REMARK    5  A    between atoms: C8_11  and  C9_12 
REMARK    6  A    between atoms: C9_12  and  C10_13 
ROOT
HETATM    1  C7  UNL     1      23.152  -0.855  53.893  1.00  0.00     0.134 C 
ENDROOT
BRANCH   1   2
HETATM    2  C6  UNL     1      22.364   0.411  53.661  1.00  0.00     0.058 C 
BRANCH   2   3
HETATM    3  C5  UNL     1      22.308   0.791  52.235  1.00  0.00     0.009 C 
HETATM    4  C4  UNL     1      22.959   1.697  51.523  1.00  0.00     0.076 A 
HETATM    5  C2  UNL     1      22.993   2.162  50.124  1.00  0.00     0.097 A 
HETATM    6  N3  UNL     1      23.937   2.519  52.195  1.00  0.00    -0.277 N 
HETATM    7  N1  UNL     1      22.196   1.580  49.287  1.00  0.00    -0.291 NA
HETATM    8  C3  UNL     1      23.991   3.225  50.085  1.00  0.00     0.172 A 
HETATM    9  C1  UNL     1      22.193   2.006  47.900  1.00  0.00     0.178 C 
HETATM   10  N2  UNL     1      24.490   3.391  51.256  1.00  0.00    -0.184 NA
HETATM   11  H5  UNL     1      24.323   2.629  53.160  1.00  0.00     0.189 HD
ENDBRANCH   2   3
ENDBRANCH   1   2
BRANCH   1  12
HETATM   12  C8  UNL     1      24.597  -0.573  54.255  1.00  0.00     0.034 C 
BRANCH  12  13
HETATM   13  C9  UNL     1      25.449  -0.726  53.043  1.00  0.00     0.041 C 
BRANCH  13  14
HETATM   14  C10 UNL     1      26.903  -0.692  53.332  1.00  0.00    -0.058 A 
HETATM   15  C11 UNL     1      27.703  -1.754  52.900  1.00  0.00     0.007 A 
HETATM   16  C12 UNL     1      29.082  -1.783  53.140  1.00  0.00     0.001 A 
HETATM   17  C13 UNL     1      29.660  -0.739  53.819  1.00  0.00     0.000 A 
HETATM   18  C14 UNL     1      28.859   0.289  54.233  1.00  0.00     0.001 A 
HETATM   19  C15 UNL     1      27.497   0.353  54.014  1.00  0.00     0.007 A 
ENDBRANCH  13  14
ENDBRANCH  12  13
ENDBRANCH   1  12
BRANCH   1  20
HETATM   20  N4  UNL     1      22.518  -1.522  55.002  1.00  0.00    -0.195 NA
HETATM   21  N5  UNL     1      23.199  -1.849  55.994  1.00  0.00    -0.208 NA
HETATM   22  H19 UNL     1      24.194  -1.678  56.090  1.00  0.00     0.211 HD
ENDBRANCH   1  20
TORSDOF 6
ENDMDL
MODEL 5
REMARK VINA RESULT:      -7.0      2.943      5.313
REMARK  6 active torsions:
REMARK  status: ('A' for Active; 'I' for Inactive)
REMARK    1  A    between atoms: C5_8  and  C6_9 
REMARK    2  A    between atoms: C6_9  and  C7_10 
REMARK    3  A    between atoms: C7_10  and  C8_11 
REMARK    4  A    between atoms: C7_10  and  N4_19 
REMARK    5  A    between atoms: C8_11  and  C9_12 
REMARK    6  A    between atoms: C9_12  and  C10_13 
ROOT
HETATM    1  C7  UNL     1      23.902   2.543  51.675  1.00  0.00     0.134 C 
ENDROOT
BRANCH   1   2
HETATM    2  C6  UNL     1      24.593   2.469  53.014  1.00  0.00     0.058 C 
BRANCH   2   3
HETATM    3  C5  UNL     1      25.642   1.430  53.055  1.00  0.00     0.009 C 
HETATM    4  C4  UNL     1      26.911   1.452  53.431  1.00  0.00     0.076 A 
HETATM    5  C2  UNL     1      28.036   0.501  53.518  1.00  0.00     0.097 A 
HETATM    6  N3  UNL     1      27.459   2.698  53.910  1.00  0.00    -0.277 N 
HETATM    7  N1  UNL     1      27.813  -0.716  53.143  1.00  0.00    -0.291 NA
HETATM    8  C3  UNL     1      29.160   1.269  54.042  1.00  0.00     0.172 A 
HETATM    9  C1  UNL     1      28.891  -1.684  53.210  1.00  0.00     0.178 C 
HETATM   10  N2  UNL     1      28.796   2.483  54.245  1.00  0.00    -0.184 NA
HETATM   11  H5  UNL     1      27.132   3.679  54.063  1.00  0.00     0.189 HD
ENDBRANCH   2   3
ENDBRANCH   1   2
BRANCH   1  12
HETATM   12  C8  UNL     1      24.832   3.016  50.575  1.00  0.00     0.034 C 
BRANCH  12  13
HETATM   13  C9  UNL     1      24.708   4.493  50.424  1.00  0.00     0.041 C 
BRANCH  13  14
HETATM   14  C10 UNL     1      25.827   5.109  49.671  1.00  0.00    -0.058 A 
HETATM   15  C11 UNL     1      26.879   4.296  49.240  1.00  0.00     0.007 A 
HETATM   16  C12 UNL     1      27.965   4.814  48.524  1.00  0.00     0.001 A 
HETATM   17  C13 UNL     1      27.995   6.156  48.242  1.00  0.00     0.000 A 
HETATM   18  C14 UNL     1      26.955   6.934  48.672  1.00  0.00     0.001 A 
HETATM   19  C15 UNL     1      25.868   6.459  49.380  1.00  0.00     0.007 A 
ENDBRANCH  13  14
ENDBRANCH  12  13
ENDBRANCH   1  12
BRANCH   1  20
HETATM   20  N4  UNL     1      23.473   1.200  51.372  1.00  0.00    -0.195 NA
HETATM   21  N5  UNL     1      22.263   0.910  51.444  1.00  0.00    -0.208 NA
HETATM   22  H19 UNL     1      21.529   1.561  51.705  1.00  0.00     0.211 HD
ENDBRANCH   1  20
TORSDOF 6
ENDMDL
MODEL 6
REMARK VINA RESULT:      -7.0      2.326      4.888
REMARK  6 active torsions:
REMARK  status: ('A' for Active; 'I' for Inactive)
REMARK    1  A    between atoms: C5_8  and  C6_9 
REMARK    2  A    between atoms: C6_9  and  C7_10 
REMARK    3  A    between atoms: C7_10  and  C8_11 
REMARK    4  A    between atoms: C7_10  and  N4_19 
REMARK    5  A    between atoms: C8_11  and  C9_12 
REMARK    6  A    between atoms: C9_12  and  C10_13 
ROOT
HETATM    1  C7  UNL     1      26.726   1.928  53.399  1.00  0.00     0.134 C 
ENDROOT
BRANCH   1   2
HETATM    2  C6  UNL     1      26.835   1.902  51.894  1.00  0.00     0.058 C 
BRANCH   2   3
HETATM    3  C5  UNL     1      25.722   2.611  51.232  1.00  0.00     0.009 C 
HETATM    4  C4  UNL     1      25.681   3.653  50.417  1.00  0.00     0.076 A 
HETATM    5  C2  UNL     1      24.655   4.436  49.703  1.00  0.00     0.097 A 
HETATM    6  N3  UNL     1      26.928   4.282  50.051  1.00  0.00    -0.277 N 
HETATM    7  N1  UNL     1      23.422   4.078  49.859  1.00  0.00    -0.291 NA
HETATM    8  C3  UNL     1      25.383   5.468  48.973  1.00  0.00     0.172 A 
HETATM    9  C1  UNL     1      22.378   4.820  49.177  1.00  0.00     0.178 C 
HETATM   10  N2  UNL     1      26.642   5.346  49.195  1.00  0.00    -0.184 NA
HETATM   11  H5  UNL     1      27.946   4.157  50.252  1.00  0.00     0.189 HD
ENDBRANCH   2   3
ENDBRANCH   1   2
BRANCH   1  12
HETATM   12  C8  UNL     1      26.538   0.541  53.984  1.00  0.00     0.034 C 
BRANCH  12  13
HETATM   13  C9  UNL     1      25.624  -0.245  53.109  1.00  0.00     0.041 C 
BRANCH  13  14
HETATM   14  C10 UNL     1      24.217  -0.254  53.579  1.00  0.00    -0.058 A 
HETATM   15  C11 UNL     1      23.869  -1.077  54.654  1.00  0.00     0.007 A 
HETATM   16  C12 UNL     1      22.560  -1.132  55.147  1.00  0.00     0.001 A 
HETATM   17  C13 UNL     1      21.595  -0.357  54.555  1.00  0.00     0.000 A 
HETATM   18  C14 UNL     1      21.956   0.442  53.505  1.00  0.00     0.001 A 
HETATM   19  C15 UNL     1      23.236   0.523  52.993  1.00  0.00     0.007 A 
ENDBRANCH  13  14
ENDBRANCH  12  13
ENDBRANCH   1  12
BRANCH   1  20
HETATM   20  N4  UNL     1      27.971   2.469  53.880  1.00  0.00    -0.195 NA
HETATM   21  N5  UNL     1      28.827   2.865  53.064  1.00  0.00    -0.208 NA
HETATM   22  H19 UNL     1      28.716   2.838  52.056  1.00  0.00     0.211 HD
ENDBRANCH   1  20
TORSDOF 6
ENDMDL
MODEL 7
REMARK VINA RESULT:      -6.9      3.469      5.162
REMARK  6 active torsions:
REMARK  status: ('A' for Active; 'I' for Inactive)
REMARK    1  A    between atoms: C5_8  and  C6_9 
REMARK    2  A    between atoms: C6_9  and  C7_10 
REMARK    3  A    between atoms: C7_10  and  C8_11 
REMARK    4  A    between atoms: C7_10  and  N4_19 
REMARK    5  A    between atoms: C8_11  and  C9_12 
REMARK    6  A    between atoms: C9_12  and  C10_13 
ROOT
HETATM    1  C7  UNL     1      25.191   3.025  51.703  1.00  0.00     0.134 C 
ENDROOT
BRANCH   1   2
HETATM    2  C6  UNL     1      24.662   3.121  50.293  1.00  0.00     0.058 C 
BRANCH   2   3
HETATM    3  C5  UNL     1      24.934   4.433  49.673  1.00  0.00     0.009 C 
HETATM    4  C4  UNL     1      26.034   4.982  49.181  1.00  0.00     0.076 A 
HETATM    5  C2  UNL     1      26.424   6.255  48.548  1.00  0.00     0.097 A 
HETATM    6  N3  UNL     1      27.255   4.213  49.219  1.00  0.00    -0.277 N 
HETATM    7  N1  UNL     1      25.500   7.145  48.389  1.00  0.00    -0.291 NA
HETATM    8  C3  UNL     1      27.850   6.134  48.264  1.00  0.00     0.172 A 
HETATM    9  C1  UNL     1      25.839   8.414  47.771  1.00  0.00     0.178 C 
HETATM   10  N2  UNL     1      28.271   4.985  48.653  1.00  0.00    -0.184 NA
HETATM   11  H5  UNL     1      27.566   3.271  49.547  1.00  0.00     0.189 HD
ENDBRANCH   2   3
ENDBRANCH   1   2
BRANCH   1  12
HETATM   12  C8  UNL     1      24.210   2.346  52.639  1.00  0.00     0.034 C 
BRANCH  12  13
HETATM   13  C9  UNL     1      23.431   1.326  51.883  1.00  0.00     0.041 C 
BRANCH  13  14
HETATM   14  C10 UNL     1      22.652   0.411  52.752  1.00  0.00    -0.058 A 
HETATM   15  C11 UNL     1      23.311  -0.274  53.776  1.00  0.00     0.007 A 
HETATM   16  C12 UNL     1      22.634  -1.151  54.632  1.00  0.00     0.001 A 
HETATM   17  C13 UNL     1      21.286  -1.341  54.456  1.00  0.00     0.000 A 
HETATM   18  C14 UNL     1      20.660  -0.661  53.449  1.00  0.00     0.001 A 
HETATM   19  C15 UNL     1      21.294   0.212  52.586  1.00  0.00     0.007 A 
ENDBRANCH  13  14
ENDBRANCH  12  13
ENDBRANCH   1  12
BRANCH   1  20
HETATM   20  N4  UNL     1      26.387   2.226  51.627  1.00  0.00    -0.195 NA
HETATM   21  N5  UNL     1      27.488   2.739  51.909  1.00  0.00    -0.208 NA
HETATM   22  H19 UNL     1      27.618   3.702  52.199  1.00  0.00     0.211 HD
ENDBRANCH   1  20
TORSDOF 6
ENDMDL
MODEL 8
REMARK VINA RESULT:      -6.8      2.603      6.750
REMARK  6 active torsions:
REMARK  status: ('A' for Active; 'I' for Inactive)
REMARK    1  A    between atoms: C5_8  and  C6_9 
REMARK    2  A    between atoms: C6_9  and  C7_10 
REMARK    3  A    between atoms: C7_10  and  C8_11 
REMARK    4  A    between atoms: C7_10  and  N4_19 
REMARK    5  A    between atoms: C8_11  and  C9_12 
REMARK    6  A    between atoms: C9_12  and  C10_13 
ROOT
HETATM    1  C7  UNL     1      23.862  -0.824  53.679  1.00  0.00     0.134 C 
ENDROOT
BRANCH   1   2
HETATM    2  C6  UNL     1      22.653  -0.228  53.000  1.00  0.00     0.058 C 
BRANCH   2   3
HETATM    3  C5  UNL     1      22.867   1.175  52.591  1.00  0.00     0.009 C 
HETATM    4  C4  UNL     1      22.041   2.198  52.432  1.00  0.00     0.076 A 
HETATM    5  C2  UNL     1      22.131   3.616  52.037  1.00  0.00     0.097 A 
HETATM    6  N3  UNL     1      20.637   1.987  52.689  1.00  0.00    -0.277 N 
HETATM    7  N1  UNL     1      23.304   4.077  51.747  1.00  0.00    -0.291 NA
HETATM    8  C3  UNL     1      20.766   4.128  52.093  1.00  0.00     0.172 A 
HETATM    9  C1  UNL     1      23.440   5.466  51.352  1.00  0.00     0.178 C 
HETATM   10  N2  UNL     1      19.969   3.190  52.458  1.00  0.00    -0.184 NA
HETATM   11  H5  UNL     1      20.014   1.203  52.988  1.00  0.00     0.189 HD
ENDBRANCH   2   3
ENDBRANCH   1   2
BRANCH   1  12
HETATM   12  C8  UNL     1      25.045   0.125  53.682  1.00  0.00     0.034 C 
BRANCH  12  13
HETATM   13  C9  UNL     1      25.955  -0.216  52.554  1.00  0.00     0.041 C 
BRANCH  13  14
HETATM   14  C10 UNL     1      27.376  -0.349  52.958  1.00  0.00    -0.058 A 
HETATM   15  C11 UNL     1      27.966  -1.616  52.947  1.00  0.00     0.007 A 
HETATM   16  C12 UNL     1      29.302  -1.811  53.316  1.00  0.00     0.001 A 
HETATM   17  C13 UNL     1      30.049  -0.725  53.700  1.00  0.00     0.000 A 
HETATM   18  C14 UNL     1      29.453   0.505  53.704  1.00  0.00     0.001 A 
HETATM   19  C15 UNL     1      28.139   0.735  53.346  1.00  0.00     0.007 A 
ENDBRANCH  13  14
ENDBRANCH  12  13
ENDBRANCH   1  12
BRANCH   1  20
HETATM   20  N4  UNL     1      23.469  -1.078  55.042  1.00  0.00    -0.195 NA
HETATM   21  N5  UNL     1      22.275  -1.327  55.301  1.00  0.00    -0.208 NA
HETATM   22  H19 UNL     1      21.532  -1.369  54.612  1.00  0.00     0.211 HD
ENDBRANCH   1  20
TORSDOF 6
ENDMDL
MODEL 9
REMARK VINA RESULT:      -6.7      3.487      6.132
REMARK  6 active torsions:
REMARK  status: ('A' for Active; 'I' for Inactive)
REMARK    1  A    between atoms: C5_8  and  C6_9 
REMARK    2  A    between atoms: C6_9  and  C7_10 
REMARK    3  A    between atoms: C7_10  and  C8_11 
REMARK    4  A    between atoms: C7_10  and  N4_19 
REMARK    5  A    between atoms: C8_11  and  C9_12 
REMARK    6  A    between atoms: C9_12  and  C10_13 
ROOT
HETATM    1  C7  UNL     1      24.590   2.926  51.229  1.00  0.00     0.134 C 
ENDROOT
BRANCH   1   2
HETATM    2  C6  UNL     1      24.743   3.043  49.732  1.00  0.00     0.058 C 
BRANCH   2   3
HETATM    3  C5  UNL     1      26.018   3.678  49.341  1.00  0.00     0.009 C 
HETATM    4  C4  UNL     1      26.331   4.914  48.985  1.00  0.00     0.076 A 
HETATM    5  C2  UNL     1      27.541   5.655  48.581  1.00  0.00     0.097 A 
HETATM    6  N3  UNL     1      25.278   5.900  48.946  1.00  0.00    -0.277 N 
HETATM    7  N1  UNL     1      28.651   4.995  48.532  1.00  0.00    -0.291 NA
HETATM    8  C3  UNL     1      27.100   7.024  48.335  1.00  0.00     0.172 A 
HETATM    9  C1  UNL     1      29.866   5.684  48.138  1.00  0.00     0.178 C 
HETATM   10  N2  UNL     1      25.837   7.116  48.549  1.00  0.00    -0.184 NA
HETATM   11  H5  UNL     1      24.250   5.942  49.128  1.00  0.00     0.189 HD
ENDBRANCH   2   3
ENDBRANCH   1   2
BRANCH   1  12
HETATM   12  C8  UNL     1      25.887   2.535  51.910  1.00  0.00     0.034 C 
BRANCH  12  13
HETATM   13  C9  UNL     1      25.903   1.062  52.134  1.00  0.00     0.041 C 
BRANCH  13  14
HETATM   14  C10 UNL     1      27.179   0.563  52.700  1.00  0.00    -0.058 A 
HETATM   15  C11 UNL     1      27.408  -0.815  52.739  1.00  0.00     0.007 A 
HETATM   16  C12 UNL     1      28.592  -1.352  53.259  1.00  0.00     0.001 A 
HETATM   17  C13 UNL     1      29.551  -0.498  53.744  1.00  0.00     0.000 A 
HETATM   18  C14 UNL     1      29.307   0.846  53.696  1.00  0.00     0.001 A 
HETATM   19  C15 UNL     1      28.153   1.412  53.191  1.00  0.00     0.007 A 
ENDBRANCH  13  14
ENDBRANCH  12  13
ENDBRANCH   1  12
BRANCH   1  20
HETATM   20  N4  UNL     1      24.199   4.233  51.693  1.00  0.00    -0.195 NA
HETATM   21  N5  UNL     1      24.065   4.437  52.915  1.00  0.00    -0.208 NA
HETATM   22  H19 UNL     1      24.215   3.739  53.635  1.00  0.00     0.211 HD
ENDBRANCH   1  20
TORSDOF 6
ENDMDL
