MODEL 1
REMARK VINA RESULT:      -8.2      0.000      0.000
REMARK  2 active torsions:
REMARK  status: ('A' for Active; 'I' for Inactive)
REMARK    1  A    between atoms: C9_9  and  N1_10 
REMARK    2  A    between atoms: N1_10  and  C10_11 
ROOT
HETATM    1  C1  UNL     1      22.575   4.454  49.049  1.00  0.00    -0.026 C 
HETATM    2  C2  UNL     1      21.587   3.620  49.359  1.00  0.00    -0.024 C 
HETATM    3  C3  UNL     1      21.926   2.175  49.570  1.00  0.00     0.085 C 
HETATM    4  C4  UNL     1      23.198   2.153  50.338  1.00  0.00     0.032 A 
HETATM    5  C5  UNL     1      24.187   2.983  50.045  1.00  0.00    -0.047 A 
HETATM    6  C6  UNL     1      23.983   3.945  48.918  1.00  0.00     0.063 C 
HETATM    7  C7  UNL     1      25.505   3.068  50.726  1.00  0.00     0.096 A 
HETATM    8  C8  UNL     1      25.615   2.077  51.830  1.00  0.00     0.045 A 
HETATM    9  C9  UNL     1      26.714   2.025  52.527  1.00  0.00     0.115 C 
HETATM   10  N4  UNL     1      24.569   1.176  52.163  1.00  0.00    -0.303 N 
HETATM   11  N5  UNL     1      23.369   1.218  51.416  1.00  0.00    -0.304 N 
HETATM   12  H16 UNL     1      24.587   0.471  52.912  1.00  0.00     0.186 HD
HETATM   13  H17 UNL     1      22.551   0.578  51.608  1.00  0.00     0.186 HD
ENDROOT
BRANCH   9  14
HETATM   14  N1  UNL     1      26.925   1.103  53.616  1.00  0.00    -0.366 N 
HETATM   15  H10 UNL     1      26.224   0.853  54.369  1.00  0.00     0.165 HD
BRANCH  14  16
HETATM   16  C10 UNL     1      28.188   0.483  53.673  1.00  0.00     0.024 C 
HETATM   17  C11 UNL     1      29.491   0.509  53.872  1.00  0.00     0.028 C 
HETATM   18  C12 UNL     1      30.122  -0.784  53.717  1.00  0.00     0.029 C 
HETATM   19  C13 UNL     1      29.238  -1.718  53.411  1.00  0.00     0.043 A 
HETATM   20  N2  UNL     1      28.633  -2.962  53.095  1.00  0.00    -0.282 N 
HETATM   21  C15 UNL     1      28.165  -0.784  53.036  1.00  0.00     0.129 A 
HETATM   22  N3  UNL     1      27.307  -2.807  52.680  1.00  0.00    -0.190 NA
HETATM   23  H13 UNL     1      29.297  -3.784  53.231  1.00  0.00     0.189 HD
HETATM   24  C14 UNL     1      27.008  -1.553  52.664  1.00  0.00     0.128 A 
ENDBRANCH  14  16
ENDBRANCH   9  14
TORSDOF 2
ENDMDL
MODEL 2
REMARK VINA RESULT:      -8.0      2.787      3.903
REMARK  2 active torsions:
REMARK  status: ('A' for Active; 'I' for Inactive)
REMARK    1  A    between atoms: C9_9  and  N1_10 
REMARK    2  A    between atoms: N1_10  and  C10_11 
ROOT
HETATM    1  C1  UNL     1      18.944  -0.158  52.364  1.00  0.00    -0.026 C 
HETATM    2  C2  UNL     1      18.855   1.022  51.756  1.00  0.00    -0.024 C 
HETATM    3  C3  UNL     1      19.812   2.100  52.167  1.00  0.00     0.085 C 
HETATM    4  C4  UNL     1      21.133   1.441  52.340  1.00  0.00     0.032 A 
HETATM    5  C5  UNL     1      21.236   0.264  52.936  1.00  0.00    -0.047 A 
HETATM    6  C6  UNL     1      19.981  -0.384  53.429  1.00  0.00     0.063 C 
HETATM    7  C7  UNL     1      22.486  -0.504  53.175  1.00  0.00     0.096 A 
HETATM    8  C8  UNL     1      23.678   0.216  52.652  1.00  0.00     0.045 A 
HETATM    9  C9  UNL     1      24.854  -0.328  52.784  1.00  0.00     0.115 C 
HETATM   10  N4  UNL     1      23.593   1.479  52.009  1.00  0.00    -0.303 N 
HETATM   11  N5  UNL     1      22.324   2.084  51.858  1.00  0.00    -0.304 N 
HETATM   12  H16 UNL     1      24.379   2.024  51.629  1.00  0.00     0.186 HD
HETATM   13  H17 UNL     1      22.187   3.022  51.391  1.00  0.00     0.186 HD
ENDROOT
BRANCH   9  14
HETATM   14  N1  UNL     1      26.072   0.284  52.314  1.00  0.00    -0.366 N 
HETATM   15  H10 UNL     1      26.144   1.107  51.650  1.00  0.00     0.165 HD
BRANCH  14  16
HETATM   16  C10 UNL     1      27.275  -0.275  52.788  1.00  0.00     0.024 C 
HETATM   17  C11 UNL     1      28.075  -1.298  53.015  1.00  0.00     0.028 C 
HETATM   18  C12 UNL     1      29.335  -0.920  53.618  1.00  0.00     0.029 C 
HETATM   19  C13 UNL     1      29.406   0.386  53.806  1.00  0.00     0.043 A 
HETATM   20  N2  UNL     1      29.863   1.684  54.155  1.00  0.00    -0.282 N 
HETATM   21  C15 UNL     1      27.968   0.637  53.624  1.00  0.00     0.129 A 
HETATM   22  N3  UNL     1      28.839   2.634  54.084  1.00  0.00    -0.190 NA
HETATM   23  H13 UNL     1      30.899   1.698  54.405  1.00  0.00     0.189 HD
HETATM   24  C14 UNL     1      27.737   2.051  53.754  1.00  0.00     0.128 A 
ENDBRANCH  14  16
ENDBRANCH   9  14
TORSDOF 2
ENDMDL
MODEL 3
REMARK VINA RESULT:      -7.9      2.942      4.203
REMARK  2 active torsions:
REMARK  status: ('A' for Active; 'I' for Inactive)
REMARK    1  A    between atoms: C9_9  and  N1_10 
REMARK    2  A    between atoms: N1_10  and  C10_11 
ROOT
HETATM    1  C1  UNL     1      24.122   7.379  47.290  1.00  0.00    -0.026 C 
HETATM    2  C2  UNL     1      25.355   7.775  46.986  1.00  0.00    -0.024 C 
HETATM    3  C3  UNL     1      26.402   7.702  48.057  1.00  0.00     0.085 C 
HETATM    4  C4  UNL     1      26.179   6.418  48.771  1.00  0.00     0.032 A 
HETATM    5  C5  UNL     1      24.957   6.008  49.073  1.00  0.00    -0.047 A 
HETATM    6  C6  UNL     1      23.807   6.877  48.671  1.00  0.00     0.063 C 
HETATM    7  C7  UNL     1      24.591   4.753  49.780  1.00  0.00     0.096 A 
HETATM    8  C8  UNL     1      25.795   3.956  50.139  1.00  0.00     0.045 A 
HETATM    9  C9  UNL     1      25.642   2.825  50.766  1.00  0.00     0.115 C 
HETATM   10  N4  UNL     1      27.116   4.375  49.826  1.00  0.00    -0.303 N 
HETATM   11  N5  UNL     1      27.300   5.601  49.147  1.00  0.00    -0.304 N 
HETATM   12  H16 UNL     1      27.984   3.870  50.048  1.00  0.00     0.186 HD
HETATM   13  H17 UNL     1      28.253   5.973  48.883  1.00  0.00     0.186 HD
ENDROOT
BRANCH   9  14
HETATM   14  N1  UNL     1      26.740   1.977  51.159  1.00  0.00    -0.366 N 
HETATM   15  H10 UNL     1      27.707   1.962  50.726  1.00  0.00     0.165 HD
BRANCH  14  16
HETATM   16  C10 UNL     1      26.492   1.087  52.222  1.00  0.00     0.024 C 
HETATM   17  C11 UNL     1      25.790   0.135  52.805  1.00  0.00     0.028 C 
HETATM   18  C12 UNL     1      26.332  -0.278  54.082  1.00  0.00     0.029 C 
HETATM   19  C13 UNL     1      27.428   0.397  54.381  1.00  0.00     0.043 A 
HETATM   20  N2  UNL     1      28.591   0.873  55.042  1.00  0.00    -0.282 N 
HETATM   21  C15 UNL     1      27.225   1.454  53.379  1.00  0.00     0.129 A 
HETATM   22  N3  UNL     1      29.097   2.029  54.439  1.00  0.00    -0.190 NA
HETATM   23  H13 UNL     1      28.864   0.266  55.874  1.00  0.00     0.189 HD
HETATM   24  C14 UNL     1      28.334   2.368  53.456  1.00  0.00     0.128 A 
ENDBRANCH  14  16
ENDBRANCH   9  14
TORSDOF 2
ENDMDL
MODEL 4
REMARK VINA RESULT:      -7.8      2.110      2.607
REMARK  2 active torsions:
REMARK  status: ('A' for Active; 'I' for Inactive)
REMARK    1  A    between atoms: C9_9  and  N1_10 
REMARK    2  A    between atoms: N1_10  and  C10_11 
ROOT
HETATM    1  C1  UNL     1      20.106   1.353  51.016  1.00  0.00    -0.026 C 
HETATM    2  C2  UNL     1      19.510   0.680  51.996  1.00  0.00    -0.024 C 
HETATM    3  C3  UNL     1      20.233  -0.495  52.584  1.00  0.00     0.085 C 
HETATM    4  C4  UNL     1      21.657  -0.089  52.708  1.00  0.00     0.032 A 
HETATM    5  C5  UNL     1      22.260   0.589  51.744  1.00  0.00    -0.047 A 
HETATM    6  C6  UNL     1      21.464   0.934  50.526  1.00  0.00     0.063 C 
HETATM    7  C7  UNL     1      23.671   1.056  51.737  1.00  0.00     0.096 A 
HETATM    8  C8  UNL     1      24.382   0.668  52.986  1.00  0.00     0.045 A 
HETATM    9  C9  UNL     1      25.631   1.004  53.133  1.00  0.00     0.115 C 
HETATM   10  N4  UNL     1      23.756  -0.059  54.033  1.00  0.00    -0.303 N 
HETATM   11  N5  UNL     1      22.400  -0.433  53.888  1.00  0.00    -0.304 N 
HETATM   12  H16 UNL     1      24.194  -0.355  54.916  1.00  0.00     0.186 HD
HETATM   13  H17 UNL     1      21.873  -0.973  54.627  1.00  0.00     0.186 HD
ENDROOT
BRANCH   9  14
HETATM   14  N1  UNL     1      26.412   0.679  54.301  1.00  0.00    -0.366 N 
HETATM   15  H10 UNL     1      26.051   0.605  55.295  1.00  0.00     0.165 HD
BRANCH  14  16
HETATM   16  C10 UNL     1      27.783   0.439  54.089  1.00  0.00     0.024 C 
HETATM   17  C11 UNL     1      29.047   0.817  54.094  1.00  0.00     0.028 C 
HETATM   18  C12 UNL     1      29.960  -0.227  53.681  1.00  0.00     0.029 C 
HETATM   19  C13 UNL     1      29.315  -1.344  53.392  1.00  0.00     0.043 A 
HETATM   20  N2  UNL     1      29.016  -2.678  53.011  1.00  0.00    -0.282 N 
HETATM   21  C15 UNL     1      27.984  -0.725  53.305  1.00  0.00     0.129 A 
HETATM   22  N3  UNL     1      27.644  -2.872  52.822  1.00  0.00    -0.190 NA
HETATM   23  H13 UNL     1      29.888  -3.287  52.940  1.00  0.00     0.189 HD
HETATM   24  C14 UNL     1      27.025  -1.756  53.013  1.00  0.00     0.128 A 
ENDBRANCH  14  16
ENDBRANCH   9  14
TORSDOF 2
ENDMDL
MODEL 5
REMARK VINA RESULT:      -7.8      2.829      7.522
REMARK  2 active torsions:
REMARK  status: ('A' for Active; 'I' for Inactive)
REMARK    1  A    between atoms: C9_9  and  N1_10 
REMARK    2  A    between atoms: N1_10  and  C10_11 
ROOT
HETATM    1  C1  UNL     1      28.926  -0.138  54.255  1.00  0.00    -0.026 C 
HETATM    2  C2  UNL     1      29.158   1.164  54.400  1.00  0.00    -0.024 C 
HETATM    3  C3  UNL     1      28.473   2.110  53.459  1.00  0.00     0.085 C 
HETATM    4  C4  UNL     1      27.084   1.606  53.300  1.00  0.00     0.032 A 
HETATM    5  C5  UNL     1      26.838   0.313  53.163  1.00  0.00    -0.047 A 
HETATM    6  C6  UNL     1      28.001  -0.627  53.176  1.00  0.00     0.063 C 
HETATM    7  C7  UNL     1      25.505  -0.324  52.997  1.00  0.00     0.096 A 
HETATM    8  C8  UNL     1      24.413   0.686  52.998  1.00  0.00     0.045 A 
HETATM    9  C9  UNL     1      23.181   0.285  52.860  1.00  0.00     0.115 C 
HETATM   10  N4  UNL     1      24.652   2.078  53.142  1.00  0.00    -0.303 N 
HETATM   11  N5  UNL     1      25.983   2.529  53.291  1.00  0.00    -0.304 N 
HETATM   12  H16 UNL     1      23.940   2.821  53.149  1.00  0.00     0.186 HD
HETATM   13  H17 UNL     1      26.234   3.550  53.403  1.00  0.00     0.186 HD
ENDROOT
BRANCH   9  14
HETATM   14  N1  UNL     1      22.049   1.179  52.847  1.00  0.00    -0.366 N 
HETATM   15  H10 UNL     1      22.081   2.232  52.961  1.00  0.00     0.165 HD
BRANCH  14  16
HETATM   16  C10 UNL     1      20.786   0.584  52.664  1.00  0.00     0.024 C 
HETATM   17  C11 UNL     1      19.769  -0.144  53.082  1.00  0.00     0.028 C 
HETATM   18  C12 UNL     1      18.704  -0.257  52.109  1.00  0.00     0.029 C 
HETATM   19  C13 UNL     1      18.990   0.409  51.004  1.00  0.00     0.043 A 
HETATM   20  N2  UNL     1      18.915   0.982  49.708  1.00  0.00    -0.282 N 
HETATM   21  C15 UNL     1      20.423   0.563  51.294  1.00  0.00     0.129 A 
HETATM   22  N3  UNL     1      20.140   1.521  49.304  1.00  0.00    -0.190 NA
HETATM   23  H13 UNL     1      17.942   0.898  49.280  1.00  0.00     0.189 HD
HETATM   24  C14 UNL     1      21.023   1.310  50.221  1.00  0.00     0.128 A 
ENDBRANCH  14  16
ENDBRANCH   9  14
TORSDOF 2
ENDMDL
MODEL 6
REMARK VINA RESULT:      -7.7      1.647      2.080
REMARK  2 active torsions:
REMARK  status: ('A' for Active; 'I' for Inactive)
REMARK    1  A    between atoms: C9_9  and  N1_10 
REMARK    2  A    between atoms: N1_10  and  C10_11 
ROOT
HETATM    1  C1  UNL     1      23.696   6.231  48.687  1.00  0.00    -0.026 C 
HETATM    2  C2  UNL     1      23.481   7.034  49.726  1.00  0.00    -0.024 C 
HETATM    3  C3  UNL     1      22.889   6.436  50.967  1.00  0.00     0.085 C 
HETATM    4  C4  UNL     1      23.557   5.122  51.156  1.00  0.00     0.032 A 
HETATM    5  C5  UNL     1      23.784   4.317  50.130  1.00  0.00    -0.047 A 
HETATM    6  C6  UNL     1      23.348   4.771  48.774  1.00  0.00     0.063 C 
HETATM    7  C7  UNL     1      24.439   2.983  50.177  1.00  0.00     0.096 A 
HETATM    8  C8  UNL     1      24.837   2.618  51.563  1.00  0.00     0.045 A 
HETATM    9  C9  UNL     1      25.425   1.474  51.771  1.00  0.00     0.115 C 
HETATM   10  N4  UNL     1      24.604   3.464  52.679  1.00  0.00    -0.303 N 
HETATM   11  N5  UNL     1      23.966   4.708  52.470  1.00  0.00    -0.304 N 
HETATM   12  H16 UNL     1      24.855   3.266  53.657  1.00  0.00     0.186 HD
HETATM   13  H17 UNL     1      23.761   5.386  53.254  1.00  0.00     0.186 HD
ENDROOT
BRANCH   9  14
HETATM   14  N1  UNL     1      25.850   1.023  53.073  1.00  0.00    -0.366 N 
HETATM   15  H10 UNL     1      25.220   0.780  53.889  1.00  0.00     0.165 HD
BRANCH  14  16
HETATM   16  C10 UNL     1      27.240   0.897  53.267  1.00  0.00     0.024 C 
HETATM   17  C11 UNL     1      28.440   1.406  53.463  1.00  0.00     0.028 C 
HETATM   18  C12 UNL     1      29.477   0.405  53.587  1.00  0.00     0.029 C 
HETATM   19  C13 UNL     1      28.982  -0.816  53.479  1.00  0.00     0.043 A 
HETATM   20  N2  UNL     1      28.854  -2.229  53.428  1.00  0.00    -0.282 N 
HETATM   21  C15 UNL     1      27.691  -0.399  52.910  1.00  0.00     0.129 A 
HETATM   22  N3  UNL     1      27.588  -2.622  52.982  1.00  0.00    -0.190 NA
HETATM   23  H13 UNL     1      29.742  -2.730  53.738  1.00  0.00     0.189 HD
HETATM   24  C14 UNL     1      26.890  -1.575  52.701  1.00  0.00     0.128 A 
ENDBRANCH  14  16
ENDBRANCH   9  14
TORSDOF 2
ENDMDL
MODEL 7
REMARK VINA RESULT:      -7.7      3.848      5.149
REMARK  2 active torsions:
REMARK  status: ('A' for Active; 'I' for Inactive)
REMARK    1  A    between atoms: C9_9  and  N1_10 
REMARK    2  A    between atoms: N1_10  and  C10_11 
ROOT
HETATM    1  C1  UNL     1      16.532  -0.073  51.640  1.00  0.00    -0.026 C 
HETATM    2  C2  UNL     1      16.440  -0.687  52.816  1.00  0.00    -0.024 C 
HETATM    3  C3  UNL     1      17.625  -1.472  53.295  1.00  0.00     0.085 C 
HETATM    4  C4  UNL     1      18.825  -0.661  52.961  1.00  0.00     0.032 A 
HETATM    5  C5  UNL     1      18.926  -0.038  51.798  1.00  0.00    -0.047 A 
HETATM    6  C6  UNL     1      17.794  -0.174  50.829  1.00  0.00     0.063 C 
HETATM    7  C7  UNL     1      20.062   0.801  51.336  1.00  0.00     0.096 A 
HETATM    8  C8  UNL     1      21.136   0.879  52.363  1.00  0.00     0.045 A 
HETATM    9  C9  UNL     1      22.205   1.580  52.109  1.00  0.00     0.115 C 
HETATM   10  N4  UNL     1      21.051   0.219  53.617  1.00  0.00    -0.303 N 
HETATM   11  N5  UNL     1      19.899  -0.546  53.908  1.00  0.00    -0.304 N 
HETATM   12  H16 UNL     1      21.759   0.235  54.364  1.00  0.00     0.186 HD
HETATM   13  H17 UNL     1      19.769  -1.062  54.821  1.00  0.00     0.186 HD
ENDROOT
BRANCH   9  14
HETATM   14  N1  UNL     1      23.303   1.720  53.032  1.00  0.00    -0.366 N 
HETATM   15  H10 UNL     1      23.233   2.000  54.052  1.00  0.00     0.165 HD
BRANCH  14  16
HETATM   16  C10 UNL     1      24.588   1.460  52.518  1.00  0.00     0.024 C 
HETATM   17  C11 UNL     1      25.560   1.664  51.650  1.00  0.00     0.028 C 
HETATM   18  C12 UNL     1      26.734   0.856  51.900  1.00  0.00     0.029 C 
HETATM   19  C13 UNL     1      26.570   0.086  52.961  1.00  0.00     0.043 A 
HETATM   20  N2  UNL     1      26.789  -0.854  54.003  1.00  0.00    -0.282 N 
HETATM   21  C15 UNL     1      25.111   0.247  53.034  1.00  0.00     0.129 A 
HETATM   22  N3  UNL     1      25.612  -1.145  54.699  1.00  0.00    -0.190 NA
HETATM   23  H13 UNL     1      27.807  -1.164  54.064  1.00  0.00     0.189 HD
HETATM   24  C14 UNL     1      24.631  -0.497  54.168  1.00  0.00     0.128 A 
ENDBRANCH  14  16
ENDBRANCH   9  14
TORSDOF 2
ENDMDL
MODEL 8
REMARK VINA RESULT:      -7.5      3.939      5.396
REMARK  2 active torsions:
REMARK  status: ('A' for Active; 'I' for Inactive)
REMARK    1  A    between atoms: C9_9  and  N1_10 
REMARK    2  A    between atoms: N1_10  and  C10_11 
ROOT
HETATM    1  C1  UNL     1      29.294   8.177  48.237  1.00  0.00    -0.026 C 
HETATM    2  C2  UNL     1      28.641   9.025  49.026  1.00  0.00    -0.024 C 
HETATM    3  C3  UNL     1      27.163   8.834  49.195  1.00  0.00     0.085 C 
HETATM    4  C4  UNL     1      26.943   7.370  49.319  1.00  0.00     0.032 A 
HETATM    5  C5  UNL     1      27.592   6.514  48.545  1.00  0.00    -0.047 A 
HETATM    6  C6  UNL     1      28.555   7.067  47.543  1.00  0.00     0.063 C 
HETATM    7  C7  UNL     1      27.470   5.033  48.562  1.00  0.00     0.096 A 
HETATM    8  C8  UNL     1      26.493   4.577  49.588  1.00  0.00     0.045 A 
HETATM    9  C9  UNL     1      26.272   3.301  49.728  1.00  0.00     0.115 C 
HETATM   10  N4  UNL     1      25.785   5.475  50.429  1.00  0.00    -0.303 N 
HETATM   11  N5  UNL     1      26.013   6.864  50.290  1.00  0.00    -0.304 N 
HETATM   12  H16 UNL     1      25.100   5.221  51.153  1.00  0.00     0.186 HD
HETATM   13  H17 UNL     1      25.521   7.588  50.882  1.00  0.00     0.186 HD
ENDROOT
BRANCH   9  14
HETATM   14  N1  UNL     1      25.347   2.754  50.690  1.00  0.00    -0.366 N 
HETATM   15  H10 UNL     1      24.340   3.052  50.831  1.00  0.00     0.165 HD
BRANCH  14  16
HETATM   16  C10 UNL     1      25.841   1.725  51.515  1.00  0.00     0.024 C 
HETATM   17  C11 UNL     1      26.817   0.967  51.975  1.00  0.00     0.028 C 
HETATM   18  C12 UNL     1      26.385   0.020  52.980  1.00  0.00     0.029 C 
HETATM   19  C13 UNL     1      25.090   0.132  53.221  1.00  0.00     0.043 A 
HETATM   20  N2  UNL     1      23.789  -0.055  53.756  1.00  0.00    -0.282 N 
HETATM   21  C15 UNL     1      24.787   0.922  52.019  1.00  0.00     0.129 A 
HETATM   22  N3  UNL     1      22.820   0.637  53.022  1.00  0.00    -0.190 NA
HETATM   23  H13 UNL     1      23.788  -0.684  54.616  1.00  0.00     0.189 HD
HETATM   24  C14 UNL     1      23.381   1.230  52.025  1.00  0.00     0.128 A 
ENDBRANCH  14  16
ENDBRANCH   9  14
TORSDOF 2
ENDMDL
MODEL 9
REMARK VINA RESULT:      -7.5      3.281      4.281
REMARK  2 active torsions:
REMARK  status: ('A' for Active; 'I' for Inactive)
REMARK    1  A    between atoms: C9_9  and  N1_10 
REMARK    2  A    between atoms: N1_10  and  C10_11 
ROOT
HETATM    1  C1  UNL     1      26.431   7.019  49.115  1.00  0.00    -0.026 C 
HETATM    2  C2  UNL     1      26.077   7.829  50.108  1.00  0.00    -0.024 C 
HETATM    3  C3  UNL     1      24.748   7.599  50.764  1.00  0.00     0.085 C 
HETATM    4  C4  UNL     1      24.602   6.127  50.905  1.00  0.00     0.032 A 
HETATM    5  C5  UNL     1      24.959   5.308  49.928  1.00  0.00    -0.047 A 
HETATM    6  C6  UNL     1      25.515   5.911  48.677  1.00  0.00     0.063 C 
HETATM    7  C7  UNL     1      24.869   3.825  49.936  1.00  0.00     0.096 A 
HETATM    8  C8  UNL     1      24.307   3.317  51.217  1.00  0.00     0.045 A 
HETATM    9  C9  UNL     1      24.163   2.033  51.380  1.00  0.00     0.115 C 
HETATM   10  N4  UNL     1      23.917   4.175  52.279  1.00  0.00    -0.303 N 
HETATM   11  N5  UNL     1      24.066   5.572  52.117  1.00  0.00    -0.304 N 
HETATM   12  H16 UNL     1      23.523   3.885  53.184  1.00  0.00     0.186 HD
HETATM   13  H17 UNL     1      23.796   6.268  52.866  1.00  0.00     0.186 HD
ENDROOT
BRANCH   9  14
HETATM   14  N1  UNL     1      23.630   1.438  52.581  1.00  0.00    -0.366 N 
HETATM   15  H10 UNL     1      22.624   1.488  52.911  1.00  0.00     0.165 HD
BRANCH  14  16
HETATM   16  C10 UNL     1      24.542   0.725  53.383  1.00  0.00     0.024 C 
HETATM   17  C11 UNL     1      25.765   0.434  53.779  1.00  0.00     0.028 C 
HETATM   18  C12 UNL     1      25.808  -0.559  54.831  1.00  0.00     0.029 C 
HETATM   19  C13 UNL     1      24.593  -0.954  55.169  1.00  0.00     0.043 A 
HETATM   20  N2  UNL     1      23.508  -1.612  55.806  1.00  0.00    -0.282 N 
HETATM   21  C15 UNL     1      23.925  -0.403  53.980  1.00  0.00     0.129 A 
HETATM   22  N3  UNL     1      22.300  -1.392  55.137  1.00  0.00    -0.190 NA
HETATM   23  H13 UNL     1      23.811  -2.151  56.674  1.00  0.00     0.189 HD
HETATM   24  C14 UNL     1      22.516  -0.672  54.089  1.00  0.00     0.128 A 
ENDBRANCH  14  16
ENDBRANCH   9  14
TORSDOF 2
ENDMDL
