MODEL 1
REMARK VINA RESULT:      -7.3      0.000      0.000
REMARK  6 active torsions:
REMARK  status: ('A' for Active; 'I' for Inactive)
REMARK    1  A    between atoms: O1_2  and  C2_3 
REMARK    2  A    between atoms: C9_12  and  O2_13 
REMARK    3  A    between atoms: O2_13  and  C10_14 
REMARK    4  A    between atoms: C10_14  and  C11_15 
REMARK    5  A    between atoms: C11_15  and  C12_16 
REMARK    6  A    between atoms: C12_16  and  N3_17 
ROOT
HETATM    1  C2  UNL     1      25.134   3.782  49.684  1.00  0.00     0.139 A 
HETATM    2  C3  UNL     1      26.522   3.163  49.683  1.00  0.00     0.092 A 
HETATM    3  C4  UNL     1      26.311   4.575  49.412  1.00  0.00     0.011 A 
HETATM    4  C5  UNL     1      26.180   5.863  49.159  1.00  0.00     0.148 C 
HETATM    5  N1  UNL     1      24.824   6.419  49.175  1.00  0.00    -0.045 NA
HETATM    6  C6  UNL     1      24.655   7.528  49.901  1.00  0.00     0.724 C 
HETATM    7  N2  UNL     1      23.908   7.509  51.141  1.00  0.00    -0.075 NA
HETATM    8  C7  UNL     1      23.708   6.333  51.689  1.00  0.00     0.139 C 
HETATM    9  C8  UNL     1      23.850   4.889  51.718  1.00  0.00     0.055 C 
HETATM   10  C9  UNL     1      24.403   4.040  50.915  1.00  0.00     0.087 C 
HETATM   11  N5  UNL     1      25.215   8.789  49.539  1.00  0.00    -0.221 N 
HETATM   12  C18 UNL     1      26.414   8.901  48.731  1.00  0.00     0.158 C 
HETATM   13  C19 UNL     1      27.538   8.035  49.174  1.00  0.00     0.141 C 
HETATM   14  N6  UNL     1      27.381   6.621  48.886  1.00  0.00    -0.372 N 
HETATM   15  H25 UNL     1      24.562   9.486  49.995  1.00  0.00     0.177 HD
HETATM   16  H30 UNL     1      28.082   5.968  48.460  1.00  0.00     0.161 HD
ENDROOT
BRANCH  10  17
HETATM   17  O2  UNL     1      24.304   2.698  51.347  1.00  0.00    -0.352 OA
BRANCH  17  18
HETATM   18  C10 UNL     1      23.641   2.383  52.537  1.00  0.00     0.177 C 
BRANCH  18  19
HETATM   19  C11 UNL     1      24.284   1.102  53.065  1.00  0.00     0.046 C 
BRANCH  19  20
HETATM   20  C12 UNL     1      25.522   0.765  52.257  1.00  0.00     0.119 C 
BRANCH  20  21
HETATM   21  N3  UNL     1      26.672   0.869  53.073  1.00  0.00    -0.409 N 
HETATM   22  C13 UNL     1      27.004  -0.195  53.921  1.00  0.00     0.147 C 
HETATM   23  C14 UNL     1      28.013   0.160  54.990  1.00  0.00     0.291 C 
HETATM   24  N4  UNL     1      29.108   0.795  54.324  1.00  0.00     0.087 N 
HETATM   25  C15 UNL     1      29.867  -0.074  53.480  1.00  0.00     0.310 C 
HETATM   26  C16 UNL     1      28.762   2.031  53.680  1.00  0.00     0.291 C 
HETATM   27  C17 UNL     1      27.400   2.062  53.077  1.00  0.00     0.147 C 
ENDBRANCH  20  21
ENDBRANCH  19  20
ENDBRANCH  18  19
ENDBRANCH  17  18
ENDBRANCH  10  17
BRANCH   1  28
HETATM   28  O1  UNL     1      24.348   3.270  48.646  1.00  0.00    -0.373 OA
HETATM   29  C1  UNL     1      23.057   3.720  48.625  1.00  0.00     0.203 C 
ENDBRANCH   1  28
TORSDOF 6
ENDMDL
MODEL 2
REMARK VINA RESULT:      -7.0      3.259      5.534
REMARK  6 active torsions:
REMARK  status: ('A' for Active; 'I' for Inactive)
REMARK    1  A    between atoms: O1_2  and  C2_3 
REMARK    2  A    between atoms: C9_12  and  O2_13 
REMARK    3  A    between atoms: O2_13  and  C10_14 
REMARK    4  A    between atoms: C10_14  and  C11_15 
REMARK    5  A    between atoms: C11_15  and  C12_16 
REMARK    6  A    between atoms: C12_16  and  N3_17 
ROOT
HETATM    1  C2  UNL     1      22.983   3.657  51.681  1.00  0.00     0.139 A 
HETATM    2  C3  UNL     1      23.762   3.194  52.901  1.00  0.00     0.092 A 
HETATM    3  C4  UNL     1      22.481   2.611  52.541  1.00  0.00     0.011 A 
HETATM    4  C5  UNL     1      21.322   2.046  52.264  1.00  0.00     0.148 C 
HETATM    5  N1  UNL     1      20.607   2.520  51.076  1.00  0.00    -0.045 NA
HETATM    6  C6  UNL     1      20.177   1.574  50.236  1.00  0.00     0.724 C 
HETATM    7  N2  UNL     1      20.786   1.389  48.936  1.00  0.00    -0.075 NA
HETATM    8  C7  UNL     1      21.967   1.932  48.757  1.00  0.00     0.139 C 
HETATM    9  C8  UNL     1      23.109   2.702  49.215  1.00  0.00     0.055 C 
HETATM   10  C9  UNL     1      23.382   3.300  50.328  1.00  0.00     0.087 C 
HETATM   11  N5  UNL     1      19.126   0.665  50.559  1.00  0.00    -0.221 N 
HETATM   12  C18 UNL     1      18.813   0.296  51.926  1.00  0.00     0.158 C 
HETATM   13  C19 UNL     1      19.992  -0.091  52.744  1.00  0.00     0.141 C 
HETATM   14  N6  UNL     1      20.850   1.006  53.153  1.00  0.00    -0.372 N 
HETATM   15  H25 UNL     1      18.732   0.401  49.612  1.00  0.00     0.177 HD
HETATM   16  H30 UNL     1      21.238   1.200  54.107  1.00  0.00     0.161 HD
ENDROOT
BRANCH  10  17
HETATM   17  O2  UNL     1      24.640   3.943  50.338  1.00  0.00    -0.352 OA
BRANCH  17  18
HETATM   18  C10 UNL     1      25.750   3.337  49.741  1.00  0.00     0.177 C 
BRANCH  18  19
HETATM   19  C11 UNL     1      26.694   2.950  50.878  1.00  0.00     0.046 C 
BRANCH  19  20
HETATM   20  C12 UNL     1      26.423   1.526  51.323  1.00  0.00     0.119 C 
BRANCH  20  21
HETATM   21  N3  UNL     1      27.132   1.251  52.515  1.00  0.00    -0.409 N 
HETATM   22  C13 UNL     1      26.860   0.067  53.211  1.00  0.00     0.147 C 
HETATM   23  C14 UNL     1      27.390   0.047  54.627  1.00  0.00     0.291 C 
HETATM   24  N4  UNL     1      28.768   0.428  54.552  1.00  0.00     0.087 N 
HETATM   25  C15 UNL     1      29.610  -0.533  53.909  1.00  0.00     0.310 C 
HETATM   26  C16 UNL     1      28.979   1.763  54.068  1.00  0.00     0.291 C 
HETATM   27  C17 UNL     1      28.023   2.205  53.014  1.00  0.00     0.147 C 
ENDBRANCH  20  21
ENDBRANCH  19  20
ENDBRANCH  18  19
ENDBRANCH  17  18
ENDBRANCH  10  17
BRANCH   1  28
HETATM   28  O1  UNL     1      22.557   4.982  51.823  1.00  0.00    -0.373 OA
HETATM   29  C1  UNL     1      21.773   5.448  50.803  1.00  0.00     0.203 C 
ENDBRANCH   1  28
TORSDOF 6
ENDMDL
MODEL 3
REMARK VINA RESULT:      -7.0      0.999      1.496
REMARK  6 active torsions:
REMARK  status: ('A' for Active; 'I' for Inactive)
REMARK    1  A    between atoms: O1_2  and  C2_3 
REMARK    2  A    between atoms: C9_12  and  O2_13 
REMARK    3  A    between atoms: O2_13  and  C10_14 
REMARK    4  A    between atoms: C10_14  and  C11_15 
REMARK    5  A    between atoms: C11_15  and  C12_16 
REMARK    6  A    between atoms: C12_16  and  N3_17 
ROOT
HETATM    1  C2  UNL     1      25.008   4.278  49.654  1.00  0.00     0.139 A 
HETATM    2  C3  UNL     1      26.185   3.369  49.970  1.00  0.00     0.092 A 
HETATM    3  C4  UNL     1      26.368   4.691  49.394  1.00  0.00     0.011 A 
HETATM    4  C5  UNL     1      26.595   5.881  48.872  1.00  0.00     0.148 C 
HETATM    5  N1  UNL     1      25.432   6.726  48.588  1.00  0.00    -0.045 NA
HETATM    6  C6  UNL     1      25.494   7.980  49.046  1.00  0.00     0.724 C 
HETATM    7  N2  UNL     1      24.666   8.420  50.148  1.00  0.00    -0.075 NA
HETATM    8  C7  UNL     1      24.124   7.480  50.888  1.00  0.00     0.139 C 
HETATM    9  C8  UNL     1      23.886   6.090  51.227  1.00  0.00     0.055 C 
HETATM   10  C9  UNL     1      24.267   4.974  50.696  1.00  0.00     0.087 C 
HETATM   11  N5  UNL     1      26.388   8.958  48.518  1.00  0.00    -0.221 N 
HETATM   12  C18 UNL     1      27.639   8.599  47.878  1.00  0.00     0.158 C 
HETATM   13  C19 UNL     1      28.461   7.621  48.638  1.00  0.00     0.141 C 
HETATM   14  N6  UNL     1      27.970   6.255  48.621  1.00  0.00    -0.372 N 
HETATM   15  H25 UNL     1      25.901   9.873  48.730  1.00  0.00     0.177 HD
HETATM   16  H30 UNL     1      28.512   5.377  48.436  1.00  0.00     0.161 HD
ENDROOT
BRANCH  10  17
HETATM   17  O2  UNL     1      23.790   3.828  51.370  1.00  0.00    -0.352 OA
BRANCH  17  18
HETATM   18  C10 UNL     1      23.452   3.893  52.725  1.00  0.00     0.177 C 
BRANCH  18  19
HETATM   19  C11 UNL     1      24.519   3.097  53.476  1.00  0.00     0.046 C 
BRANCH  19  20
HETATM   20  C12 UNL     1      24.621   1.694  52.911  1.00  0.00     0.119 C 
BRANCH  20  21
HETATM   21  N3  UNL     1      25.960   1.247  52.972  1.00  0.00    -0.409 N 
HETATM   22  C13 UNL     1      26.942   2.108  53.478  1.00  0.00     0.147 C 
HETATM   23  C14 UNL     1      28.359   1.680  53.165  1.00  0.00     0.291 C 
HETATM   24  N4  UNL     1      28.468   0.308  53.556  1.00  0.00     0.087 N 
HETATM   25  C15 UNL     1      28.400   0.091  54.967  1.00  0.00     0.310 C 
HETATM   26  C16 UNL     1      27.613  -0.579  52.816  1.00  0.00     0.291 C 
HETATM   27  C17 UNL     1      26.286  -0.008  52.450  1.00  0.00     0.147 C 
ENDBRANCH  20  21
ENDBRANCH  19  20
ENDBRANCH  18  19
ENDBRANCH  17  18
ENDBRANCH  10  17
BRANCH   1  28
HETATM   28  O1  UNL     1      24.206   3.740  48.642  1.00  0.00    -0.373 OA
HETATM   29  C1  UNL     1      23.081   4.460  48.353  1.00  0.00     0.203 C 
ENDBRANCH   1  28
TORSDOF 6
ENDMDL
MODEL 4
REMARK VINA RESULT:      -7.0      2.051      7.095
REMARK  6 active torsions:
REMARK  status: ('A' for Active; 'I' for Inactive)
REMARK    1  A    between atoms: O1_2  and  C2_3 
REMARK    2  A    between atoms: C9_12  and  O2_13 
REMARK    3  A    between atoms: O2_13  and  C10_14 
REMARK    4  A    between atoms: C10_14  and  C11_15 
REMARK    5  A    between atoms: C11_15  and  C12_16 
REMARK    6  A    between atoms: C12_16  and  N3_17 
ROOT
HETATM    1  C2  UNL     1      25.172   2.636  51.554  1.00  0.00     0.139 A 
HETATM    2  C3  UNL     1      26.125   2.811  50.382  1.00  0.00     0.092 A 
HETATM    3  C4  UNL     1      26.553   2.222  51.640  1.00  0.00     0.011 A 
HETATM    4  C5  UNL     1      26.998   1.681  52.758  1.00  0.00     0.148 C 
HETATM    5  N1  UNL     1      26.044   1.528  53.859  1.00  0.00    -0.045 NA
HETATM    6  C6  UNL     1      25.996   0.319  54.427  1.00  0.00     0.724 C 
HETATM    7  N2  UNL     1      24.855  -0.552  54.245  1.00  0.00    -0.075 NA
HETATM    8  C7  UNL     1      24.050  -0.267  53.248  1.00  0.00     0.139 C 
HETATM    9  C8  UNL     1      23.651   0.542  52.112  1.00  0.00     0.055 C 
HETATM   10  C9  UNL     1      24.145   1.605  51.567  1.00  0.00     0.087 C 
HETATM   11  N5  UNL     1      27.059  -0.214  55.216  1.00  0.00    -0.221 N 
HETATM   12  C18 UNL     1      28.438   0.198  55.037  1.00  0.00     0.158 C 
HETATM   13  C19 UNL     1      28.901   0.201  53.625  1.00  0.00     0.141 C 
HETATM   14  N6  UNL     1      28.389   1.286  52.808  1.00  0.00    -0.372 N 
HETATM   15  H25 UNL     1      26.567  -0.897  55.857  1.00  0.00     0.177 HD
HETATM   16  H30 UNL     1      28.924   1.913  52.160  1.00  0.00     0.161 HD
ENDROOT
BRANCH  10  17
HETATM   17  O2  UNL     1      23.415   2.067  50.449  1.00  0.00    -0.352 OA
BRANCH  17  18
HETATM   18  C10 UNL     1      22.026   1.919  50.400  1.00  0.00     0.177 C 
BRANCH  18  19
HETATM   19  C11 UNL     1      21.471   3.223  49.830  1.00  0.00     0.046 C 
BRANCH  19  20
HETATM   20  C12 UNL     1      22.574   4.008  49.147  1.00  0.00     0.119 C 
BRANCH  20  21
HETATM   21  N3  UNL     1      22.698   5.283  49.745  1.00  0.00    -0.409 N 
HETATM   22  C13 UNL     1      23.893   5.997  49.584  1.00  0.00     0.147 C 
HETATM   23  C14 UNL     1      24.055   7.153  50.545  1.00  0.00     0.291 C 
HETATM   24  N4  UNL     1      22.850   7.922  50.465  1.00  0.00     0.087 N 
HETATM   25  C15 UNL     1      22.665   8.598  49.219  1.00  0.00     0.310 C 
HETATM   26  C16 UNL     1      21.677   7.213  50.893  1.00  0.00     0.291 C 
HETATM   27  C17 UNL     1      21.663   5.763  50.551  1.00  0.00     0.147 C 
ENDBRANCH  20  21
ENDBRANCH  19  20
ENDBRANCH  18  19
ENDBRANCH  17  18
ENDBRANCH  10  17
BRANCH   1  28
HETATM   28  O1  UNL     1      24.751   3.872  52.056  1.00  0.00    -0.373 OA
HETATM   29  C1  UNL     1      23.821   3.802  53.055  1.00  0.00     0.203 C 
ENDBRANCH   1  28
TORSDOF 6
ENDMDL
MODEL 5
REMARK VINA RESULT:      -6.6      2.432      3.542
REMARK  6 active torsions:
REMARK  status: ('A' for Active; 'I' for Inactive)
REMARK    1  A    between atoms: O1_2  and  C2_3 
REMARK    2  A    between atoms: C9_12  and  O2_13 
REMARK    3  A    between atoms: O2_13  and  C10_14 
REMARK    4  A    between atoms: C10_14  and  C11_15 
REMARK    5  A    between atoms: C11_15  and  C12_16 
REMARK    6  A    between atoms: C12_16  and  N3_17 
ROOT
HETATM    1  C2  UNL     1      25.050   4.383  49.667  1.00  0.00     0.139 A 
HETATM    2  C3  UNL     1      26.273   3.519  49.929  1.00  0.00     0.092 A 
HETATM    3  C4  UNL     1      26.384   4.866  49.396  1.00  0.00     0.011 A 
HETATM    4  C5  UNL     1      26.546   6.082  48.911  1.00  0.00     0.148 C 
HETATM    5  N1  UNL     1      25.341   6.882  48.678  1.00  0.00    -0.045 NA
HETATM    6  C6  UNL     1      25.355   8.121  49.178  1.00  0.00     0.724 C 
HETATM    7  N2  UNL     1      24.530   8.485  50.310  1.00  0.00    -0.075 NA
HETATM    8  C7  UNL     1      24.047   7.498  51.027  1.00  0.00     0.139 C 
HETATM    9  C8  UNL     1      23.879   6.087  51.322  1.00  0.00     0.055 C 
HETATM   10  C9  UNL     1      24.299   5.009  50.745  1.00  0.00     0.087 C 
HETATM   11  N5  UNL     1      26.193   9.157  48.667  1.00  0.00    -0.221 N 
HETATM   12  C18 UNL     1      27.446   8.877  47.992  1.00  0.00     0.158 C 
HETATM   13  C19 UNL     1      28.326   7.913  48.703  1.00  0.00     0.141 C 
HETATM   14  N6  UNL     1      27.897   6.528  48.648  1.00  0.00    -0.372 N 
HETATM   15  H25 UNL     1      25.669  10.041  48.919  1.00  0.00     0.177 HD
HETATM   16  H30 UNL     1      28.475   5.682  48.423  1.00  0.00     0.161 HD
ENDROOT
BRANCH  10  17
HETATM   17  O2  UNL     1      23.889   3.820  51.389  1.00  0.00    -0.352 OA
BRANCH  17  18
HETATM   18  C10 UNL     1      23.854   3.746  52.784  1.00  0.00     0.177 C 
BRANCH  18  19
HETATM   19  C11 UNL     1      24.619   2.481  53.170  1.00  0.00     0.046 C 
BRANCH  19  20
HETATM   20  C12 UNL     1      24.402   1.399  52.129  1.00  0.00     0.119 C 
BRANCH  20  21
HETATM   21  N3  UNL     1      23.265   0.629  52.466  1.00  0.00    -0.409 N 
HETATM   22  C13 UNL     1      23.349  -0.279  53.528  1.00  0.00     0.147 C 
HETATM   23  C14 UNL     1      22.224  -1.290  53.566  1.00  0.00     0.291 C 
HETATM   24  N4  UNL     1      21.004  -0.547  53.471  1.00  0.00     0.087 N 
HETATM   25  C15 UNL     1      20.715   0.259  54.616  1.00  0.00     0.310 C 
HETATM   26  C16 UNL     1      20.852   0.169  52.236  1.00  0.00     0.291 C 
HETATM   27  C17 UNL     1      22.115   0.730  51.678  1.00  0.00     0.147 C 
ENDBRANCH  20  21
ENDBRANCH  19  20
ENDBRANCH  18  19
ENDBRANCH  17  18
ENDBRANCH  10  17
BRANCH   1  28
HETATM   28  O1  UNL     1      24.253   3.843  48.652  1.00  0.00    -0.373 OA
HETATM   29  C1  UNL     1      23.115   4.548  48.374  1.00  0.00     0.203 C 
ENDBRANCH   1  28
TORSDOF 6
ENDMDL
MODEL 6
REMARK VINA RESULT:      -6.6      3.935      7.663
REMARK  6 active torsions:
REMARK  status: ('A' for Active; 'I' for Inactive)
REMARK    1  A    between atoms: O1_2  and  C2_3 
REMARK    2  A    between atoms: C9_12  and  O2_13 
REMARK    3  A    between atoms: O2_13  and  C10_14 
REMARK    4  A    between atoms: C10_14  and  C11_15 
REMARK    5  A    between atoms: C11_15  and  C12_16 
REMARK    6  A    between atoms: C12_16  and  N3_17 
ROOT
HETATM    1  C2  UNL     1      25.066   2.594  51.551  1.00  0.00     0.139 A 
HETATM    2  C3  UNL     1      25.978   2.763  50.347  1.00  0.00     0.092 A 
HETATM    3  C4  UNL     1      26.455   2.204  51.601  1.00  0.00     0.011 A 
HETATM    4  C5  UNL     1      26.945   1.690  52.713  1.00  0.00     0.148 C 
HETATM    5  N1  UNL     1      26.029   1.540  53.847  1.00  0.00    -0.045 NA
HETATM    6  C6  UNL     1      26.018   0.341  54.436  1.00  0.00     0.724 C 
HETATM    7  N2  UNL     1      24.887  -0.552  54.305  1.00  0.00    -0.075 NA
HETATM    8  C7  UNL     1      24.047  -0.297  53.330  1.00  0.00     0.139 C 
HETATM    9  C8  UNL     1      23.598   0.485  52.193  1.00  0.00     0.055 C 
HETATM   10  C9  UNL     1      24.057   1.547  51.615  1.00  0.00     0.087 C 
HETATM   11  N5  UNL     1      27.114  -0.161  55.200  1.00  0.00    -0.221 N 
HETATM   12  C18 UNL     1      28.480   0.270  54.970  1.00  0.00     0.158 C 
HETATM   13  C19 UNL     1      28.898   0.256  53.544  1.00  0.00     0.141 C 
HETATM   14  N6  UNL     1      28.342   1.318  52.725  1.00  0.00    -0.372 N 
HETATM   15  H25 UNL     1      26.655  -0.841  55.868  1.00  0.00     0.177 HD
HETATM   16  H30 UNL     1      28.846   1.942  52.050  1.00  0.00     0.161 HD
ENDROOT
BRANCH  10  17
HETATM   17  O2  UNL     1      23.284   1.977  50.513  1.00  0.00    -0.352 OA
BRANCH  17  18
HETATM   18  C10 UNL     1      22.011   1.446  50.291  1.00  0.00     0.177 C 
BRANCH  18  19
HETATM   19  C11 UNL     1      21.017   2.573  50.567  1.00  0.00     0.046 C 
BRANCH  19  20
HETATM   20  C12 UNL     1      20.397   2.401  51.940  1.00  0.00     0.119 C 
BRANCH  20  21
HETATM   21  N3  UNL     1      19.206   1.647  51.839  1.00  0.00    -0.409 N 
HETATM   22  C13 UNL     1      18.056   2.258  51.324  1.00  0.00     0.147 C 
HETATM   23  C14 UNL     1      16.778   1.497  51.597  1.00  0.00     0.291 C 
HETATM   24  N4  UNL     1      17.010   0.147  51.182  1.00  0.00     0.087 N 
HETATM   25  C15 UNL     1      17.155  -0.017  49.768  1.00  0.00     0.310 C 
HETATM   26  C16 UNL     1      18.038  -0.524  51.927  1.00  0.00     0.291 C 
HETATM   27  C17 UNL     1      19.181   0.341  52.334  1.00  0.00     0.147 C 
ENDBRANCH  20  21
ENDBRANCH  19  20
ENDBRANCH  18  19
ENDBRANCH  17  18
ENDBRANCH  10  17
BRANCH   1  28
HETATM   28  O1  UNL     1      24.640   3.832  52.046  1.00  0.00    -0.373 OA
HETATM   29  C1  UNL     1      23.785   3.765  53.111  1.00  0.00     0.203 C 
ENDBRANCH   1  28
TORSDOF 6
ENDMDL
MODEL 7
REMARK VINA RESULT:      -6.5      5.014      8.656
REMARK  6 active torsions:
REMARK  status: ('A' for Active; 'I' for Inactive)
REMARK    1  A    between atoms: O1_2  and  C2_3 
REMARK    2  A    between atoms: C9_12  and  O2_13 
REMARK    3  A    between atoms: O2_13  and  C10_14 
REMARK    4  A    between atoms: C10_14  and  C11_15 
REMARK    5  A    between atoms: C11_15  and  C12_16 
REMARK    6  A    between atoms: C12_16  and  N3_17 
ROOT
HETATM    1  C2  UNL     1      30.383   6.637  47.665  1.00  0.00     0.139 A 
HETATM    2  C3  UNL     1      29.462   5.558  48.210  1.00  0.00     0.092 A 
HETATM    3  C4  UNL     1      30.768   5.245  47.655  1.00  0.00     0.011 A 
HETATM    4  C5  UNL     1      31.943   4.902  47.164  1.00  0.00     0.148 C 
HETATM    5  N1  UNL     1      32.800   5.975  46.653  1.00  0.00    -0.045 NA
HETATM    6  C6  UNL     1      34.062   5.974  47.092  1.00  0.00     0.724 C 
HETATM    7  N2  UNL     1      34.538   6.984  48.013  1.00  0.00    -0.075 NA
HETATM    8  C7  UNL     1      33.624   7.672  48.656  1.00  0.00     0.139 C 
HETATM    9  C8  UNL     1      32.245   7.996  48.969  1.00  0.00     0.055 C 
HETATM   10  C9  UNL     1      31.112   7.545  48.538  1.00  0.00     0.087 C 
HETATM   11  N5  UNL     1      35.015   4.978  46.723  1.00  0.00    -0.221 N 
HETATM   12  C18 UNL     1      34.622   3.638  46.333  1.00  0.00     0.158 C 
HETATM   13  C19 UNL     1      33.647   2.991  47.250  1.00  0.00     0.141 C 
HETATM   14  N6  UNL     1      32.290   3.497  47.166  1.00  0.00    -0.372 N 
HETATM   15  H25 UNL     1      35.942   5.479  46.824  1.00  0.00     0.177 HD
HETATM   16  H30 UNL     1      31.400   2.947  47.101  1.00  0.00     0.161 HD
ENDROOT
BRANCH  10  17
HETATM   17  O2  UNL     1      29.988   8.161  49.132  1.00  0.00    -0.352 OA
BRANCH  17  18
HETATM   18  C10 UNL     1      29.959   9.545  49.327  1.00  0.00     0.177 C 
BRANCH  18  19
HETATM   19  C11 UNL     1      28.487   9.951  49.334  1.00  0.00     0.046 C 
BRANCH  19  20
HETATM   20  C12 UNL     1      27.774   9.360  48.133  1.00  0.00     0.119 C 
BRANCH  20  21
HETATM   21  N3  UNL     1      26.762   8.472  48.562  1.00  0.00    -0.409 N 
HETATM   22  C13 UNL     1      26.086   7.699  47.610  1.00  0.00     0.147 C 
HETATM   23  C14 UNL     1      24.805   7.074  48.118  1.00  0.00     0.291 C 
HETATM   24  N4  UNL     1      25.133   6.412  49.345  1.00  0.00     0.087 N 
HETATM   25  C15 UNL     1      25.977   5.269  49.188  1.00  0.00     0.310 C 
HETATM   26  C16 UNL     1      25.582   7.297  50.383  1.00  0.00     0.291 C 
HETATM   27  C17 UNL     1      26.402   8.449  49.912  1.00  0.00     0.147 C 
ENDBRANCH  20  21
ENDBRANCH  19  20
ENDBRANCH  18  19
ENDBRANCH  17  18
ENDBRANCH  10  17
BRANCH   1  28
HETATM   28  O1  UNL     1      29.836   7.247  46.531  1.00  0.00    -0.373 OA
HETATM   29  C1  UNL     1      30.644   8.169  45.925  1.00  0.00     0.203 C 
ENDBRANCH   1  28
TORSDOF 6
ENDMDL
MODEL 8
REMARK VINA RESULT:      -6.5      3.029      4.171
REMARK  6 active torsions:
REMARK  status: ('A' for Active; 'I' for Inactive)
REMARK    1  A    between atoms: O1_2  and  C2_3 
REMARK    2  A    between atoms: C9_12  and  O2_13 
REMARK    3  A    between atoms: O2_13  and  C10_14 
REMARK    4  A    between atoms: C10_14  and  C11_15 
REMARK    5  A    between atoms: C11_15  and  C12_16 
REMARK    6  A    between atoms: C12_16  and  N3_17 
ROOT
HETATM    1  C2  UNL     1      22.690   3.254  51.504  1.00  0.00     0.139 A 
HETATM    2  C3  UNL     1      23.755   4.037  52.255  1.00  0.00     0.092 A 
HETATM    3  C4  UNL     1      22.757   4.694  51.428  1.00  0.00     0.011 A 
HETATM    4  C5  UNL     1      21.877   5.345  50.692  1.00  0.00     0.148 C 
HETATM    5  N1  UNL     1      20.865   4.551  49.991  1.00  0.00    -0.045 NA
HETATM    6  C6  UNL     1      19.600   4.953  50.139  1.00  0.00     0.724 C 
HETATM    7  N2  UNL     1      18.653   4.184  50.918  1.00  0.00    -0.075 NA
HETATM    8  C7  UNL     1      19.154   3.291  51.738  1.00  0.00     0.139 C 
HETATM    9  C8  UNL     1      20.269   2.588  52.345  1.00  0.00     0.055 C 
HETATM   10  C9  UNL     1      21.550   2.655  52.182  1.00  0.00     0.087 C 
HETATM   11  N5  UNL     1      19.097   6.166  49.581  1.00  0.00    -0.221 N 
HETATM   12  C18 UNL     1      19.953   7.305  49.305  1.00  0.00     0.158 C 
HETATM   13  C19 UNL     1      20.857   7.680  50.424  1.00  0.00     0.141 C 
HETATM   14  N6  UNL     1      21.981   6.787  50.637  1.00  0.00    -0.372 N 
HETATM   15  H25 UNL     1      18.063   5.972  49.467  1.00  0.00     0.177 HD
HETATM   16  H30 UNL     1      22.988   7.042  50.778  1.00  0.00     0.161 HD
ENDROOT
BRANCH  10  17
HETATM   17  O2  UNL     1      22.278   1.765  53.003  1.00  0.00    -0.352 OA
BRANCH  17  18
HETATM   18  C10 UNL     1      21.761   0.504  53.313  1.00  0.00     0.177 C 
BRANCH  18  19
HETATM   19  C11 UNL     1      22.883  -0.500  53.055  1.00  0.00     0.046 C 
BRANCH  19  20
HETATM   20  C12 UNL     1      23.778  -0.611  54.274  1.00  0.00     0.119 C 
BRANCH  20  21
HETATM   21  N3  UNL     1      25.115  -0.319  53.918  1.00  0.00    -0.409 N 
HETATM   22  C13 UNL     1      25.455  -0.234  52.563  1.00  0.00     0.147 C 
HETATM   23  C14 UNL     1      26.943  -0.283  52.295  1.00  0.00     0.291 C 
HETATM   24  N4  UNL     1      27.544   0.691  53.154  1.00  0.00     0.087 N 
HETATM   25  C15 UNL     1      27.228   2.045  52.819  1.00  0.00     0.310 C 
HETATM   26  C16 UNL     1      27.383   0.414  54.554  1.00  0.00     0.291 C 
HETATM   27  C17 UNL     1      26.079  -0.206  54.923  1.00  0.00     0.147 C 
ENDBRANCH  20  21
ENDBRANCH  19  20
ENDBRANCH  18  19
ENDBRANCH  17  18
ENDBRANCH  10  17
BRANCH   1  28
HETATM   28  O1  UNL     1      23.256   2.446  50.512  1.00  0.00    -0.373 OA
HETATM   29  C1  UNL     1      22.361   1.710  49.786  1.00  0.00     0.203 C 
ENDBRANCH   1  28
TORSDOF 6
ENDMDL
MODEL 9
REMARK VINA RESULT:      -6.4      4.564      7.160
REMARK  6 active torsions:
REMARK  status: ('A' for Active; 'I' for Inactive)
REMARK    1  A    between atoms: O1_2  and  C2_3 
REMARK    2  A    between atoms: C9_12  and  O2_13 
REMARK    3  A    between atoms: O2_13  and  C10_14 
REMARK    4  A    between atoms: C10_14  and  C11_15 
REMARK    5  A    between atoms: C11_15  and  C12_16 
REMARK    6  A    between atoms: C12_16  and  N3_17 
ROOT
HETATM    1  C2  UNL     1      27.208   8.313  48.908  1.00  0.00     0.139 A 
HETATM    2  C3  UNL     1      27.413   9.259  50.080  1.00  0.00     0.092 A 
HETATM    3  C4  UNL     1      26.424   8.196  50.116  1.00  0.00     0.011 A 
HETATM    4  C5  UNL     1      25.510   7.248  50.205  1.00  0.00     0.148 C 
HETATM    5  N1  UNL     1      25.349   6.356  49.054  1.00  0.00    -0.045 NA
HETATM    6  C6  UNL     1      25.345   5.048  49.324  1.00  0.00     0.724 C 
HETATM    7  N2  UNL     1      26.452   4.198  48.941  1.00  0.00    -0.075 NA
HETATM    8  C7  UNL     1      27.580   4.799  48.642  1.00  0.00     0.139 C 
HETATM    9  C8  UNL     1      28.395   5.987  48.471  1.00  0.00     0.055 C 
HETATM   10  C9  UNL     1      28.152   7.251  48.598  1.00  0.00     0.087 C 
HETATM   11  N5  UNL     1      24.287   4.401  50.029  1.00  0.00    -0.221 N 
HETATM   12  C18 UNL     1      23.438   5.106  50.970  1.00  0.00     0.158 C 
HETATM   13  C19 UNL     1      24.174   5.940  51.956  1.00  0.00     0.141 C 
HETATM   14  N6  UNL     1      24.741   7.167  51.428  1.00  0.00    -0.372 N 
HETATM   15  H25 UNL     1      24.339   3.402  49.684  1.00  0.00     0.177 HD
HETATM   16  H30 UNL     1      24.684   8.132  51.835  1.00  0.00     0.161 HD
ENDROOT
BRANCH  10  17
HETATM   17  O2  UNL     1      29.266   8.076  48.328  1.00  0.00    -0.352 OA
BRANCH  17  18
HETATM   18  C10 UNL     1      30.185   7.725  47.335  1.00  0.00     0.177 C 
BRANCH  18  19
HETATM   19  C11 UNL     1      31.554   7.671  48.010  1.00  0.00     0.046 C 
BRANCH  19  20
HETATM   20  C12 UNL     1      32.616   7.251  47.013  1.00  0.00     0.119 C 
BRANCH  20  21
HETATM   21  N3  UNL     1      33.158   6.000  47.386  1.00  0.00    -0.409 N 
HETATM   22  C13 UNL     1      32.542   4.828  46.930  1.00  0.00     0.147 C 
HETATM   23  C14 UNL     1      32.969   3.579  47.668  1.00  0.00     0.291 C 
HETATM   24  N4  UNL     1      34.400   3.575  47.670  1.00  0.00     0.087 N 
HETATM   25  C15 UNL     1      34.989   3.372  46.383  1.00  0.00     0.310 C 
HETATM   26  C16 UNL     1      34.986   4.676  48.382  1.00  0.00     0.291 C 
HETATM   27  C17 UNL     1      34.242   5.962  48.267  1.00  0.00     0.147 C 
ENDBRANCH  20  21
ENDBRANCH  19  20
ENDBRANCH  18  19
ENDBRANCH  17  18
ENDBRANCH  10  17
BRANCH   1  28
HETATM   28  O1  UNL     1      26.718   8.991  47.787  1.00  0.00    -0.373 OA
HETATM   29  C1  UNL     1      26.433   8.196  46.711  1.00  0.00     0.203 C 
ENDBRANCH   1  28
TORSDOF 6
ENDMDL
