MODEL 1
REMARK VINA RESULT:      -7.0      0.000      0.000
REMARK  6 active torsions:
REMARK  status: ('A' for Active; 'I' for Inactive)
REMARK    1  A    between atoms: O1_2  and  C2_3 
REMARK    2  A    between atoms: C3_4  and  C4_5 
REMARK    3  A    between atoms: C6_7  and  C7_8 
REMARK    4  A    between atoms: C7_8  and  C8_9 
REMARK    5  A    between atoms: C8_9  and  C9_10 
REMARK    6  A    between atoms: C14_17  and  O2_18 
ROOT
HETATM    1  C9  UNL     1      23.386   1.907  52.359  1.00  0.00     0.049 A 
HETATM    2  N1  UNL     1      22.312   1.107  52.227  1.00  0.00    -0.246 NA
HETATM    3  C10 UNL     1      22.304  -0.136  52.738  1.00  0.00     0.234 A 
HETATM    4  N2  UNL     1      23.335  -0.685  53.409  1.00  0.00    -0.241 NA
HETATM    5  C11 UNL     1      24.422   0.117  53.547  1.00  0.00     0.070 A 
HETATM    6  C12 UNL     1      25.479  -0.470  54.251  1.00  0.00     0.035 A 
HETATM    7  C13 UNL     1      26.606   0.341  54.409  1.00  0.00     0.039 A 
HETATM    8  C14 UNL     1      26.680   1.624  53.911  1.00  0.00     0.069 A 
HETATM    9  C16 UNL     1      25.605   2.140  53.229  1.00  0.00     0.052 A 
HETATM   10  C17 UNL     1      24.474   1.401  53.038  1.00  0.00     0.020 A 
ENDROOT
BRANCH   1  11
HETATM   11  C8  UNL     1      23.388   3.264  51.774  1.00  0.00     0.064 C 
BRANCH  11  12
HETATM   12  C7  UNL     1      23.527   3.196  50.286  1.00  0.00     0.034 C 
BRANCH  12  13
HETATM   13  C6  UNL     1      24.935   3.497  49.860  1.00  0.00    -0.011 C 
HETATM   14  C4  UNL     1      25.352   4.623  49.302  1.00  0.00    -0.010 C 
HETATM   15  C5  UNL     1      24.378   5.731  49.047  1.00  0.00     0.058 C 
BRANCH  14  16
HETATM   16  C3  UNL     1      26.733   4.784  48.943  1.00  0.00    -0.042 C 
HETATM   17  C2  UNL     1      27.890   4.912  48.622  1.00  0.00     0.059 C 
BRANCH  17  18
HETATM   18  O1  UNL     1      29.204   5.052  48.236  1.00  0.00    -0.308 OA
HETATM   19  C1  UNL     1      29.738   6.378  48.133  1.00  0.00     0.223 C 
ENDBRANCH  17  18
ENDBRANCH  14  16
ENDBRANCH  12  13
ENDBRANCH  11  12
ENDBRANCH   1  11
BRANCH   8  20
HETATM   20  O2  UNL     1      27.842   2.340  54.126  1.00  0.00    -0.356 OA
HETATM   21  C15 UNL     1      29.080   1.644  54.126  1.00  0.00     0.210 C 
ENDBRANCH   8  20
TORSDOF 6
ENDMDL
MODEL 2
REMARK VINA RESULT:      -7.0      1.583      2.218
REMARK  6 active torsions:
REMARK  status: ('A' for Active; 'I' for Inactive)
REMARK    1  A    between atoms: O1_2  and  C2_3 
REMARK    2  A    between atoms: C3_4  and  C4_5 
REMARK    3  A    between atoms: C6_7  and  C7_8 
REMARK    4  A    between atoms: C7_8  and  C8_9 
REMARK    5  A    between atoms: C8_9  and  C9_10 
REMARK    6  A    between atoms: C14_17  and  O2_18 
ROOT
HETATM    1  C9  UNL     1      25.224   2.151  51.366  1.00  0.00     0.049 A 
HETATM    2  N1  UNL     1      24.001   2.489  50.916  1.00  0.00    -0.246 NA
HETATM    3  C10 UNL     1      22.895   1.903  51.404  1.00  0.00     0.234 A 
HETATM    4  N2  UNL     1      22.899   0.952  52.358  1.00  0.00    -0.241 NA
HETATM    5  C11 UNL     1      24.129   0.606  52.818  1.00  0.00     0.070 A 
HETATM    6  C12 UNL     1      24.111  -0.378  53.812  1.00  0.00     0.035 A 
HETATM    7  C13 UNL     1      25.368  -0.743  54.303  1.00  0.00     0.039 A 
HETATM    8  C14 UNL     1      26.541  -0.182  53.848  1.00  0.00     0.069 A 
HETATM    9  C16 UNL     1      26.488   0.780  52.869  1.00  0.00     0.052 A 
HETATM   10  C17 UNL     1      25.294   1.183  52.346  1.00  0.00     0.020 A 
ENDROOT
BRANCH   1  11
HETATM   11  C8  UNL     1      26.433   2.789  50.806  1.00  0.00     0.064 C 
BRANCH  11  12
HETATM   12  C7  UNL     1      26.123   3.450  49.500  1.00  0.00     0.034 C 
BRANCH  12  13
HETATM   13  C6  UNL     1      27.294   4.248  49.006  1.00  0.00    -0.011 C 
HETATM   14  C4  UNL     1      27.267   5.520  48.639  1.00  0.00    -0.010 C 
HETATM   15  C5  UNL     1      25.980   6.283  48.700  1.00  0.00     0.058 C 
BRANCH  14  16
HETATM   16  C3  UNL     1      28.465   6.168  48.185  1.00  0.00    -0.042 C 
HETATM   17  C2  UNL     1      29.463   6.719  47.786  1.00  0.00     0.059 C 
BRANCH  17  18
HETATM   18  O1  UNL     1      30.589   7.356  47.316  1.00  0.00    -0.308 OA
HETATM   19  C1  UNL     1      31.426   8.031  48.262  1.00  0.00     0.223 C 
ENDBRANCH  17  18
ENDBRANCH  14  16
ENDBRANCH  12  13
ENDBRANCH  11  12
ENDBRANCH   1  11
BRANCH   8  20
HETATM   20  O2  UNL     1      27.729  -0.617  54.403  1.00  0.00    -0.356 OA
HETATM   21  C15 UNL     1      28.723   0.346  54.727  1.00  0.00     0.210 C 
ENDBRANCH   8  20
TORSDOF 6
ENDMDL
MODEL 3
REMARK VINA RESULT:      -6.6      2.324      3.525
REMARK  6 active torsions:
REMARK  status: ('A' for Active; 'I' for Inactive)
REMARK    1  A    between atoms: O1_2  and  C2_3 
REMARK    2  A    between atoms: C3_4  and  C4_5 
REMARK    3  A    between atoms: C6_7  and  C7_8 
REMARK    4  A    between atoms: C7_8  and  C8_9 
REMARK    5  A    between atoms: C8_9  and  C9_10 
REMARK    6  A    between atoms: C14_17  and  O2_18 
ROOT
HETATM    1  C9  UNL     1      25.388   1.824  51.923  1.00  0.00     0.049 A 
HETATM    2  N1  UNL     1      26.563   1.169  51.970  1.00  0.00    -0.246 NA
HETATM    3  C10 UNL     1      26.660  -0.043  52.541  1.00  0.00     0.234 A 
HETATM    4  N2  UNL     1      25.628  -0.700  53.106  1.00  0.00    -0.241 NA
HETATM    5  C11 UNL     1      24.439  -0.045  53.062  1.00  0.00     0.070 A 
HETATM    6  C12 UNL     1      23.379  -0.746  53.647  1.00  0.00     0.035 A 
HETATM    7  C13 UNL     1      22.145  -0.091  53.607  1.00  0.00     0.039 A 
HETATM    8  C14 UNL     1      21.976   1.152  53.036  1.00  0.00     0.069 A 
HETATM    9  C16 UNL     1      23.059   1.785  52.478  1.00  0.00     0.052 A 
HETATM   10  C17 UNL     1      24.292   1.202  52.484  1.00  0.00     0.020 A 
ENDROOT
BRANCH   1  11
HETATM   11  C8  UNL     1      25.301   3.166  51.310  1.00  0.00     0.064 C 
BRANCH  11  12
HETATM   12  C7  UNL     1      25.412   3.072  49.821  1.00  0.00     0.034 C 
BRANCH  12  13
HETATM   13  C6  UNL     1      26.719   3.634  49.340  1.00  0.00    -0.011 C 
HETATM   14  C4  UNL     1      26.922   4.873  48.919  1.00  0.00    -0.010 C 
HETATM   15  C5  UNL     1      25.784   5.846  48.896  1.00  0.00     0.058 C 
BRANCH  14  16
HETATM   16  C3  UNL     1      28.228   5.284  48.485  1.00  0.00    -0.042 C 
HETATM   17  C2  UNL     1      29.326   5.644  48.135  1.00  0.00     0.059 C 
BRANCH  17  18
HETATM   18  O1  UNL     1      30.580   6.066  47.755  1.00  0.00    -0.308 OA
HETATM   19  C1  UNL     1      30.888   7.459  47.878  1.00  0.00     0.223 C 
ENDBRANCH  17  18
ENDBRANCH  14  16
ENDBRANCH  12  13
ENDBRANCH  11  12
ENDBRANCH   1  11
BRANCH   8  20
HETATM   20  O2  UNL     1      20.711   1.708  53.050  1.00  0.00    -0.356 OA
HETATM   21  C15 UNL     1      20.505   2.951  52.393  1.00  0.00     0.210 C 
ENDBRANCH   8  20
TORSDOF 6
ENDMDL
MODEL 4
REMARK VINA RESULT:      -6.5      1.432      2.245
REMARK  6 active torsions:
REMARK  status: ('A' for Active; 'I' for Inactive)
REMARK    1  A    between atoms: O1_2  and  C2_3 
REMARK    2  A    between atoms: C3_4  and  C4_5 
REMARK    3  A    between atoms: C6_7  and  C7_8 
REMARK    4  A    between atoms: C7_8  and  C8_9 
REMARK    5  A    between atoms: C8_9  and  C9_10 
REMARK    6  A    between atoms: C14_17  and  O2_18 
ROOT
HETATM    1  C9  UNL     1      22.530   3.776  52.432  1.00  0.00     0.049 A 
HETATM    2  N1  UNL     1      21.199   3.885  52.271  1.00  0.00    -0.246 NA
HETATM    3  C10 UNL     1      20.400   2.806  52.327  1.00  0.00     0.234 A 
HETATM    4  N2  UNL     1      20.838   1.551  52.541  1.00  0.00    -0.241 NA
HETATM    5  C11 UNL     1      22.181   1.432  52.705  1.00  0.00     0.070 A 
HETATM    6  C12 UNL     1      22.615   0.121  52.933  1.00  0.00     0.035 A 
HETATM    7  C13 UNL     1      23.994  -0.022  53.111  1.00  0.00     0.039 A 
HETATM    8  C14 UNL     1      24.868   1.042  53.066  1.00  0.00     0.069 A 
HETATM    9  C16 UNL     1      24.376   2.304  52.839  1.00  0.00     0.052 A 
HETATM   10  C17 UNL     1      23.040   2.514  52.656  1.00  0.00     0.020 A 
ENDROOT
BRANCH   1  11
HETATM   11  C8  UNL     1      23.398   4.969  52.347  1.00  0.00     0.064 C 
BRANCH  11  12
HETATM   12  C7  UNL     1      23.397   5.523  50.957  1.00  0.00     0.034 C 
BRANCH  12  13
HETATM   13  C6  UNL     1      24.781   5.531  50.377  1.00  0.00    -0.011 C 
HETATM   14  C4  UNL     1      25.306   4.586  49.612  1.00  0.00    -0.010 C 
HETATM   15  C5  UNL     1      24.494   3.377  49.261  1.00  0.00     0.058 C 
BRANCH  14  16
HETATM   16  C3  UNL     1      26.649   4.717  49.119  1.00  0.00    -0.042 C 
HETATM   17  C2  UNL     1      27.772   4.817  48.687  1.00  0.00     0.059 C 
BRANCH  17  18
HETATM   18  O1  UNL     1      29.046   4.924  48.177  1.00  0.00    -0.308 OA
HETATM   19  C1  UNL     1      29.553   6.235  47.899  1.00  0.00     0.223 C 
ENDBRANCH  17  18
ENDBRANCH  14  16
ENDBRANCH  12  13
ENDBRANCH  11  12
ENDBRANCH   1  11
BRANCH   8  20
HETATM   20  O2  UNL     1      26.213   0.789  53.256  1.00  0.00    -0.356 OA
HETATM   21  C15 UNL     1      26.687   0.585  54.580  1.00  0.00     0.210 C 
ENDBRANCH   8  20
TORSDOF 6
ENDMDL
MODEL 5
REMARK VINA RESULT:      -6.5      2.965      4.581
REMARK  6 active torsions:
REMARK  status: ('A' for Active; 'I' for Inactive)
REMARK    1  A    between atoms: O1_2  and  C2_3 
REMARK    2  A    between atoms: C3_4  and  C4_5 
REMARK    3  A    between atoms: C6_7  and  C7_8 
REMARK    4  A    between atoms: C7_8  and  C8_9 
REMARK    5  A    between atoms: C8_9  and  C9_10 
REMARK    6  A    between atoms: C14_17  and  O2_18 
ROOT
HETATM    1  C9  UNL     1      24.791  -0.536  53.681  1.00  0.00     0.049 A 
HETATM    2  N1  UNL     1      25.287  -1.013  54.838  1.00  0.00    -0.246 NA
HETATM    3  C10 UNL     1      24.475  -1.428  55.824  1.00  0.00     0.234 A 
HETATM    4  N2  UNL     1      23.130  -1.408  55.756  1.00  0.00    -0.241 NA
HETATM    5  C11 UNL     1      22.621  -0.929  54.591  1.00  0.00     0.070 A 
HETATM    6  C12 UNL     1      21.223  -0.922  54.538  1.00  0.00     0.035 A 
HETATM    7  C13 UNL     1      20.680  -0.439  53.345  1.00  0.00     0.039 A 
HETATM    8  C14 UNL     1      21.456   0.002  52.294  1.00  0.00     0.069 A 
HETATM    9  C16 UNL     1      22.824  -0.032  52.412  1.00  0.00     0.052 A 
HETATM   10  C17 UNL     1      23.419  -0.492  53.550  1.00  0.00     0.020 A 
ENDROOT
BRANCH   1  11
HETATM   11  C8  UNL     1      25.697  -0.064  52.613  1.00  0.00     0.064 C 
BRANCH  11  12
HETATM   12  C7  UNL     1      26.109   1.353  52.861  1.00  0.00     0.034 C 
BRANCH  12  13
HETATM   13  C6  UNL     1      25.744   2.233  51.701  1.00  0.00    -0.011 C 
HETATM   14  C4  UNL     1      24.784   3.144  51.690  1.00  0.00    -0.010 C 
HETATM   15  C5  UNL     1      23.953   3.361  52.917  1.00  0.00     0.058 C 
BRANCH  14  16
HETATM   16  C3  UNL     1      24.538   3.923  50.509  1.00  0.00    -0.042 C 
HETATM   17  C2  UNL     1      24.316   4.588  49.526  1.00  0.00     0.059 C 
BRANCH  17  18
HETATM   18  O1  UNL     1      24.051   5.359  48.417  1.00  0.00    -0.308 OA
HETATM   19  C1  UNL     1      24.647   6.660  48.342  1.00  0.00     0.223 C 
ENDBRANCH  17  18
ENDBRANCH  14  16
ENDBRANCH  12  13
ENDBRANCH  11  12
ENDBRANCH   1  11
BRANCH   8  20
HETATM   20  O2  UNL     1      20.815   0.460  51.159  1.00  0.00    -0.356 OA
HETATM   21  C15 UNL     1      21.359   1.578  50.473  1.00  0.00     0.210 C 
ENDBRANCH   8  20
TORSDOF 6
ENDMDL
MODEL 6
REMARK VINA RESULT:      -6.5      2.907      7.447
REMARK  6 active torsions:
REMARK  status: ('A' for Active; 'I' for Inactive)
REMARK    1  A    between atoms: O1_2  and  C2_3 
REMARK    2  A    between atoms: C3_4  and  C4_5 
REMARK    3  A    between atoms: C6_7  and  C7_8 
REMARK    4  A    between atoms: C7_8  and  C8_9 
REMARK    5  A    between atoms: C8_9  and  C9_10 
REMARK    6  A    between atoms: C14_17  and  O2_18 
ROOT
HETATM    1  C9  UNL     1      25.978   4.345  49.318  1.00  0.00     0.049 A 
HETATM    2  N1  UNL     1      24.699   4.720  49.505  1.00  0.00    -0.246 NA
HETATM    3  C10 UNL     1      24.285   5.959  49.192  1.00  0.00     0.234 A 
HETATM    4  N2  UNL     1      25.082   6.917  48.679  1.00  0.00    -0.241 NA
HETATM    5  C11 UNL     1      26.374   6.545  48.486  1.00  0.00     0.070 A 
HETATM    6  C12 UNL     1      27.182   7.552  47.947  1.00  0.00     0.035 A 
HETATM    7  C13 UNL     1      28.515   7.188  47.735  1.00  0.00     0.039 A 
HETATM    8  C14 UNL     1      29.005   5.934  48.033  1.00  0.00     0.069 A 
HETATM    9  C16 UNL     1      28.156   4.992  48.561  1.00  0.00     0.052 A 
HETATM   10  C17 UNL     1      26.843   5.282  48.793  1.00  0.00     0.020 A 
ENDROOT
BRANCH   1  11
HETATM   11  C8  UNL     1      26.424   2.985  49.687  1.00  0.00     0.064 C 
BRANCH  11  12
HETATM   12  C7  UNL     1      26.489   2.838  51.175  1.00  0.00     0.034 C 
BRANCH  12  13
HETATM   13  C6  UNL     1      25.584   1.738  51.649  1.00  0.00    -0.011 C 
HETATM   14  C4  UNL     1      24.528   1.888  52.433  1.00  0.00    -0.010 C 
HETATM   15  C5  UNL     1      24.154   3.253  52.924  1.00  0.00     0.058 C 
BRANCH  14  16
HETATM   16  C3  UNL     1      23.741   0.748  52.813  1.00  0.00    -0.042 C 
HETATM   17  C2  UNL     1      23.097  -0.222  53.132  1.00  0.00     0.059 C 
BRANCH  17  18
HETATM   18  O1  UNL     1      22.380  -1.339  53.498  1.00  0.00    -0.308 OA
HETATM   19  C1  UNL     1      21.444  -1.216  54.576  1.00  0.00     0.223 C 
ENDBRANCH  17  18
ENDBRANCH  14  16
ENDBRANCH  12  13
ENDBRANCH  11  12
ENDBRANCH   1  11
BRANCH   8  20
HETATM   20  O2  UNL     1      30.340   5.680  47.783  1.00  0.00    -0.356 OA
HETATM   21  C15 UNL     1      31.301   6.072  48.753  1.00  0.00     0.210 C 
ENDBRANCH   8  20
TORSDOF 6
ENDMDL
MODEL 7
REMARK VINA RESULT:      -6.3      2.075      3.389
REMARK  6 active torsions:
REMARK  status: ('A' for Active; 'I' for Inactive)
REMARK    1  A    between atoms: O1_2  and  C2_3 
REMARK    2  A    between atoms: C3_4  and  C4_5 
REMARK    3  A    between atoms: C6_7  and  C7_8 
REMARK    4  A    between atoms: C7_8  and  C8_9 
REMARK    5  A    between atoms: C8_9  and  C9_10 
REMARK    6  A    between atoms: C14_17  and  O2_18 
ROOT
HETATM    1  C9  UNL     1      24.229   3.237  50.291  1.00  0.00     0.049 A 
HETATM    2  N1  UNL     1      23.347   3.650  49.362  1.00  0.00    -0.246 NA
HETATM    3  C10 UNL     1      22.135   3.082  49.254  1.00  0.00     0.234 A 
HETATM    4  N2  UNL     1      21.697   2.077  50.036  1.00  0.00    -0.241 NA
HETATM    5  C11 UNL     1      22.581   1.655  50.977  1.00  0.00     0.070 A 
HETATM    6  C12 UNL     1      22.106   0.615  51.782  1.00  0.00     0.035 A 
HETATM    7  C13 UNL     1      22.999   0.171  52.761  1.00  0.00     0.039 A 
HETATM    8  C14 UNL     1      24.256   0.710  52.927  1.00  0.00     0.069 A 
HETATM    9  C16 UNL     1      24.661   1.730  52.101  1.00  0.00     0.052 A 
HETATM   10  C17 UNL     1      23.838   2.211  51.124  1.00  0.00     0.020 A 
ENDROOT
BRANCH   1  11
HETATM   11  C8  UNL     1      25.567   3.858  50.384  1.00  0.00     0.064 C 
BRANCH  11  12
HETATM   12  C7  UNL     1      25.865   4.656  49.154  1.00  0.00     0.034 C 
BRANCH  12  13
HETATM   13  C6  UNL     1      27.331   4.628  48.833  1.00  0.00    -0.011 C 
HETATM   14  C4  UNL     1      28.047   5.649  48.389  1.00  0.00    -0.010 C 
HETATM   15  C5  UNL     1      27.390   6.976  48.167  1.00  0.00     0.058 C 
BRANCH  14  16
HETATM   16  C3  UNL     1      29.449   5.487  48.120  1.00  0.00    -0.042 C 
HETATM   17  C2  UNL     1      30.631   5.361  47.911  1.00  0.00     0.059 C 
BRANCH  17  18
HETATM   18  O1  UNL     1      31.983   5.226  47.692  1.00  0.00    -0.308 OA
HETATM   19  C1  UNL     1      32.471   3.951  47.255  1.00  0.00     0.223 C 
ENDBRANCH  17  18
ENDBRANCH  14  16
ENDBRANCH  12  13
ENDBRANCH  11  12
ENDBRANCH   1  11
BRANCH   8  20
HETATM   20  O2  UNL     1      25.059   0.196  53.927  1.00  0.00    -0.356 OA
HETATM   21  C15 UNL     1      25.872  -0.932  53.636  1.00  0.00     0.210 C 
ENDBRANCH   8  20
TORSDOF 6
ENDMDL
MODEL 8
REMARK VINA RESULT:      -6.2      4.736      8.213
REMARK  6 active torsions:
REMARK  status: ('A' for Active; 'I' for Inactive)
REMARK    1  A    between atoms: O1_2  and  C2_3 
REMARK    2  A    between atoms: C3_4  and  C4_5 
REMARK    3  A    between atoms: C6_7  and  C7_8 
REMARK    4  A    between atoms: C7_8  and  C8_9 
REMARK    5  A    between atoms: C8_9  and  C9_10 
REMARK    6  A    between atoms: C14_17  and  O2_18 
ROOT
HETATM    1  C9  UNL     1      22.390  -0.375  54.397  1.00  0.00     0.049 A 
HETATM    2  N1  UNL     1      22.689  -1.201  55.417  1.00  0.00    -0.246 NA
HETATM    3  C10 UNL     1      23.957  -1.572  55.662  1.00  0.00     0.234 A 
HETATM    4  N2  UNL     1      25.018  -1.168  54.937  1.00  0.00    -0.241 NA
HETATM    5  C11 UNL     1      24.724  -0.333  53.907  1.00  0.00     0.070 A 
HETATM    6  C12 UNL     1      25.840   0.079  53.171  1.00  0.00     0.035 A 
HETATM    7  C13 UNL     1      25.560   0.945  52.110  1.00  0.00     0.039 A 
HETATM    8  C14 UNL     1      24.284   1.364  51.804  1.00  0.00     0.069 A 
HETATM    9  C16 UNL     1      23.232   0.922  52.568  1.00  0.00     0.052 A 
HETATM   10  C17 UNL     1      23.436   0.075  53.618  1.00  0.00     0.020 A 
ENDROOT
BRANCH   1  11
HETATM   11  C8  UNL     1      20.989   0.008  54.127  1.00  0.00     0.064 C 
BRANCH  11  12
HETATM   12  C7  UNL     1      20.167  -1.198  53.798  1.00  0.00     0.034 C 
BRANCH  12  13
HETATM   13  C6  UNL     1      18.839  -0.807  53.219  1.00  0.00    -0.011 C 
HETATM   14  C4  UNL     1      17.755  -1.566  53.182  1.00  0.00    -0.010 C 
HETATM   15  C5  UNL     1      17.798  -2.950  53.752  1.00  0.00     0.058 C 
BRANCH  14  16
HETATM   16  C3  UNL     1      16.542  -1.067  52.597  1.00  0.00    -0.042 C 
HETATM   17  C2  UNL     1      15.527  -0.629  52.111  1.00  0.00     0.059 C 
BRANCH  17  18
HETATM   18  O1  UNL     1      14.379  -0.109  51.558  1.00  0.00    -0.308 OA
HETATM   19  C1  UNL     1      14.416   0.298  50.185  1.00  0.00     0.223 C 
ENDBRANCH  17  18
ENDBRANCH  14  16
ENDBRANCH  12  13
ENDBRANCH  11  12
ENDBRANCH   1  11
BRANCH   8  20
HETATM   20  O2  UNL     1      24.120   2.222  50.733  1.00  0.00    -0.356 OA
HETATM   21  C15 UNL     1      22.883   2.906  50.591  1.00  0.00     0.210 C 
ENDBRANCH   8  20
TORSDOF 6
ENDMDL
MODEL 9
REMARK VINA RESULT:      -6.2      2.014      2.680
REMARK  6 active torsions:
REMARK  status: ('A' for Active; 'I' for Inactive)
REMARK    1  A    between atoms: O1_2  and  C2_3 
REMARK    2  A    between atoms: C3_4  and  C4_5 
REMARK    3  A    between atoms: C6_7  and  C7_8 
REMARK    4  A    between atoms: C7_8  and  C8_9 
REMARK    5  A    between atoms: C8_9  and  C9_10 
REMARK    6  A    between atoms: C14_17  and  O2_18 
ROOT
HETATM    1  C9  UNL     1      22.667   2.084  52.282  1.00  0.00     0.049 A 
HETATM    2  N1  UNL     1      21.409   2.473  52.002  1.00  0.00    -0.246 NA
HETATM    3  C10 UNL     1      20.351   1.827  52.520  1.00  0.00     0.234 A 
HETATM    4  N2  UNL     1      20.440   0.763  53.341  1.00  0.00    -0.241 NA
HETATM    5  C11 UNL     1      21.707   0.366  53.629  1.00  0.00     0.070 A 
HETATM    6  C12 UNL     1      21.778  -0.736  54.488  1.00  0.00     0.035 A 
HETATM    7  C13 UNL     1      23.073  -1.157  54.802  1.00  0.00     0.039 A 
HETATM    8  C14 UNL     1      24.201  -0.540  54.306  1.00  0.00     0.069 A 
HETATM    9  C16 UNL     1      24.060   0.538  53.467  1.00  0.00     0.052 A 
HETATM   10  C17 UNL     1      22.824   1.000  53.120  1.00  0.00     0.020 A 
ENDROOT
BRANCH   1  11
HETATM   11  C8  UNL     1      23.821   2.791  51.689  1.00  0.00     0.064 C 
BRANCH  11  12
HETATM   12  C7  UNL     1      23.679   2.876  50.201  1.00  0.00     0.034 C 
BRANCH  12  13
HETATM   13  C6  UNL     1      24.347   4.108  49.664  1.00  0.00    -0.011 C 
HETATM   14  C4  UNL     1      25.639   4.239  49.406  1.00  0.00    -0.010 C 
HETATM   15  C5  UNL     1      26.567   3.090  49.654  1.00  0.00     0.058 C 
BRANCH  14  16
HETATM   16  C3  UNL     1      26.153   5.478  48.891  1.00  0.00    -0.042 C 
HETATM   17  C2  UNL     1      26.601   6.515  48.466  1.00  0.00     0.059 C 
BRANCH  17  18
HETATM   18  O1  UNL     1      27.133   7.692  47.990  1.00  0.00    -0.308 OA
HETATM   19  C1  UNL     1      26.396   8.408  46.990  1.00  0.00     0.223 C 
ENDBRANCH  17  18
ENDBRANCH  14  16
ENDBRANCH  12  13
ENDBRANCH  11  12
ENDBRANCH   1  11
BRANCH   8  20
HETATM   20  O2  UNL     1      25.434  -1.038  54.682  1.00  0.00    -0.356 OA
HETATM   21  C15 UNL     1      26.524  -0.135  54.808  1.00  0.00     0.210 C 
ENDBRANCH   8  20
TORSDOF 6
ENDMDL
