MODEL 1
REMARK VINA RESULT:      -8.9      0.000      0.000
REMARK  3 active torsions:
REMARK  status: ('A' for Active; 'I' for Inactive)
REMARK    1  A    between atoms: C5_5  and  C6_6 
REMARK    2  A    between atoms: C6_6  and  O1_7 
REMARK    3  A    between atoms: C12_13  and  N1_14 
ROOT
HETATM    1  C1  UNL     1      17.607   2.814  51.392  1.00  0.00     0.048 C 
HETATM    2  C2  UNL     1      19.058   2.960  51.466  1.00  0.00    -0.061 C 
HETATM    3  C3  UNL     1      19.236   1.813  52.001  1.00  0.00     0.007 C 
HETATM    4  C4  UNL     1      19.349   0.528  52.594  1.00  0.00     0.005 C 
HETATM    5  C5  UNL     1      20.136  -0.396  53.065  1.00  0.00    -0.056 C 
HETATM    6  C7  UNL     1      21.586  -0.478  53.123  1.00  0.00     0.042 C 
HETATM    7  C8  UNL     1      22.063  -0.596  54.543  1.00  0.00     0.061 C 
HETATM    8  C9  UNL     1      23.553  -0.709  54.568  1.00  0.00     0.006 C 
HETATM    9  C10 UNL     1      24.128  -0.191  53.475  1.00  0.00     0.037 C 
HETATM   10  C11 UNL     1      25.320   0.583  53.662  1.00  0.00     0.009 C 
HETATM   11  C12 UNL     1      25.767   1.852  53.490  1.00  0.00     0.153 C 
HETATM   12  N4  UNL     1      24.566   2.364  52.982  1.00  0.00    -0.245 NA
HETATM   13  C14 UNL     1      24.412   3.507  52.418  1.00  0.00     0.093 C 
HETATM   14  C15 UNL     1      23.064   3.872  51.947  1.00  0.00     0.051 C 
HETATM   15  C16 UNL     1      21.827   3.951  51.634  1.00  0.00     0.051 C 
HETATM   16  C17 UNL     1      20.844   4.836  51.008  1.00  0.00    -0.010 C 
HETATM   17 BR1  UNL     1      20.741   6.590  50.163  1.00  0.00    -0.056 Br
HETATM   18  C18 UNL     1      19.667   4.172  51.051  1.00  0.00     0.021 C 
HETATM   19  C19 UNL     1      25.847  -0.699  54.187  1.00  0.00     0.162 C 
HETATM   20  N5  UNL     1      24.805  -1.111  55.152  1.00  0.00    -0.389 N 
HETATM   21  H20 UNL     1      24.641  -1.580  56.101  1.00  0.00     0.159 HD
ENDROOT
BRANCH  11  22
HETATM   22  N1  UNL     1      27.141   2.091  53.871  1.00  0.00    -0.215 N 
HETATM   23  C13 UNL     1      28.054   2.184  52.967  1.00  0.00     0.322 A 
HETATM   24  N2  UNL     1      27.577   2.179  54.210  1.00  0.00    -0.049 NA
HETATM   25  N3  UNL     1      28.892   2.377  53.971  1.00  0.00    -0.155 NA
ENDBRANCH  11  22
BRANCH   5  26
HETATM   26  C6  UNL     1      19.413  -1.567  53.562  1.00  0.00     0.198 C 
BRANCH  26  27
HETATM   27  O1  UNL     1      18.173  -1.206  54.079  1.00  0.00    -0.397 OA
HETATM   28  H8  UNL     1      17.552  -1.963  54.034  1.00  0.00     0.209 HD
ENDBRANCH  26  27
ENDBRANCH   5  26
TORSDOF 3
ENDMDL
MODEL 2
REMARK VINA RESULT:      -8.9      2.975      4.835
REMARK  3 active torsions:
REMARK  status: ('A' for Active; 'I' for Inactive)
REMARK    1  A    between atoms: C5_5  and  C6_6 
REMARK    2  A    between atoms: C6_6  and  O1_7 
REMARK    3  A    between atoms: C12_13  and  N1_14 
ROOT
HETATM    1  C1  UNL     1      17.803   3.169  51.204  1.00  0.00     0.048 C 
HETATM    2  C2  UNL     1      18.867   2.333  51.752  1.00  0.00    -0.061 C 
HETATM    3  C3  UNL     1      19.784   3.195  51.527  1.00  0.00     0.007 C 
HETATM    4  C4  UNL     1      20.742   4.203  51.241  1.00  0.00     0.005 C 
HETATM    5  C5  UNL     1      21.985   4.582  51.306  1.00  0.00    -0.056 C 
HETATM    6  C7  UNL     1      23.148   3.946  51.902  1.00  0.00     0.042 C 
HETATM    7  C8  UNL     1      24.209   3.685  50.870  1.00  0.00     0.061 C 
HETATM    8  C9  UNL     1      25.402   3.060  51.517  1.00  0.00     0.006 C 
HETATM    9  C10 UNL     1      25.099   2.433  52.661  1.00  0.00     0.037 C 
HETATM   10  C11 UNL     1      25.723   1.165  52.902  1.00  0.00     0.009 C 
HETATM   11  C12 UNL     1      25.388  -0.140  53.062  1.00  0.00     0.153 C 
HETATM   12  N4  UNL     1      24.007   0.044  52.910  1.00  0.00    -0.245 NA
HETATM   13  C14 UNL     1      23.097  -0.824  53.173  1.00  0.00     0.093 C 
HETATM   14  C15 UNL     1      21.692  -0.445  52.945  1.00  0.00     0.051 C 
HETATM   15  C16 UNL     1      20.575   0.114  52.669  1.00  0.00     0.051 C 
HETATM   16  C17 UNL     1      19.132  -0.121  52.662  1.00  0.00    -0.010 C 
HETATM   17 BR1  UNL     1      17.845  -1.519  53.105  1.00  0.00    -0.056 Br
HETATM   18  C18 UNL     1      18.571   1.022  52.207  1.00  0.00     0.021 C 
HETATM   19  C19 UNL     1      26.963   1.977  52.858  1.00  0.00     0.162 C 
HETATM   20  N5  UNL     1      26.804   2.749  51.608  1.00  0.00    -0.389 N 
HETATM   21  H20 UNL     1      27.330   3.149  50.764  1.00  0.00     0.159 HD
ENDROOT
BRANCH  11  22
HETATM   22  N1  UNL     1      26.489  -1.047  53.290  1.00  0.00    -0.215 N 
HETATM   23  C13 UNL     1      26.817  -1.903  52.384  1.00  0.00     0.322 A 
HETATM   24  N2  UNL     1      26.915  -1.288  53.561  1.00  0.00    -0.049 NA
HETATM   25  N3  UNL     1      27.761  -2.286  53.226  1.00  0.00    -0.155 NA
ENDBRANCH  11  22
BRANCH   5  26
HETATM   26  C6  UNL     1      22.214   5.904  50.723  1.00  0.00     0.198 C 
BRANCH  26  27
HETATM   27  O1  UNL     1      21.806   6.911  51.594  1.00  0.00    -0.397 OA
HETATM   28  H8  UNL     1      21.268   7.577  51.116  1.00  0.00     0.209 HD
ENDBRANCH  26  27
ENDBRANCH   5  26
TORSDOF 3
ENDMDL
MODEL 3
REMARK VINA RESULT:      -8.8      3.755      6.454
REMARK  3 active torsions:
REMARK  status: ('A' for Active; 'I' for Inactive)
REMARK    1  A    between atoms: C5_5  and  C6_6 
REMARK    2  A    between atoms: C6_6  and  O1_7 
REMARK    3  A    between atoms: C12_13  and  N1_14 
ROOT
HETATM    1  C1  UNL     1      27.075   4.408  49.061  1.00  0.00     0.048 C 
HETATM    2  C2  UNL     1      25.742   4.018  49.513  1.00  0.00    -0.061 C 
HETATM    3  C3  UNL     1      26.180   3.282  50.461  1.00  0.00     0.007 C 
HETATM    4  C4  UNL     1      26.747   2.484  51.490  1.00  0.00     0.005 C 
HETATM    5  C5  UNL     1      26.540   1.701  52.509  1.00  0.00    -0.056 C 
HETATM    6  C7  UNL     1      25.309   1.291  53.163  1.00  0.00     0.042 C 
HETATM    7  C8  UNL     1      25.144  -0.202  53.114  1.00  0.00     0.061 C 
HETATM    8  C9  UNL     1      23.887  -0.595  53.821  1.00  0.00     0.006 C 
HETATM    9  C10 UNL     1      22.991   0.399  53.872  1.00  0.00     0.037 C 
HETATM   10  C11 UNL     1      21.618   0.061  53.638  1.00  0.00     0.009 C 
HETATM   11  C12 UNL     1      20.625   0.320  52.751  1.00  0.00     0.153 C 
HETATM   12  N4  UNL     1      21.379   1.171  51.932  1.00  0.00    -0.245 NA
HETATM   13  C14 UNL     1      20.916   1.929  51.004  1.00  0.00     0.093 C 
HETATM   14  C15 UNL     1      21.871   2.756  50.244  1.00  0.00     0.051 C 
HETATM   15  C16 UNL     1      22.879   3.360  49.742  1.00  0.00     0.051 C 
HETATM   16  C17 UNL     1      23.255   4.332  48.715  1.00  0.00    -0.010 C 
HETATM   17 BR1  UNL     1      22.431   5.444  47.340  1.00  0.00    -0.056 Br
HETATM   18  C18 UNL     1      24.598   4.463  48.802  1.00  0.00     0.021 C 
HETATM   19  C19 UNL     1      21.809  -0.770  54.852  1.00  0.00     0.162 C 
HETATM   20  N5  UNL     1      23.049  -1.514  54.546  1.00  0.00    -0.389 N 
HETATM   21  H20 UNL     1      23.541  -2.460  54.657  1.00  0.00     0.159 HD
ENDROOT
BRANCH  11  22
HETATM   22  N1  UNL     1      19.362  -0.332  53.014  1.00  0.00    -0.215 N 
HETATM   23  C13 UNL     1      18.460  -0.382  52.095  1.00  0.00     0.322 A 
HETATM   24  N2  UNL     1      18.973  -0.611  53.302  1.00  0.00    -0.049 NA
HETATM   25  N3  UNL     1      17.732  -1.039  52.983  1.00  0.00    -0.155 NA
ENDBRANCH  11  22
BRANCH   5  26
HETATM   26  C6  UNL     1      27.776   1.210  53.117  1.00  0.00     0.198 C 
BRANCH  26  27
HETATM   27  O1  UNL     1      28.810   2.129  52.960  1.00  0.00    -0.397 OA
HETATM   28  H8  UNL     1      29.581   1.704  52.530  1.00  0.00     0.209 HD
ENDBRANCH  26  27
ENDBRANCH   5  26
TORSDOF 3
ENDMDL
MODEL 4
REMARK VINA RESULT:      -8.4      3.737      6.237
REMARK  3 active torsions:
REMARK  status: ('A' for Active; 'I' for Inactive)
REMARK    1  A    between atoms: C5_5  and  C6_6 
REMARK    2  A    between atoms: C6_6  and  O1_7 
REMARK    3  A    between atoms: C12_13  and  N1_14 
ROOT
HETATM    1  C1  UNL     1      21.847  -1.909  54.939  1.00  0.00     0.048 C 
HETATM    2  C2  UNL     1      21.724  -1.002  53.801  1.00  0.00    -0.061 C 
HETATM    3  C3  UNL     1      22.973  -0.734  53.764  1.00  0.00     0.007 C 
HETATM    4  C4  UNL     1      24.371  -0.487  53.791  1.00  0.00     0.005 C 
HETATM    5  C5  UNL     1      25.386   0.123  53.251  1.00  0.00    -0.056 C 
HETATM    6  C7  UNL     1      25.476   0.966  52.070  1.00  0.00     0.042 C 
HETATM    7  C8  UNL     1      25.976   2.338  52.424  1.00  0.00     0.061 C 
HETATM    8  C9  UNL     1      26.088   3.170  51.188  1.00  0.00     0.006 C 
HETATM    9  C10 UNL     1      25.290   2.739  50.202  1.00  0.00     0.037 C 
HETATM   10  C11 UNL     1      24.593   3.732  49.437  1.00  0.00     0.009 C 
HETATM   11  C12 UNL     1      23.324   4.131  49.172  1.00  0.00     0.153 C 
HETATM   12  N4  UNL     1      22.697   3.166  49.971  1.00  0.00    -0.245 NA
HETATM   13  C14 UNL     1      21.443   2.888  49.971  1.00  0.00     0.093 C 
HETATM   14  C15 UNL     1      20.967   1.837  50.889  1.00  0.00     0.051 C 
HETATM   15  C16 UNL     1      20.809   0.910  51.756  1.00  0.00     0.051 C 
HETATM   16  C17 UNL     1      19.789   0.058  52.368  1.00  0.00    -0.010 C 
HETATM   17 BR1  UNL     1      17.871  -0.279  52.270  1.00  0.00    -0.056 Br
HETATM   18  C18 UNL     1      20.443  -0.718  53.262  1.00  0.00     0.021 C 
HETATM   19  C19 UNL     1      25.969   4.158  49.086  1.00  0.00     0.162 C 
HETATM   20  N5  UNL     1      26.631   4.248  50.404  1.00  0.00    -0.389 N 
HETATM   21  H20 UNL     1      27.342   4.806  50.980  1.00  0.00     0.159 HD
ENDROOT
BRANCH  11  22
HETATM   22  N1  UNL     1      23.196   5.260  48.279  1.00  0.00    -0.215 N 
HETATM   23  C13 UNL     1      22.557   5.133  47.167  1.00  0.00     0.322 A 
HETATM   24  N2  UNL     1      23.258   5.784  48.093  1.00  0.00    -0.049 NA
HETATM   25  N3  UNL     1      22.843   6.408  46.969  1.00  0.00    -0.155 NA
ENDBRANCH  11  22
BRANCH   5  26
HETATM   26  C6  UNL     1      26.650  -0.150  53.934  1.00  0.00     0.198 C 
BRANCH  26  27
HETATM   27  O1  UNL     1      26.434  -0.493  55.266  1.00  0.00    -0.397 OA
HETATM   28  H8  UNL     1      25.474  -0.570  55.446  1.00  0.00     0.209 HD
ENDBRANCH  26  27
ENDBRANCH   5  26
TORSDOF 3
ENDMDL
MODEL 5
REMARK VINA RESULT:      -8.1      3.727      6.427
REMARK  3 active torsions:
REMARK  status: ('A' for Active; 'I' for Inactive)
REMARK    1  A    between atoms: C5_5  and  C6_6 
REMARK    2  A    between atoms: C6_6  and  O1_7 
REMARK    3  A    between atoms: C12_13  and  N1_14 
ROOT
HETATM    1  C1  UNL     1      22.509  -1.991  55.198  1.00  0.00     0.048 C 
HETATM    2  C2  UNL     1      22.765  -0.888  54.275  1.00  0.00    -0.061 C 
HETATM    3  C3  UNL     1      21.556  -0.831  53.866  1.00  0.00     0.007 C 
HETATM    4  C4  UNL     1      20.195  -0.833  53.463  1.00  0.00     0.005 C 
HETATM    5  C5  UNL     1      19.270  -0.290  52.725  1.00  0.00    -0.056 C 
HETATM    6  C7  UNL     1      19.308   0.863  51.841  1.00  0.00     0.042 C 
HETATM    7  C8  UNL     1      18.956   0.474  50.433  1.00  0.00     0.061 C 
HETATM    8  C9  UNL     1      18.973   1.684  49.555  1.00  0.00     0.006 C 
HETATM    9  C10 UNL     1      19.744   2.665  50.042  1.00  0.00     0.037 C 
HETATM   10  C11 UNL     1      20.569   3.378  49.112  1.00  0.00     0.009 C 
HETATM   11  C12 UNL     1      21.882   3.600  48.851  1.00  0.00     0.153 C 
HETATM   12  N4  UNL     1      22.374   2.819  49.906  1.00  0.00    -0.245 NA
HETATM   13  C14 UNL     1      23.588   2.799  50.325  1.00  0.00     0.093 C 
HETATM   14  C15 UNL     1      23.917   1.906  51.451  1.00  0.00     0.051 C 
HETATM   15  C16 UNL     1      23.946   1.068  52.416  1.00  0.00     0.051 C 
HETATM   16  C17 UNL     1      24.846   0.462  53.397  1.00  0.00    -0.010 C 
HETATM   17 BR1  UNL     1      26.716   0.526  53.947  1.00  0.00    -0.056 Br
HETATM   18  C18 UNL     1      24.084  -0.389  54.122  1.00  0.00     0.021 C 
HETATM   19  C19 UNL     1      19.260   3.748  48.521  1.00  0.00     0.162 C 
HETATM   20  N5  UNL     1      18.577   2.443  48.398  1.00  0.00    -0.389 N 
HETATM   21  H20 UNL     1      17.917   1.865  47.781  1.00  0.00     0.159 HD
ENDROOT
BRANCH  11  22
HETATM   22  N1  UNL     1      22.161   4.450  47.717  1.00  0.00    -0.215 N 
HETATM   23  C13 UNL     1      22.502   5.679  47.902  1.00  0.00     0.322 A 
HETATM   24  N2  UNL     1      22.222   4.596  47.180  1.00  0.00    -0.049 NA
HETATM   25  N3  UNL     1      22.574   5.756  46.584  1.00  0.00    -0.155 NA
ENDBRANCH  11  22
BRANCH   5  26
HETATM   26  C6  UNL     1      17.965  -0.934  52.874  1.00  0.00     0.198 C 
BRANCH  26  27
HETATM   27  O1  UNL     1      17.748  -1.323  54.192  1.00  0.00    -0.397 OA
HETATM   28  H8  UNL     1      18.078  -0.637  54.809  1.00  0.00     0.209 HD
ENDBRANCH  26  27
ENDBRANCH   5  26
TORSDOF 3
ENDMDL
MODEL 6
REMARK VINA RESULT:      -8.1      3.754      5.720
REMARK  3 active torsions:
REMARK  status: ('A' for Active; 'I' for Inactive)
REMARK    1  A    between atoms: C5_5  and  C6_6 
REMARK    2  A    between atoms: C6_6  and  O1_7 
REMARK    3  A    between atoms: C12_13  and  N1_14 
ROOT
HETATM    1  C1  UNL     1      24.307   7.871  47.568  1.00  0.00     0.048 C 
HETATM    2  C2  UNL     1      24.763   6.637  48.201  1.00  0.00    -0.061 C 
HETATM    3  C3  UNL     1      23.591   6.286  48.570  1.00  0.00     0.007 C 
HETATM    4  C4  UNL     1      22.258   5.969  48.945  1.00  0.00     0.005 C 
HETATM    5  C5  UNL     1      21.454   5.122  49.519  1.00  0.00    -0.056 C 
HETATM    6  C7  UNL     1      21.702   3.813  50.101  1.00  0.00     0.042 C 
HETATM    7  C8  UNL     1      21.330   3.791  51.556  1.00  0.00     0.061 C 
HETATM    8  C9  UNL     1      21.566   2.426  52.118  1.00  0.00     0.006 C 
HETATM    9  C10 UNL     1      22.472   1.730  51.419  1.00  0.00     0.037 C 
HETATM   10  C11 UNL     1      23.427   0.960  52.161  1.00  0.00     0.009 C 
HETATM   11  C12 UNL     1      24.765   0.901  52.377  1.00  0.00     0.153 C 
HETATM   12  N4  UNL     1      25.096   1.980  51.547  1.00  0.00    -0.245 NA
HETATM   13  C14 UNL     1      26.279   2.298  51.160  1.00  0.00     0.093 C 
HETATM   14  C15 UNL     1      26.428   3.475  50.286  1.00  0.00     0.051 C 
HETATM   15  C16 UNL     1      26.295   4.513  49.551  1.00  0.00     0.051 C 
HETATM   16  C17 UNL     1      27.057   5.475  48.756  1.00  0.00    -0.010 C 
HETATM   17 BR1  UNL     1      28.898   5.851  48.230  1.00  0.00    -0.056 Br
HETATM   18  C18 UNL     1      26.149   6.338  48.247  1.00  0.00     0.021 C 
HETATM   19  C19 UNL     1      22.212   0.251  52.629  1.00  0.00     0.162 C 
HETATM   20  N5  UNL     1      21.330   1.359  53.054  1.00  0.00    -0.389 N 
HETATM   21  H20 UNL     1      20.603   1.656  53.783  1.00  0.00     0.159 HD
ENDROOT
BRANCH  11  22
HETATM   22  N1  UNL     1      25.209  -0.139  53.278  1.00  0.00    -0.215 N 
HETATM   23  C13 UNL     1      25.980   0.152  54.268  1.00  0.00     0.322 A 
HETATM   24  N2  UNL     1      25.260  -0.654  53.490  1.00  0.00    -0.049 NA
HETATM   25  N3  UNL     1      25.931  -1.136  54.559  1.00  0.00    -0.155 NA
ENDBRANCH  11  22
BRANCH   5  26
HETATM   26  C6  UNL     1      20.058   5.560  49.513  1.00  0.00     0.198 C 
BRANCH  26  27
HETATM   27  O1  UNL     1      19.960   6.917  49.807  1.00  0.00    -0.397 OA
HETATM   28  H8  UNL     1      20.359   7.451  49.090  1.00  0.00     0.209 HD
ENDBRANCH  26  27
ENDBRANCH   5  26
TORSDOF 3
ENDMDL
MODEL 7
REMARK VINA RESULT:      -8.0      4.745      8.302
REMARK  3 active torsions:
REMARK  status: ('A' for Active; 'I' for Inactive)
REMARK    1  A    between atoms: C5_5  and  C6_6 
REMARK    2  A    between atoms: C6_6  and  O1_7 
REMARK    3  A    between atoms: C12_13  and  N1_14 
ROOT
HETATM    1  C1  UNL     1      28.255   2.188  53.312  1.00  0.00     0.048 C 
HETATM    2  C2  UNL     1      26.924   1.671  53.008  1.00  0.00    -0.061 C 
HETATM    3  C3  UNL     1      26.780   2.397  51.966  1.00  0.00     0.007 C 
HETATM    4  C4  UNL     1      26.699   3.238  50.825  1.00  0.00     0.005 C 
HETATM    5  C5  UNL     1      26.004   3.618  49.792  1.00  0.00    -0.056 C 
HETATM    6  C7  UNL     1      24.729   3.151  49.274  1.00  0.00     0.042 C 
HETATM    7  C8  UNL     1      23.718   4.262  49.247  1.00  0.00     0.061 C 
HETATM    8  C9  UNL     1      22.429   3.759  48.681  1.00  0.00     0.006 C 
HETATM    9  C10 UNL     1      22.293   2.433  48.808  1.00  0.00     0.037 C 
HETATM   10  C11 UNL     1      21.003   1.937  49.192  1.00  0.00     0.009 C 
HETATM   11  C12 UNL     1      20.415   1.264  50.212  1.00  0.00     0.153 C 
HETATM   12  N4  UNL     1      21.577   1.121  50.982  1.00  0.00    -0.245 NA
HETATM   13  C14 UNL     1      21.712   0.360  52.008  1.00  0.00     0.093 C 
HETATM   14  C15 UNL     1      23.017   0.346  52.693  1.00  0.00     0.051 C 
HETATM   15  C16 UNL     1      24.218   0.509  53.101  1.00  0.00     0.051 C 
HETATM   16  C17 UNL     1      25.160   0.076  54.133  1.00  0.00    -0.010 C 
HETATM   17 BR1  UNL     1      25.243  -1.123  55.670  1.00  0.00    -0.056 Br
HETATM   18  C18 UNL     1      26.313   0.738  53.885  1.00  0.00     0.021 C 
HETATM   19  C19 UNL     1      20.589   2.562  47.913  1.00  0.00     0.162 C 
HETATM   20  N5  UNL     1      21.166   3.920  48.010  1.00  0.00    -0.389 N 
HETATM   21  H20 UNL     1      20.996   4.952  47.777  1.00  0.00     0.159 HD
ENDROOT
BRANCH  11  22
HETATM   22  N1  UNL     1      18.997   1.022  50.070  1.00  0.00    -0.215 N 
HETATM   23  C13 UNL     1      18.149   1.869  50.543  1.00  0.00     0.322 A 
HETATM   24  N2  UNL     1      18.529   0.757  49.917  1.00  0.00    -0.049 NA
HETATM   25  N3  UNL     1      17.220   1.052  50.074  1.00  0.00    -0.155 NA
ENDBRANCH  11  22
BRANCH   5  26
HETATM   26  C6  UNL     1      26.669   4.654  49.002  1.00  0.00     0.198 C 
BRANCH  26  27
HETATM   27  O1  UNL     1      28.017   4.751  49.339  1.00  0.00    -0.397 OA
HETATM   28  H8  UNL     1      28.576   4.437  48.598  1.00  0.00     0.209 HD
ENDBRANCH  26  27
ENDBRANCH   5  26
TORSDOF 3
ENDMDL
MODEL 8
REMARK VINA RESULT:      -7.8      2.948      4.047
REMARK  3 active torsions:
REMARK  status: ('A' for Active; 'I' for Inactive)
REMARK    1  A    between atoms: C5_5  and  C6_6 
REMARK    2  A    between atoms: C6_6  and  O1_7 
REMARK    3  A    between atoms: C12_13  and  N1_14 
ROOT
HETATM    1  C1  UNL     1      22.301   6.454  48.226  1.00  0.00     0.048 C 
HETATM    2  C2  UNL     1      23.304   5.559  48.794  1.00  0.00    -0.061 C 
HETATM    3  C3  UNL     1      22.441   4.792  49.341  1.00  0.00     0.007 C 
HETATM    4  C4  UNL     1      21.419   3.991  49.917  1.00  0.00     0.005 C 
HETATM    5  C5  UNL     1      21.119   2.934  50.616  1.00  0.00    -0.056 C 
HETATM    6  C7  UNL     1      21.958   1.882  51.166  1.00  0.00     0.042 C 
HETATM    7  C8  UNL     1      21.829   1.816  52.661  1.00  0.00     0.061 C 
HETATM    8  C9  UNL     1      22.678   0.707  53.193  1.00  0.00     0.006 C 
HETATM    9  C10 UNL     1      23.686   0.388  52.371  1.00  0.00     0.037 C 
HETATM   10  C11 UNL     1      24.963   0.125  52.966  1.00  0.00     0.009 C 
HETATM   11  C12 UNL     1      26.223   0.627  52.977  1.00  0.00     0.153 C 
HETATM   12  N4  UNL     1      25.967   1.686  52.096  1.00  0.00    -0.245 NA
HETATM   13  C14 UNL     1      26.851   2.426  51.530  1.00  0.00     0.093 C 
HETATM   14  C15 UNL     1      26.385   3.498  50.632  1.00  0.00     0.051 C 
HETATM   15  C16 UNL     1      25.739   4.337  49.915  1.00  0.00     0.051 C 
HETATM   16  C17 UNL     1      25.925   5.466  49.004  1.00  0.00    -0.010 C 
HETATM   17 BR1  UNL     1      27.359   6.516  48.200  1.00  0.00    -0.056 Br
HETATM   18  C18 UNL     1      24.683   5.850  48.631  1.00  0.00     0.021 C 
HETATM   19  C19 UNL     1      24.222  -0.980  53.621  1.00  0.00     0.162 C 
HETATM   20  N5  UNL     1      23.029  -0.296  54.165  1.00  0.00    -0.389 N 
HETATM   21  H20 UNL     1      22.350  -0.266  54.993  1.00  0.00     0.159 HD
ENDROOT
BRANCH  11  22
HETATM   22  N1  UNL     1      27.172  -0.078  53.809  1.00  0.00    -0.215 N 
HETATM   23  C13 UNL     1      28.388  -0.233  53.411  1.00  0.00     0.322 A 
HETATM   24  N2  UNL     1      27.364  -0.359  54.253  1.00  0.00    -0.049 NA
HETATM   25  N3  UNL     1      28.579  -0.868  54.554  1.00  0.00    -0.155 NA
ENDBRANCH  11  22
BRANCH   5  26
HETATM   26  C6  UNL     1      19.680   2.769  50.818  1.00  0.00     0.198 C 
BRANCH  26  27
HETATM   27  O1  UNL     1      19.086   3.973  51.183  1.00  0.00    -0.397 OA
HETATM   28  H8  UNL     1      18.365   3.815  51.828  1.00  0.00     0.209 HD
ENDBRANCH  26  27
ENDBRANCH   5  26
TORSDOF 3
ENDMDL
MODEL 9
REMARK VINA RESULT:      -7.8      4.526      8.246
REMARK  3 active torsions:
REMARK  status: ('A' for Active; 'I' for Inactive)
REMARK    1  A    between atoms: C5_5  and  C6_6 
REMARK    2  A    between atoms: C6_6  and  O1_7 
REMARK    3  A    between atoms: C12_13  and  N1_14 
ROOT
HETATM    1  C1  UNL     1      27.376   0.687  52.724  1.00  0.00     0.048 C 
HETATM    2  C2  UNL     1      25.919   0.774  52.679  1.00  0.00    -0.061 C 
HETATM    3  C3  UNL     1      25.911   1.687  51.784  1.00  0.00     0.007 C 
HETATM    4  C4  UNL     1      25.989   2.700  50.792  1.00  0.00     0.005 C 
HETATM    5  C5  UNL     1      25.347   3.503  49.994  1.00  0.00    -0.056 C 
HETATM    6  C7  UNL     1      23.925   3.655  49.733  1.00  0.00     0.042 C 
HETATM    7  C8  UNL     1      23.463   5.047  50.061  1.00  0.00     0.061 C 
HETATM    8  C9  UNL     1      22.006   5.182  49.754  1.00  0.00     0.006 C 
HETATM    9  C10 UNL     1      21.366   4.005  49.762  1.00  0.00     0.037 C 
HETATM   10  C11 UNL     1      20.071   3.964  50.374  1.00  0.00     0.009 C 
HETATM   11  C12 UNL     1      19.439   3.378  51.422  1.00  0.00     0.153 C 
HETATM   12  N4  UNL     1      20.553   2.665  51.884  1.00  0.00    -0.245 NA
HETATM   13  C14 UNL     1      20.537   1.727  52.762  1.00  0.00     0.093 C 
HETATM   14  C15 UNL     1      21.818   1.094  53.123  1.00  0.00     0.051 C 
HETATM   15  C16 UNL     1      23.032   0.715  53.261  1.00  0.00     0.051 C 
HETATM   16  C17 UNL     1      23.874  -0.229  53.995  1.00  0.00    -0.010 C 
HETATM   17 BR1  UNL     1      23.718  -1.643  55.330  1.00  0.00    -0.056 Br
HETATM   18  C18 UNL     1      25.137  -0.012  53.564  1.00  0.00     0.021 C 
HETATM   19  C19 UNL     1      19.738   4.932  49.301  1.00  0.00     0.162 C 
HETATM   20  N5  UNL     1      20.825   5.929  49.412  1.00  0.00    -0.389 N 
HETATM   21  H20 UNL     1      21.052   6.974  49.340  1.00  0.00     0.159 HD
ENDROOT
BRANCH  11  22
HETATM   22  N1  UNL     1      18.043   3.716  51.582  1.00  0.00    -0.215 N 
HETATM   23  C13 UNL     1      17.133   2.927  51.126  1.00  0.00     0.322 A 
HETATM   24  N2  UNL     1      17.596   4.013  51.739  1.00  0.00    -0.049 NA
HETATM   25  N3  UNL     1      16.268   3.806  51.602  1.00  0.00    -0.155 NA
ENDBRANCH  11  22
BRANCH   5  26
HETATM   26  C6  UNL     1      26.233   4.346  49.192  1.00  0.00     0.198 C 
BRANCH  26  27
HETATM   27  O1  UNL     1      27.530   4.330  49.697  1.00  0.00    -0.397 OA
HETATM   28  H8  UNL     1      27.613   4.963  50.441  1.00  0.00     0.209 HD
ENDBRANCH  26  27
ENDBRANCH   5  26
TORSDOF 3
ENDMDL
