MODEL 1
REMARK VINA RESULT:      -8.5      0.000      0.000
REMARK  2 active torsions:
REMARK  status: ('A' for Active; 'I' for Inactive)
REMARK    1  A    between atoms: C5_5  and  O1_6 
REMARK    2  A    between atoms: C12_17  and  O5_18 
ROOT
HETATM    1  C1  UNL     1      20.612   0.825  54.172  1.00  0.00     0.048 C 
HETATM    2  C2  UNL     1      20.507   1.014  52.817  1.00  0.00     0.085 C 
HETATM    3  C3  UNL     1      21.411   0.146  51.997  1.00  0.00     0.103 C 
HETATM    4  C4  UNL     1      21.197   0.353  50.681  1.00  0.00     0.067 C 
HETATM    5  C5  UNL     1      19.695   0.618  50.791  1.00  0.00     0.274 C 
HETATM    6  N1  UNL     1      19.805   1.739  51.740  1.00  0.00    -0.221 N 
HETATM    7  O2  UNL     1      19.897   2.806  52.614  1.00  0.00    -0.248 OA
HETATM    8  C6  UNL     1      21.195   3.399  52.489  1.00  0.00     0.381 C 
HETATM    9  O3  UNL     1      22.116   2.429  52.686  1.00  0.00    -0.289 OA
HETATM   10  C7  UNL     1      23.420   2.318  52.763  1.00  0.00     0.298 C 
HETATM   11  O4  UNL     1      23.903   3.449  52.640  1.00  0.00    -0.259 OA
HETATM   12  C8  UNL     1      24.154   1.085  52.960  1.00  0.00     0.072 C 
HETATM   13  C9  UNL     1      25.582   0.973  53.115  1.00  0.00    -0.018 A 
HETATM   14  C10 UNL     1      26.360   2.087  53.270  1.00  0.00     0.015 A 
HETATM   15  C11 UNL     1      27.717   2.105  53.407  1.00  0.00     0.037 A 
HETATM   16  C12 UNL     1      28.418   0.919  53.395  1.00  0.00     0.065 A 
HETATM   17  C13 UNL     1      27.687  -0.237  53.242  1.00  0.00     0.037 A 
HETATM   18  C14 UNL     1      26.329  -0.161  53.112  1.00  0.00     0.015 A 
HETATM   19  C15 UNL     1      23.605  -0.111  52.906  1.00  0.00     0.161 C 
HETATM   20  O6  UNL     1      22.331  -0.718  52.682  1.00  0.00    -0.320 OA
ENDROOT
BRANCH  16  21
HETATM   21  O5  UNL     1      29.795   0.860  53.529  1.00  0.00    -0.361 OA
HETATM   22  H10 UNL     1      30.239   0.325  54.274  1.00  0.00     0.217 HD
ENDBRANCH  16  21
BRANCH   5  23
HETATM   23  O1  UNL     1      19.150   0.987  49.590  1.00  0.00    -0.371 OA
HETATM   24  H5  UNL     1      19.797   0.760  48.877  1.00  0.00     0.212 HD
ENDBRANCH   5  23
TORSDOF 2
ENDMDL
MODEL 2
REMARK VINA RESULT:      -8.4      2.577      6.743
REMARK  2 active torsions:
REMARK  status: ('A' for Active; 'I' for Inactive)
REMARK    1  A    between atoms: C5_5  and  O1_6 
REMARK    2  A    between atoms: C12_17  and  O5_18 
ROOT
HETATM    1  C1  UNL     1      26.148   2.010  54.205  1.00  0.00     0.048 C 
HETATM    2  C2  UNL     1      26.536   0.742  53.847  1.00  0.00     0.085 C 
HETATM    3  C3  UNL     1      26.338   0.419  52.399  1.00  0.00     0.103 C 
HETATM    4  C4  UNL     1      26.801  -0.819  52.125  1.00  0.00     0.067 C 
HETATM    5  C5  UNL     1      27.964  -0.790  53.118  1.00  0.00     0.274 C 
HETATM    6  N1  UNL     1      27.142  -0.521  54.311  1.00  0.00    -0.221 N 
HETATM    7  O2  UNL     1      26.379  -0.290  55.439  1.00  0.00    -0.248 OA
HETATM    8  C6  UNL     1      25.042  -0.744  55.199  1.00  0.00     0.381 C 
HETATM    9  O3  UNL     1      24.591  -0.135  54.079  1.00  0.00    -0.289 OA
HETATM   10  C7  UNL     1      23.484  -0.068  53.379  1.00  0.00     0.298 C 
HETATM   11  O4  UNL     1      22.631  -0.752  53.956  1.00  0.00    -0.259 OA
HETATM   12  C8  UNL     1      23.304   0.678  52.151  1.00  0.00     0.072 C 
HETATM   13  C9  UNL     1      22.069   0.807  51.421  1.00  0.00    -0.018 A 
HETATM   14  C10 UNL     1      20.890   0.362  51.952  1.00  0.00     0.015 A 
HETATM   15  C11 UNL     1      19.668   0.414  51.348  1.00  0.00     0.037 A 
HETATM   16  C12 UNL     1      19.555   0.957  50.087  1.00  0.00     0.065 A 
HETATM   17  C13 UNL     1      20.709   1.424  49.502  1.00  0.00     0.037 A 
HETATM   18  C14 UNL     1      21.891   1.331  50.181  1.00  0.00     0.015 A 
HETATM   19  C15 UNL     1      24.290   1.243  51.485  1.00  0.00     0.161 C 
HETATM   20  O6  UNL     1      25.709   1.400  51.561  1.00  0.00    -0.320 OA
ENDROOT
BRANCH  16  21
HETATM   21  O5  UNL     1      18.347   1.044  49.414  1.00  0.00    -0.361 OA
HETATM   22  H10 UNL     1      18.285   0.913  48.404  1.00  0.00     0.217 HD
ENDBRANCH  16  21
BRANCH   5  23
HETATM   23  O1  UNL     1      28.615  -1.993  53.180  1.00  0.00    -0.371 OA
HETATM   24  H5  UNL     1      27.934  -2.710  53.203  1.00  0.00     0.212 HD
ENDBRANCH   5  23
TORSDOF 2
ENDMDL
MODEL 3
REMARK VINA RESULT:      -8.4      2.710      6.739
REMARK  2 active torsions:
REMARK  status: ('A' for Active; 'I' for Inactive)
REMARK    1  A    between atoms: C5_5  and  O1_6 
REMARK    2  A    between atoms: C12_17  and  O5_18 
ROOT
HETATM    1  C1  UNL     1      27.067  -0.545  51.587  1.00  0.00     0.048 C 
HETATM    2  C2  UNL     1      27.329   0.243  52.680  1.00  0.00     0.085 C 
HETATM    3  C3  UNL     1      26.699  -0.231  53.953  1.00  0.00     0.103 C 
HETATM    4  C4  UNL     1      27.059   0.564  54.982  1.00  0.00     0.067 C 
HETATM    5  C5  UNL     1      28.470   0.870  54.476  1.00  0.00     0.274 C 
HETATM    6  N1  UNL     1      28.051   1.430  53.179  1.00  0.00    -0.221 N 
HETATM    7  O2  UNL     1      27.668   1.976  51.969  1.00  0.00    -0.248 OA
HETATM    8  C6  UNL     1      26.323   2.455  52.078  1.00  0.00     0.381 C 
HETATM    9  O3  UNL     1      25.550   1.430  52.503  1.00  0.00    -0.289 OA
HETATM   10  C7  UNL     1      24.282   1.192  52.739  1.00  0.00     0.298 C 
HETATM   11  O4  UNL     1      23.648   2.214  52.456  1.00  0.00    -0.259 OA
HETATM   12  C8  UNL     1      23.734  -0.051  53.240  1.00  0.00     0.072 C 
HETATM   13  C9  UNL     1      22.335  -0.335  53.431  1.00  0.00    -0.018 A 
HETATM   14  C10 UNL     1      21.375   0.522  52.968  1.00  0.00     0.015 A 
HETATM   15  C11 UNL     1      20.027   0.368  53.107  1.00  0.00     0.037 A 
HETATM   16  C12 UNL     1      19.533  -0.737  53.765  1.00  0.00     0.065 A 
HETATM   17  C13 UNL     1      20.453  -1.637  54.253  1.00  0.00     0.037 A 
HETATM   18  C14 UNL     1      21.786  -1.401  54.068  1.00  0.00     0.015 A 
HETATM   19  C15 UNL     1      24.468  -1.046  53.694  1.00  0.00     0.161 C 
HETATM   20  O6  UNL     1      25.842  -1.382  53.902  1.00  0.00    -0.320 OA
ENDROOT
BRANCH  16  21
HETATM   21  O5  UNL     1      18.177  -0.960  53.943  1.00  0.00    -0.361 OA
HETATM   22  H10 UNL     1      17.778  -1.128  54.866  1.00  0.00     0.217 HD
ENDBRANCH  16  21
BRANCH   5  23
HETATM   23  O1  UNL     1      29.111   1.785  55.269  1.00  0.00    -0.371 OA
HETATM   24  H5  UNL     1      28.469   2.104  55.950  1.00  0.00     0.212 HD
ENDBRANCH   5  23
TORSDOF 2
ENDMDL
MODEL 4
REMARK VINA RESULT:      -7.9      1.398      2.713
REMARK  2 active torsions:
REMARK  status: ('A' for Active; 'I' for Inactive)
REMARK    1  A    between atoms: C5_5  and  O1_6 
REMARK    2  A    between atoms: C12_17  and  O5_18 
ROOT
HETATM    1  C1  UNL     1      21.198   0.739  49.828  1.00  0.00     0.048 C 
HETATM    2  C2  UNL     1      20.546   1.516  50.753  1.00  0.00     0.085 C 
HETATM    3  C3  UNL     1      21.340   2.684  51.252  1.00  0.00     0.103 C 
HETATM    4  C4  UNL     1      20.603   3.423  52.107  1.00  0.00     0.067 C 
HETATM    5  C5  UNL     1      19.258   3.196  51.415  1.00  0.00     0.274 C 
HETATM    6  N1  UNL     1      19.289   1.725  51.497  1.00  0.00    -0.221 N 
HETATM    7  O2  UNL     1      19.298   0.347  51.587  1.00  0.00    -0.248 OA
HETATM    8  C6  UNL     1      20.149  -0.045  52.670  1.00  0.00     0.381 C 
HETATM    9  O3  UNL     1      21.364   0.513  52.466  1.00  0.00    -0.289 OA
HETATM   10  C7  UNL     1      22.550   0.506  53.023  1.00  0.00     0.298 C 
HETATM   11  O4  UNL     1      22.508  -0.260  53.992  1.00  0.00    -0.259 OA
HETATM   12  C8  UNL     1      23.700   1.264  52.574  1.00  0.00     0.072 C 
HETATM   13  C9  UNL     1      25.022   1.201  53.144  1.00  0.00    -0.018 A 
HETATM   14  C10 UNL     1      25.340   0.252  54.076  1.00  0.00     0.015 A 
HETATM   15  C11 UNL     1      26.546   0.108  54.695  1.00  0.00     0.037 A 
HETATM   16  C12 UNL     1      27.575   0.973  54.390  1.00  0.00     0.065 A 
HETATM   17  C13 UNL     1      27.314   1.950  53.457  1.00  0.00     0.037 A 
HETATM   18  C14 UNL     1      26.074   2.019  52.886  1.00  0.00     0.015 A 
HETATM   19  C15 UNL     1      23.646   2.199  51.648  1.00  0.00     0.161 C 
HETATM   20  O6  UNL     1      22.692   2.834  50.794  1.00  0.00    -0.320 OA
ENDROOT
BRANCH  16  21
HETATM   21  O5  UNL     1      28.826   0.887  54.978  1.00  0.00    -0.361 OA
HETATM   22  H10 UNL     1      29.231  -0.009  55.249  1.00  0.00     0.217 HD
ENDBRANCH  16  21
BRANCH   5  23
HETATM   23  O1  UNL     1      18.221   3.747  52.118  1.00  0.00    -0.371 OA
HETATM   24  H5  UNL     1      18.564   4.026  53.003  1.00  0.00     0.212 HD
ENDBRANCH   5  23
TORSDOF 2
ENDMDL
MODEL 5
REMARK VINA RESULT:      -7.8      3.065      5.169
REMARK  2 active torsions:
REMARK  status: ('A' for Active; 'I' for Inactive)
REMARK    1  A    between atoms: C5_5  and  O1_6 
REMARK    2  A    between atoms: C12_17  and  O5_18 
ROOT
HETATM    1  C1  UNL     1      22.782   3.981  48.939  1.00  0.00     0.048 C 
HETATM    2  C2  UNL     1      22.937   4.986  49.860  1.00  0.00     0.085 C 
HETATM    3  C3  UNL     1      23.961   4.708  50.917  1.00  0.00     0.103 C 
HETATM    4  C4  UNL     1      24.090   5.770  51.739  1.00  0.00     0.067 C 
HETATM    5  C5  UNL     1      23.840   6.841  50.676  1.00  0.00     0.274 C 
HETATM    6  N1  UNL     1      22.516   6.342  50.264  1.00  0.00    -0.221 N 
HETATM    7  O2  UNL     1      21.265   5.896  49.884  1.00  0.00    -0.248 OA
HETATM    8  C6  UNL     1      20.692   5.142  50.959  1.00  0.00     0.381 C 
HETATM    9  O3  UNL     1      21.564   4.162  51.289  1.00  0.00    -0.289 OA
HETATM   10  C7  UNL     1      21.624   3.140  52.108  1.00  0.00     0.298 C 
HETATM   11  O4  UNL     1      20.548   3.079  52.714  1.00  0.00    -0.259 OA
HETATM   12  C8  UNL     1      22.753   2.248  52.267  1.00  0.00     0.072 C 
HETATM   13  C9  UNL     1      22.792   1.084  53.116  1.00  0.00    -0.018 A 
HETATM   14  C10 UNL     1      21.657   0.621  53.723  1.00  0.00     0.015 A 
HETATM   15  C11 UNL     1      21.576  -0.454  54.558  1.00  0.00     0.037 A 
HETATM   16  C12 UNL     1      22.713  -1.176  54.850  1.00  0.00     0.065 A 
HETATM   17  C13 UNL     1      23.886  -0.757  54.266  1.00  0.00     0.037 A 
HETATM   18  C14 UNL     1      23.874   0.333  53.441  1.00  0.00     0.015 A 
HETATM   19  C15 UNL     1      23.937   2.462  51.731  1.00  0.00     0.161 C 
HETATM   20  O6  UNL     1      24.608   3.426  50.917  1.00  0.00    -0.320 OA
ENDROOT
BRANCH  16  21
HETATM   21  O5  UNL     1      22.706  -2.279  55.688  1.00  0.00    -0.361 OA
HETATM   22  H10 UNL     1      23.431  -2.995  55.638  1.00  0.00     0.217 HD
ENDBRANCH  16  21
BRANCH   5  23
HETATM   23  O1  UNL     1      23.791   8.098  51.217  1.00  0.00    -0.371 OA
HETATM   24  H5  UNL     1      23.452   8.020  52.144  1.00  0.00     0.212 HD
ENDBRANCH   5  23
TORSDOF 2
ENDMDL
MODEL 6
REMARK VINA RESULT:      -7.6      8.777     12.127
REMARK  2 active torsions:
REMARK  status: ('A' for Active; 'I' for Inactive)
REMARK    1  A    between atoms: C5_5  and  O1_6 
REMARK    2  A    between atoms: C12_17  and  O5_18 
ROOT
HETATM    1  C1  UNL     1      32.933   5.958  45.404  1.00  0.00     0.048 C 
HETATM    2  C2  UNL     1      33.491   6.350  46.595  1.00  0.00     0.085 C 
HETATM    3  C3  UNL     1      33.028   5.568  47.785  1.00  0.00     0.103 C 
HETATM    4  C4  UNL     1      33.671   5.978  48.898  1.00  0.00     0.067 C 
HETATM    5  C5  UNL     1      35.003   6.298  48.218  1.00  0.00     0.274 C 
HETATM    6  N1  UNL     1      34.453   7.260  47.247  1.00  0.00    -0.221 N 
HETATM    7  O2  UNL     1      33.951   8.180  46.346  1.00  0.00    -0.248 OA
HETATM    8  C6  UNL     1      32.729   8.720  46.862  1.00  0.00     0.381 C 
HETATM    9  O3  UNL     1      31.900   7.686  47.132  1.00  0.00    -0.289 OA
HETATM   10  C7  UNL     1      30.671   7.500  47.549  1.00  0.00     0.298 C 
HETATM   11  O4  UNL     1      30.153   8.611  47.703  1.00  0.00    -0.259 OA
HETATM   12  C8  UNL     1      30.042   6.217  47.782  1.00  0.00     0.072 C 
HETATM   13  C9  UNL     1      28.670   6.012  48.172  1.00  0.00    -0.018 A 
HETATM   14  C10 UNL     1      27.781   7.051  48.178  1.00  0.00     0.015 A 
HETATM   15  C11 UNL     1      26.469   6.981  48.544  1.00  0.00     0.037 A 
HETATM   16  C12 UNL     1      25.939   5.775  48.952  1.00  0.00     0.065 A 
HETATM   17  C13 UNL     1      26.788   4.693  48.966  1.00  0.00     0.037 A 
HETATM   18  C14 UNL     1      28.090   4.855  48.582  1.00  0.00     0.015 A 
HETATM   19  C15 UNL     1      30.691   5.071  47.775  1.00  0.00     0.161 C 
HETATM   20  O6  UNL     1      32.016   4.568  47.591  1.00  0.00    -0.320 OA
ENDROOT
BRANCH  16  21
HETATM   21  O5  UNL     1      24.617   5.629  49.337  1.00  0.00    -0.361 OA
HETATM   22  H10 UNL     1      24.153   4.721  49.329  1.00  0.00     0.217 HD
ENDBRANCH  16  21
BRANCH   5  23
HETATM   23  O1  UNL     1      35.897   6.867  49.085  1.00  0.00    -0.371 OA
HETATM   24  H5  UNL     1      35.395   7.192  49.874  1.00  0.00     0.212 HD
ENDBRANCH   5  23
TORSDOF 2
ENDMDL
MODEL 7
REMARK VINA RESULT:      -7.6      1.840      2.103
REMARK  2 active torsions:
REMARK  status: ('A' for Active; 'I' for Inactive)
REMARK    1  A    between atoms: C5_5  and  O1_6 
REMARK    2  A    between atoms: C12_17  and  O5_18 
ROOT
HETATM    1  C1  UNL     1      20.009   3.194  52.229  1.00  0.00     0.048 C 
HETATM    2  C2  UNL     1      20.340   2.943  50.920  1.00  0.00     0.085 C 
HETATM    3  C3  UNL     1      20.928   1.587  50.679  1.00  0.00     0.103 C 
HETATM    4  C4  UNL     1      21.165   1.404  49.363  1.00  0.00     0.067 C 
HETATM    5  C5  UNL     1      19.968   2.211  48.860  1.00  0.00     0.274 C 
HETATM    6  N1  UNL     1      20.331   3.466  49.540  1.00  0.00    -0.221 N 
HETATM    7  O2  UNL     1      20.673   4.654  50.157  1.00  0.00    -0.248 OA
HETATM    8  C6  UNL     1      22.084   4.663  50.403  1.00  0.00     0.381 C 
HETATM    9  O3  UNL     1      22.389   3.552  51.111  1.00  0.00    -0.289 OA
HETATM   10  C7  UNL     1      23.439   3.013  51.682  1.00  0.00     0.298 C 
HETATM   11  O4  UNL     1      24.392   3.783  51.523  1.00  0.00    -0.259 OA
HETATM   12  C8  UNL     1      23.465   1.741  52.374  1.00  0.00     0.072 C 
HETATM   13  C9  UNL     1      24.602   1.182  53.061  1.00  0.00    -0.018 A 
HETATM   14  C10 UNL     1      25.732   1.925  53.267  1.00  0.00     0.015 A 
HETATM   15  C11 UNL     1      26.870   1.498  53.885  1.00  0.00     0.037 A 
HETATM   16  C12 UNL     1      26.941   0.208  54.367  1.00  0.00     0.065 A 
HETATM   17  C13 UNL     1      25.833  -0.586  54.188  1.00  0.00     0.037 A 
HETATM   18  C14 UNL     1      24.734  -0.075  53.557  1.00  0.00     0.015 A 
HETATM   19  C15 UNL     1      22.470   0.878  52.361  1.00  0.00     0.161 C 
HETATM   20  O6  UNL     1      21.160   0.733  51.810  1.00  0.00    -0.320 OA
ENDROOT
BRANCH  16  21
HETATM   21  O5  UNL     1      28.064  -0.293  55.005  1.00  0.00    -0.361 OA
HETATM   22  H10 UNL     1      28.169  -1.288  55.201  1.00  0.00     0.217 HD
ENDBRANCH  16  21
BRANCH   5  23
HETATM   23  O1  UNL     1      19.965   2.326  47.495  1.00  0.00    -0.371 OA
HETATM   24  H5  UNL     1      20.898   2.469  47.197  1.00  0.00     0.212 HD
ENDBRANCH   5  23
TORSDOF 2
ENDMDL
MODEL 8
REMARK VINA RESULT:      -7.5      2.525      3.911
REMARK  2 active torsions:
REMARK  status: ('A' for Active; 'I' for Inactive)
REMARK    1  A    between atoms: C5_5  and  O1_6 
REMARK    2  A    between atoms: C12_17  and  O5_18 
ROOT
HETATM    1  C1  UNL     1      22.998   3.334  48.956  1.00  0.00     0.048 C 
HETATM    2  C2  UNL     1      22.705   4.304  49.882  1.00  0.00     0.085 C 
HETATM    3  C3  UNL     1      23.901   4.889  50.567  1.00  0.00     0.103 C 
HETATM    4  C4  UNL     1      23.526   5.872  51.411  1.00  0.00     0.067 C 
HETATM    5  C5  UNL     1      22.356   6.384  50.570  1.00  0.00     0.274 C 
HETATM    6  N1  UNL     1      21.634   5.101  50.513  1.00  0.00    -0.221 N 
HETATM    7  O2  UNL     1      20.939   3.908  50.471  1.00  0.00    -0.248 OA
HETATM    8  C6  UNL     1      21.325   3.103  51.591  1.00  0.00     0.381 C 
HETATM    9  O3  UNL     1      22.671   2.971  51.564  1.00  0.00    -0.289 OA
HETATM   10  C7  UNL     1      23.606   2.343  52.233  1.00  0.00     0.298 C 
HETATM   11  O4  UNL     1      23.056   1.675  53.115  1.00  0.00    -0.259 OA
HETATM   12  C8  UNL     1      25.029   2.424  51.976  1.00  0.00     0.072 C 
HETATM   13  C9  UNL     1      26.051   1.679  52.667  1.00  0.00    -0.018 A 
HETATM   14  C10 UNL     1      25.721   0.671  53.530  1.00  0.00     0.015 A 
HETATM   15  C11 UNL     1      26.598  -0.086  54.250  1.00  0.00     0.037 A 
HETATM   16  C12 UNL     1      27.952   0.143  54.134  1.00  0.00     0.065 A 
HETATM   17  C13 UNL     1      28.343   1.146  53.278  1.00  0.00     0.037 A 
HETATM   18  C14 UNL     1      27.396   1.855  52.596  1.00  0.00     0.015 A 
HETATM   19  C15 UNL     1      25.576   3.285  51.144  1.00  0.00     0.161 C 
HETATM   20  O6  UNL     1      25.195   4.345  50.263  1.00  0.00    -0.320 OA
ENDROOT
BRANCH  16  21
HETATM   21  O5  UNL     1      28.899  -0.586  54.834  1.00  0.00    -0.361 OA
HETATM   22  H10 UNL     1      29.050  -1.579  54.655  1.00  0.00     0.217 HD
ENDBRANCH  16  21
BRANCH   5  23
HETATM   23  O1  UNL     1      21.650   7.364  51.215  1.00  0.00    -0.371 OA
HETATM   24  H5  UNL     1      20.713   7.059  51.304  1.00  0.00     0.212 HD
ENDBRANCH   5  23
TORSDOF 2
ENDMDL
MODEL 9
REMARK VINA RESULT:      -7.3      8.615     10.720
REMARK  2 active torsions:
REMARK  status: ('A' for Active; 'I' for Inactive)
REMARK    1  A    between atoms: C5_5  and  O1_6 
REMARK    2  A    between atoms: C12_17  and  O5_18 
ROOT
HETATM    1  C1  UNL     1      28.140   8.499  46.125  1.00  0.00     0.048 C 
HETATM    2  C2  UNL     1      28.152   8.668  47.488  1.00  0.00     0.085 C 
HETATM    3  C3  UNL     1      29.507   8.931  48.068  1.00  0.00     0.103 C 
HETATM    4  C4  UNL     1      29.417   9.144  49.397  1.00  0.00     0.067 C 
HETATM    5  C5  UNL     1      28.057   9.843  49.367  1.00  0.00     0.274 C 
HETATM    6  N1  UNL     1      27.332   8.740  48.712  1.00  0.00    -0.221 N 
HETATM    7  O2  UNL     1      26.637   7.704  48.118  1.00  0.00    -0.248 OA
HETATM    8  C6  UNL     1      27.328   6.474  48.370  1.00  0.00     0.381 C 
HETATM    9  O3  UNL     1      28.602   6.618  47.939  1.00  0.00    -0.289 OA
HETATM   10  C7  UNL     1      29.686   5.889  47.826  1.00  0.00     0.298 C 
HETATM   11  O4  UNL     1      29.413   4.747  48.212  1.00  0.00    -0.259 OA
HETATM   12  C8  UNL     1      30.967   6.350  47.334  1.00  0.00     0.072 C 
HETATM   13  C9  UNL     1      32.138   5.531  47.144  1.00  0.00    -0.018 A 
HETATM   14  C10 UNL     1      32.066   4.169  47.253  1.00  0.00     0.015 A 
HETATM   15  C11 UNL     1      33.106   3.298  47.113  1.00  0.00     0.037 A 
HETATM   16  C12 UNL     1      34.366   3.781  46.835  1.00  0.00     0.065 A 
HETATM   17  C13 UNL     1      34.499   5.145  46.714  1.00  0.00     0.037 A 
HETATM   18  C14 UNL     1      33.402   5.943  46.870  1.00  0.00     0.015 A 
HETATM   19  C15 UNL     1      31.253   7.614  47.105  1.00  0.00     0.161 C 
HETATM   20  O6  UNL     1      30.642   8.904  47.189  1.00  0.00    -0.320 OA
ENDROOT
BRANCH  16  21
HETATM   21  O5  UNL     1      35.468   2.956  46.680  1.00  0.00    -0.361 OA
HETATM   22  H10 UNL     1      35.376   1.942  46.635  1.00  0.00     0.217 HD
ENDBRANCH  16  21
BRANCH   5  23
HETATM   23  O1  UNL     1      27.591  10.114  50.626  1.00  0.00    -0.371 OA
HETATM   24  H5  UNL     1      26.807   9.535  50.794  1.00  0.00     0.212 HD
ENDBRANCH   5  23
TORSDOF 2
ENDMDL
