MODEL 1
REMARK VINA RESULT:      -7.5      0.000      0.000
REMARK  6 active torsions:
REMARK  status: ('A' for Active; 'I' for Inactive)
REMARK    1  A    between atoms: C7_7  and  N1_8 
REMARK    2  A    between atoms: N1_8  and  C8_9 
REMARK    3  A    between atoms: C10_11  and  N2_12 
REMARK    4  A    between atoms: N2_12  and  C11_13 
REMARK    5  A    between atoms: C11_13  and  C12_14 
REMARK    6  A    between atoms: C12_14  and  C13_15 
ROOT
HETATM    1  C1  UNL     1      22.302   2.222  47.948  1.00  0.00     0.018 C 
HETATM    2  C2  UNL     1      21.966   2.022  49.107  1.00  0.00    -0.078 C 
HETATM    3  C3  UNL     1      21.581   1.810  50.476  1.00  0.00     0.019 A 
HETATM    4  C4  UNL     1      21.048   2.883  51.177  1.00  0.00     0.021 A 
HETATM    5  C5  UNL     1      20.665   2.720  52.494  1.00  0.00     0.004 A 
HETATM    6  C6  UNL     1      20.832   1.466  53.071  1.00  0.00     0.029 A 
HETATM    7  C7  UNL     1      21.358   0.377  52.404  1.00  0.00     0.035 A 
HETATM    8  C19 UNL     1      21.725   0.586  51.095  1.00  0.00     0.050 A 
ENDROOT
BRANCH   7   9
HETATM    9  N1  UNL     1      21.499  -0.891  53.074  1.00  0.00    -0.341 N 
HETATM   10  H5  UNL     1      20.754  -1.600  52.847  1.00  0.00     0.167 HD
BRANCH   9  11
HETATM   11  C8  UNL     1      22.635  -0.979  53.943  1.00  0.00     0.133 A 
HETATM   12  C9  UNL     1      23.823  -0.619  53.326  1.00  0.00     0.100 A 
HETATM   13  C10 UNL     1      25.043  -0.636  53.995  1.00  0.00     0.128 A 
HETATM   14  N3  UNL     1      25.024  -1.017  55.265  1.00  0.00    -0.225 NA
HETATM   15  C18 UNL     1      23.879  -1.359  55.842  1.00  0.00     0.237 A 
HETATM   16  N4  UNL     1      22.674  -1.359  55.238  1.00  0.00    -0.224 NA
BRANCH  13  17
HETATM   17  N2  UNL     1      26.275  -0.272  53.390  1.00  0.00    -0.374 N 
HETATM   18  H7  UNL     1      27.131  -0.370  53.998  1.00  0.00     0.161 HD
BRANCH  17  19
HETATM   19  C11 UNL     1      26.367   0.198  52.047  1.00  0.00     0.125 C 
BRANCH  19  20
HETATM   20  C12 UNL     1      27.001   1.539  51.868  1.00  0.00     0.056 C 
BRANCH  20  21
HETATM   21  C13 UNL     1      26.177   2.532  51.165  1.00  0.00    -0.053 A 
HETATM   22  C14 UNL     1      25.069   3.118  51.627  1.00  0.00     0.036 A 
HETATM   23 CL1  UNL     1      24.187   2.973  53.144  1.00  0.00    -0.084 Cl
HETATM   24  C15 UNL     1      24.557   4.040  50.617  1.00  0.00     0.020 A 
HETATM   25  C16 UNL     1      25.338   4.026  49.542  1.00  0.00    -0.021 A 
HETATM   26  C17 UNL     1      26.455   3.049  49.801  1.00  0.00     0.063 A 
ENDBRANCH  20  21
ENDBRANCH  19  20
ENDBRANCH  17  19
ENDBRANCH  13  17
ENDBRANCH   9  11
ENDBRANCH   7   9
TORSDOF 6
ENDMDL
MODEL 2
REMARK VINA RESULT:      -7.2      1.595      3.056
REMARK  6 active torsions:
REMARK  status: ('A' for Active; 'I' for Inactive)
REMARK    1  A    between atoms: C7_7  and  N1_8 
REMARK    2  A    between atoms: N1_8  and  C8_9 
REMARK    3  A    between atoms: C10_11  and  N2_12 
REMARK    4  A    between atoms: N2_12  and  C11_13 
REMARK    5  A    between atoms: C11_13  and  C12_14 
REMARK    6  A    between atoms: C12_14  and  C13_15 
ROOT
HETATM    1  C1  UNL     1      19.036   0.612  50.709  1.00  0.00     0.018 C 
HETATM    2  C2  UNL     1      19.844   0.322  51.580  1.00  0.00    -0.078 C 
HETATM    3  C3  UNL     1      20.787   0.003  52.617  1.00  0.00     0.019 A 
HETATM    4  C4  UNL     1      20.388   0.172  53.936  1.00  0.00     0.021 A 
HETATM    5  C5  UNL     1      21.265  -0.124  54.960  1.00  0.00     0.004 A 
HETATM    6  C6  UNL     1      22.531  -0.588  54.622  1.00  0.00     0.029 A 
HETATM    7  C7  UNL     1      22.962  -0.768  53.323  1.00  0.00     0.035 A 
HETATM    8  C19 UNL     1      22.055  -0.460  52.335  1.00  0.00     0.050 A 
ENDROOT
BRANCH   7   9
HETATM    9  N1  UNL     1      24.292  -1.253  53.055  1.00  0.00    -0.341 N 
HETATM   10  H5  UNL     1      24.336  -2.164  52.529  1.00  0.00     0.167 HD
BRANCH   9  11
HETATM   11  C8  UNL     1      25.340  -0.412  53.551  1.00  0.00     0.133 A 
HETATM   12  C9  UNL     1      25.630   0.651  52.710  1.00  0.00     0.100 A 
HETATM   13  C10 UNL     1      26.617   1.587  53.006  1.00  0.00     0.128 A 
HETATM   14  N3  UNL     1      27.280   1.416  54.143  1.00  0.00    -0.225 NA
HETATM   15  C18 UNL     1      26.992   0.394  54.937  1.00  0.00     0.237 A 
HETATM   16  N4  UNL     1      26.047  -0.536  54.695  1.00  0.00    -0.224 NA
BRANCH  13  17
HETATM   17  N2  UNL     1      26.935   2.685  52.166  1.00  0.00    -0.374 N 
HETATM   18  H7  UNL     1      27.466   3.474  52.623  1.00  0.00     0.161 HD
BRANCH  17  19
HETATM   19  C11 UNL     1      26.569   2.736  50.789  1.00  0.00     0.125 C 
BRANCH  19  20
HETATM   20  C12 UNL     1      25.598   3.808  50.412  1.00  0.00     0.056 C 
BRANCH  20  21
HETATM   21  C13 UNL     1      24.249   3.338  50.068  1.00  0.00    -0.053 A 
HETATM   22  C14 UNL     1      23.271   3.027  50.925  1.00  0.00     0.036 A 
HETATM   23 CL1  UNL     1      23.177   3.044  52.683  1.00  0.00    -0.084 Cl
HETATM   24  C15 UNL     1      22.092   2.604  50.175  1.00  0.00     0.020 A 
HETATM   25  C16 UNL     1      22.336   2.651  48.870  1.00  0.00    -0.021 A 
HETATM   26  C17 UNL     1      23.752   3.130  48.685  1.00  0.00     0.063 A 
ENDBRANCH  20  21
ENDBRANCH  19  20
ENDBRANCH  17  19
ENDBRANCH  13  17
ENDBRANCH   9  11
ENDBRANCH   7   9
TORSDOF 6
ENDMDL
MODEL 3
REMARK VINA RESULT:      -6.9      2.144      4.509
REMARK  6 active torsions:
REMARK  status: ('A' for Active; 'I' for Inactive)
REMARK    1  A    between atoms: C7_7  and  N1_8 
REMARK    2  A    between atoms: N1_8  and  C8_9 
REMARK    3  A    between atoms: C10_11  and  N2_12 
REMARK    4  A    between atoms: N2_12  and  C11_13 
REMARK    5  A    between atoms: C11_13  and  C12_14 
REMARK    6  A    between atoms: C12_14  and  C13_15 
ROOT
HETATM    1  C1  UNL     1      22.131   3.300  47.407  1.00  0.00     0.018 C 
HETATM    2  C2  UNL     1      22.470   3.472  48.569  1.00  0.00    -0.078 C 
HETATM    3  C3  UNL     1      22.858   3.697  49.934  1.00  0.00     0.019 A 
HETATM    4  C4  UNL     1      21.969   4.364  50.765  1.00  0.00     0.021 A 
HETATM    5  C5  UNL     1      22.305   4.600  52.083  1.00  0.00     0.004 A 
HETATM    6  C6  UNL     1      23.542   4.149  52.531  1.00  0.00     0.029 A 
HETATM    7  C7  UNL     1      24.451   3.483  51.735  1.00  0.00     0.035 A 
HETATM    8  C19 UNL     1      24.074   3.271  50.429  1.00  0.00     0.050 A 
ENDROOT
BRANCH   7   9
HETATM    9  N1  UNL     1      25.714   3.048  52.275  1.00  0.00    -0.341 N 
HETATM   10  H5  UNL     1      26.400   3.821  52.479  1.00  0.00     0.167 HD
BRANCH   9  11
HETATM   11  C8  UNL     1      25.829   1.630  52.448  1.00  0.00     0.133 A 
HETATM   12  C9  UNL     1      24.893   1.112  53.330  1.00  0.00     0.100 A 
HETATM   13  C10 UNL     1      24.834  -0.245  53.638  1.00  0.00     0.128 A 
HETATM   14  N3  UNL     1      25.723  -1.032  53.045  1.00  0.00    -0.225 NA
HETATM   15  C18 UNL     1      26.612  -0.520  52.203  1.00  0.00     0.237 A 
HETATM   16  N4  UNL     1      26.709   0.783  51.874  1.00  0.00    -0.224 NA
BRANCH  13  17
HETATM   17  N2  UNL     1      23.888  -0.805  54.535  1.00  0.00    -0.374 N 
HETATM   18  H7  UNL     1      24.189  -0.858  55.544  1.00  0.00     0.161 HD
BRANCH  17  19
HETATM   19  C11 UNL     1      22.607  -1.272  54.115  1.00  0.00     0.125 C 
BRANCH  19  20
HETATM   20  C12 UNL     1      21.499  -0.273  54.173  1.00  0.00     0.056 C 
BRANCH  20  21
HETATM   21  C13 UNL     1      20.882   0.054  52.879  1.00  0.00    -0.053 A 
HETATM   22  C14 UNL     1      19.624  -0.203  52.510  1.00  0.00     0.036 A 
HETATM   23 CL1  UNL     1      18.273  -0.973  53.335  1.00  0.00    -0.084 Cl
HETATM   24  C15 UNL     1      19.414   0.282  51.149  1.00  0.00     0.020 A 
HETATM   25  C16 UNL     1      20.530   0.832  50.680  1.00  0.00    -0.021 A 
HETATM   26  C17 UNL     1      21.577   0.733  51.757  1.00  0.00     0.063 A 
ENDBRANCH  20  21
ENDBRANCH  19  20
ENDBRANCH  17  19
ENDBRANCH  13  17
ENDBRANCH   9  11
ENDBRANCH   7   9
TORSDOF 6
ENDMDL
MODEL 4
REMARK VINA RESULT:      -6.9      2.837      5.057
REMARK  6 active torsions:
REMARK  status: ('A' for Active; 'I' for Inactive)
REMARK    1  A    between atoms: C7_7  and  N1_8 
REMARK    2  A    between atoms: N1_8  and  C8_9 
REMARK    3  A    between atoms: C10_11  and  N2_12 
REMARK    4  A    between atoms: N2_12  and  C11_13 
REMARK    5  A    between atoms: C11_13  and  C12_14 
REMARK    6  A    between atoms: C12_14  and  C13_15 
ROOT
HETATM    1  C1  UNL     1      21.330  -0.848  54.528  1.00  0.00     0.018 C 
HETATM    2  C2  UNL     1      20.943  -0.405  53.456  1.00  0.00    -0.078 C 
HETATM    3  C3  UNL     1      20.469   0.097  52.195  1.00  0.00     0.019 A 
HETATM    4  C4  UNL     1      19.098   0.215  52.013  1.00  0.00     0.021 A 
HETATM    5  C5  UNL     1      18.604   0.693  50.816  1.00  0.00     0.004 A 
HETATM    6  C6  UNL     1      19.515   1.044  49.827  1.00  0.00     0.029 A 
HETATM    7  C7  UNL     1      20.884   0.941  49.972  1.00  0.00     0.035 A 
HETATM    8  C19 UNL     1      21.331   0.459  51.181  1.00  0.00     0.050 A 
ENDROOT
BRANCH   7   9
HETATM    9  N1  UNL     1      21.764   1.325  48.898  1.00  0.00    -0.341 N 
HETATM   10  H5  UNL     1      21.929   0.582  48.170  1.00  0.00     0.167 HD
BRANCH   9  11
HETATM   11  C8  UNL     1      22.271   2.662  48.996  1.00  0.00     0.133 A 
HETATM   12  C9  UNL     1      23.544   2.723  49.543  1.00  0.00     0.100 A 
HETATM   13  C10 UNL     1      24.216   3.927  49.727  1.00  0.00     0.128 A 
HETATM   14  N3  UNL     1      23.581   5.031  49.354  1.00  0.00    -0.225 NA
HETATM   15  C18 UNL     1      22.364   4.955  48.832  1.00  0.00     0.237 A 
HETATM   16  N4  UNL     1      21.672   3.816  48.634  1.00  0.00    -0.224 NA
BRANCH  13  17
HETATM   17  N2  UNL     1      25.519   4.022  50.283  1.00  0.00    -0.374 N 
HETATM   18  H7  UNL     1      25.781   4.963  50.681  1.00  0.00     0.161 HD
BRANCH  17  19
HETATM   19  C11 UNL     1      26.429   2.924  50.310  1.00  0.00     0.125 C 
BRANCH  19  20
HETATM   20  C12 UNL     1      26.904   2.506  51.663  1.00  0.00     0.056 C 
BRANCH  20  21
HETATM   21  C13 UNL     1      26.252   1.309  52.214  1.00  0.00    -0.053 A 
HETATM   22  C14 UNL     1      25.037   1.248  52.768  1.00  0.00     0.036 A 
HETATM   23 CL1  UNL     1      23.795   2.463  53.054  1.00  0.00    -0.084 Cl
HETATM   24  C15 UNL     1      24.769  -0.125  53.186  1.00  0.00     0.020 A 
HETATM   25  C16 UNL     1      25.805  -0.905  52.897  1.00  0.00    -0.021 A 
HETATM   26  C17 UNL     1      26.856  -0.047  52.242  1.00  0.00     0.063 A 
ENDBRANCH  20  21
ENDBRANCH  19  20
ENDBRANCH  17  19
ENDBRANCH  13  17
ENDBRANCH   9  11
ENDBRANCH   7   9
TORSDOF 6
ENDMDL
MODEL 5
REMARK VINA RESULT:      -6.8      1.755      4.083
REMARK  6 active torsions:
REMARK  status: ('A' for Active; 'I' for Inactive)
REMARK    1  A    between atoms: C7_7  and  N1_8 
REMARK    2  A    between atoms: N1_8  and  C8_9 
REMARK    3  A    between atoms: C10_11  and  N2_12 
REMARK    4  A    between atoms: N2_12  and  C11_13 
REMARK    5  A    between atoms: C11_13  and  C12_14 
REMARK    6  A    between atoms: C12_14  and  C13_15 
ROOT
HETATM    1  C1  UNL     1      23.284   4.474  48.436  1.00  0.00     0.018 C 
HETATM    2  C2  UNL     1      23.558   4.023  49.539  1.00  0.00    -0.078 C 
HETATM    3  C3  UNL     1      23.892   3.516  50.842  1.00  0.00     0.019 A 
HETATM    4  C4  UNL     1      23.745   4.364  51.930  1.00  0.00     0.021 A 
HETATM    5  C5  UNL     1      24.055   3.915  53.198  1.00  0.00     0.004 A 
HETATM    6  C6  UNL     1      24.507   2.607  53.334  1.00  0.00     0.029 A 
HETATM    7  C7  UNL     1      24.665   1.735  52.275  1.00  0.00     0.035 A 
HETATM    8  C19 UNL     1      24.345   2.227  51.031  1.00  0.00     0.050 A 
ENDROOT
BRANCH   7   9
HETATM    9  N1  UNL     1      25.141   0.393  52.499  1.00  0.00    -0.341 N 
HETATM   10  H5  UNL     1      25.856   0.053  51.805  1.00  0.00     0.167 HD
BRANCH   9  11
HETATM   11  C8  UNL     1      24.559  -0.259  53.635  1.00  0.00     0.133 A 
HETATM   12  C9  UNL     1      23.177  -0.344  53.566  1.00  0.00     0.100 A 
HETATM   13  C10 UNL     1      22.419  -0.941  54.570  1.00  0.00     0.128 A 
HETATM   14  N3  UNL     1      23.081  -1.431  55.609  1.00  0.00    -0.225 NA
HETATM   15  C18 UNL     1      24.404  -1.341  55.660  1.00  0.00     0.237 A 
HETATM   16  N4  UNL     1      25.181  -0.774  54.717  1.00  0.00    -0.224 NA
BRANCH  13  17
HETATM   17  N2  UNL     1      21.004  -1.044  54.527  1.00  0.00    -0.374 N 
HETATM   18  H7  UNL     1      20.558  -1.572  55.324  1.00  0.00     0.161 HD
BRANCH  17  19
HETATM   19  C11 UNL     1      20.218  -0.476  53.481  1.00  0.00     0.125 C 
BRANCH  19  20
HETATM   20  C12 UNL     1      20.507   0.953  53.153  1.00  0.00     0.056 C 
BRANCH  20  21
HETATM   21  C13 UNL     1      20.624   1.255  51.719  1.00  0.00    -0.053 A 
HETATM   22  C14 UNL     1      20.202   2.363  51.102  1.00  0.00     0.036 A 
HETATM   23 CL1  UNL     1      19.395   3.816  51.681  1.00  0.00    -0.084 Cl
HETATM   24  C15 UNL     1      20.510   2.265  49.678  1.00  0.00     0.020 A 
HETATM   25  C16 UNL     1      21.115   1.111  49.415  1.00  0.00    -0.021 A 
HETATM   26  C17 UNL     1      21.243   0.356  50.712  1.00  0.00     0.063 A 
ENDBRANCH  20  21
ENDBRANCH  19  20
ENDBRANCH  17  19
ENDBRANCH  13  17
ENDBRANCH   9  11
ENDBRANCH   7   9
TORSDOF 6
ENDMDL
MODEL 6
REMARK VINA RESULT:      -6.7      3.047      6.262
REMARK  6 active torsions:
REMARK  status: ('A' for Active; 'I' for Inactive)
REMARK    1  A    between atoms: C7_7  and  N1_8 
REMARK    2  A    between atoms: N1_8  and  C8_9 
REMARK    3  A    between atoms: C10_11  and  N2_12 
REMARK    4  A    between atoms: N2_12  and  C11_13 
REMARK    5  A    between atoms: C11_13  and  C12_14 
REMARK    6  A    between atoms: C12_14  and  C13_15 
ROOT
HETATM    1  C1  UNL     1      22.460  -1.149  54.629  1.00  0.00     0.018 C 
HETATM    2  C2  UNL     1      23.363  -0.616  53.998  1.00  0.00    -0.078 C 
HETATM    3  C3  UNL     1      24.440  -0.004  53.271  1.00  0.00     0.019 A 
HETATM    4  C4  UNL     1      25.522  -0.797  52.914  1.00  0.00     0.021 A 
HETATM    5  C5  UNL     1      26.576  -0.246  52.215  1.00  0.00     0.004 A 
HETATM    6  C6  UNL     1      26.510   1.105  51.891  1.00  0.00     0.029 A 
HETATM    7  C7  UNL     1      25.451   1.924  52.228  1.00  0.00     0.035 A 
HETATM    8  C19 UNL     1      24.423   1.332  52.925  1.00  0.00     0.050 A 
ENDROOT
BRANCH   7   9
HETATM    9  N1  UNL     1      25.457   3.316  51.856  1.00  0.00    -0.341 N 
HETATM   10  H5  UNL     1      26.413   3.751  51.777  1.00  0.00     0.167 HD
BRANCH   9  11
HETATM   11  C8  UNL     1      24.156   3.881  51.652  1.00  0.00     0.133 A 
HETATM   12  C9  UNL     1      23.716   3.777  50.341  1.00  0.00     0.100 A 
HETATM   13  C10 UNL     1      22.478   4.264  49.932  1.00  0.00     0.128 A 
HETATM   14  N3  UNL     1      21.726   4.841  50.860  1.00  0.00    -0.225 NA
HETATM   15  C18 UNL     1      22.161   4.933  52.110  1.00  0.00     0.237 A 
HETATM   16  N4  UNL     1      23.349   4.478  52.554  1.00  0.00    -0.224 NA
BRANCH  13  17
HETATM   17  N2  UNL     1      22.000   4.172  48.598  1.00  0.00    -0.374 N 
HETATM   18  H7  UNL     1      21.705   5.081  48.153  1.00  0.00     0.161 HD
BRANCH  17  19
HETATM   19  C11 UNL     1      21.919   2.936  47.891  1.00  0.00     0.125 C 
BRANCH  19  20
HETATM   20  C12 UNL     1      20.662   2.154  48.090  1.00  0.00     0.056 C 
BRANCH  20  21
HETATM   21  C13 UNL     1      20.562   1.447  49.375  1.00  0.00    -0.053 A 
HETATM   22  C14 UNL     1      19.470   1.330  50.137  1.00  0.00     0.036 A 
HETATM   23 CL1  UNL     1      17.820   1.917  49.953  1.00  0.00    -0.084 Cl
HETATM   24  C15 UNL     1      19.797   0.552  51.328  1.00  0.00     0.020 A 
HETATM   25  C16 UNL     1      21.076   0.191  51.306  1.00  0.00    -0.021 A 
HETATM   26  C17 UNL     1      21.684   0.737  50.040  1.00  0.00     0.063 A 
ENDBRANCH  20  21
ENDBRANCH  19  20
ENDBRANCH  17  19
ENDBRANCH  13  17
ENDBRANCH   9  11
ENDBRANCH   7   9
TORSDOF 6
ENDMDL
MODEL 7
REMARK VINA RESULT:      -6.6      1.956      3.274
REMARK  6 active torsions:
REMARK  status: ('A' for Active; 'I' for Inactive)
REMARK    1  A    between atoms: C7_7  and  N1_8 
REMARK    2  A    between atoms: N1_8  and  C8_9 
REMARK    3  A    between atoms: C10_11  and  N2_12 
REMARK    4  A    between atoms: N2_12  and  C11_13 
REMARK    5  A    between atoms: C11_13  and  C12_14 
REMARK    6  A    between atoms: C12_14  and  C13_15 
ROOT
HETATM    1  C1  UNL     1      21.323   0.947  49.271  1.00  0.00     0.018 C 
HETATM    2  C2  UNL     1      21.423   0.672  50.459  1.00  0.00    -0.078 C 
HETATM    3  C3  UNL     1      21.530   0.372  51.860  1.00  0.00     0.019 A 
HETATM    4  C4  UNL     1      20.467   0.715  52.684  1.00  0.00     0.021 A 
HETATM    5  C5  UNL     1      20.531   0.444  54.036  1.00  0.00     0.004 A 
HETATM    6  C6  UNL     1      21.678  -0.174  54.524  1.00  0.00     0.029 A 
HETATM    7  C7  UNL     1      22.754  -0.529  53.735  1.00  0.00     0.035 A 
HETATM    8  C19 UNL     1      22.645  -0.238  52.395  1.00  0.00     0.050 A 
ENDROOT
BRANCH   7   9
HETATM    9  N1  UNL     1      23.908  -1.166  54.318  1.00  0.00    -0.341 N 
HETATM   10  H5  UNL     1      23.747  -2.147  54.663  1.00  0.00     0.167 HD
BRANCH   9  11
HETATM   11  C8  UNL     1      25.089  -0.355  54.330  1.00  0.00     0.133 A 
HETATM   12  C9  UNL     1      24.998   0.752  53.501  1.00  0.00     0.100 A 
HETATM   13  C10 UNL     1      26.039   1.668  53.367  1.00  0.00     0.128 A 
HETATM   14  N3  UNL     1      27.136   1.435  54.076  1.00  0.00    -0.225 NA
HETATM   15  C18 UNL     1      27.207   0.370  54.865  1.00  0.00     0.237 A 
HETATM   16  N4  UNL     1      26.229  -0.543  55.027  1.00  0.00    -0.224 NA
BRANCH  13  17
HETATM   17  N2  UNL     1      25.975   2.811  52.528  1.00  0.00    -0.374 N 
HETATM   18  H7  UNL     1      26.857   3.386  52.469  1.00  0.00     0.161 HD
BRANCH  17  19
HETATM   19  C11 UNL     1      24.802   3.173  51.802  1.00  0.00     0.125 C 
BRANCH  19  20
HETATM   20  C12 UNL     1      23.674   3.716  52.618  1.00  0.00     0.056 C 
BRANCH  20  21
HETATM   21  C13 UNL     1      22.694   4.519  51.874  1.00  0.00    -0.053 A 
HETATM   22  C14 UNL     1      22.897   5.727  51.337  1.00  0.00     0.036 A 
HETATM   23 CL1  UNL     1      24.301   6.788  51.288  1.00  0.00    -0.084 Cl
HETATM   24  C15 UNL     1      21.669   6.176  50.687  1.00  0.00     0.020 A 
HETATM   25  C16 UNL     1      20.717   5.259  50.820  1.00  0.00    -0.021 A 
HETATM   26  C17 UNL     1      21.295   4.106  51.599  1.00  0.00     0.063 A 
ENDBRANCH  20  21
ENDBRANCH  19  20
ENDBRANCH  17  19
ENDBRANCH  13  17
ENDBRANCH   9  11
ENDBRANCH   7   9
TORSDOF 6
ENDMDL
MODEL 8
REMARK VINA RESULT:      -6.6      2.668      5.115
REMARK  6 active torsions:
REMARK  status: ('A' for Active; 'I' for Inactive)
REMARK    1  A    between atoms: C7_7  and  N1_8 
REMARK    2  A    between atoms: N1_8  and  C8_9 
REMARK    3  A    between atoms: C10_11  and  N2_12 
REMARK    4  A    between atoms: N2_12  and  C11_13 
REMARK    5  A    between atoms: C11_13  and  C12_14 
REMARK    6  A    between atoms: C12_14  and  C13_15 
ROOT
HETATM    1  C1  UNL     1      26.103  -0.572  53.704  1.00  0.00     0.018 C 
HETATM    2  C2  UNL     1      24.881  -0.554  53.651  1.00  0.00    -0.078 C 
HETATM    3  C3  UNL     1      23.444  -0.555  53.602  1.00  0.00     0.019 A 
HETATM    4  C4  UNL     1      22.753  -0.957  54.737  1.00  0.00     0.021 A 
HETATM    5  C5  UNL     1      21.373  -0.972  54.730  1.00  0.00     0.004 A 
HETATM    6  C6  UNL     1      20.722  -0.576  53.567  1.00  0.00     0.029 A 
HETATM    7  C7  UNL     1      21.376  -0.171  52.421  1.00  0.00     0.035 A 
HETATM    8  C19 UNL     1      22.750  -0.172  52.473  1.00  0.00     0.050 A 
ENDROOT
BRANCH   7   9
HETATM    9  N1  UNL     1      20.627   0.224  51.254  1.00  0.00    -0.341 N 
HETATM   10  H5  UNL     1      20.687  -0.442  50.441  1.00  0.00     0.167 HD
BRANCH   9  11
HETATM   11  C8  UNL     1      19.922   1.464  51.394  1.00  0.00     0.133 A 
HETATM   12  C9  UNL     1      20.754   2.572  51.347  1.00  0.00     0.100 A 
HETATM   13  C10 UNL     1      20.268   3.872  51.465  1.00  0.00     0.128 A 
HETATM   14  N3  UNL     1      18.959   4.008  51.629  1.00  0.00    -0.225 NA
HETATM   15  C18 UNL     1      18.176   2.938  51.672  1.00  0.00     0.237 A 
HETATM   16  N4  UNL     1      18.598   1.662  51.563  1.00  0.00    -0.224 NA
BRANCH  13  17
HETATM   17  N2  UNL     1      21.094   5.025  51.419  1.00  0.00    -0.374 N 
HETATM   18  H7  UNL     1      20.612   5.923  51.146  1.00  0.00     0.161 HD
BRANCH  17  19
HETATM   19  C11 UNL     1      22.487   4.991  51.720  1.00  0.00     0.125 C 
BRANCH  19  20
HETATM   20  C12 UNL     1      23.407   4.961  50.543  1.00  0.00     0.056 C 
BRANCH  20  21
HETATM   21  C13 UNL     1      24.546   4.040  50.662  1.00  0.00    -0.053 A 
HETATM   22  C14 UNL     1      25.722   4.142  50.034  1.00  0.00     0.036 A 
HETATM   23 CL1  UNL     1      26.365   5.319  48.893  1.00  0.00    -0.084 Cl
HETATM   24  C15 UNL     1      26.575   3.024  50.427  1.00  0.00     0.020 A 
HETATM   25  C16 UNL     1      25.936   2.238  51.287  1.00  0.00    -0.021 A 
HETATM   26  C17 UNL     1      24.568   2.826  51.516  1.00  0.00     0.063 A 
ENDBRANCH  20  21
ENDBRANCH  19  20
ENDBRANCH  17  19
ENDBRANCH  13  17
ENDBRANCH   9  11
ENDBRANCH   7   9
TORSDOF 6
ENDMDL
MODEL 9
REMARK VINA RESULT:      -6.5      3.121      6.432
REMARK  6 active torsions:
REMARK  status: ('A' for Active; 'I' for Inactive)
REMARK    1  A    between atoms: C7_7  and  N1_8 
REMARK    2  A    between atoms: N1_8  and  C8_9 
REMARK    3  A    between atoms: C10_11  and  N2_12 
REMARK    4  A    between atoms: N2_12  and  C11_13 
REMARK    5  A    between atoms: C11_13  and  C12_14 
REMARK    6  A    between atoms: C12_14  and  C13_15 
ROOT
HETATM    1  C1  UNL     1      21.622  -1.569  54.190  1.00  0.00     0.018 C 
HETATM    2  C2  UNL     1      22.522  -0.828  53.819  1.00  0.00    -0.078 C 
HETATM    3  C3  UNL     1      23.595   0.030  53.397  1.00  0.00     0.019 A 
HETATM    4  C4  UNL     1      24.824  -0.552  53.118  1.00  0.00     0.021 A 
HETATM    5  C5  UNL     1      25.880   0.238  52.710  1.00  0.00     0.004 A 
HETATM    6  C6  UNL     1      25.664   1.606  52.591  1.00  0.00     0.029 A 
HETATM    7  C7  UNL     1      24.456   2.219  52.860  1.00  0.00     0.035 A 
HETATM    8  C19 UNL     1      23.433   1.393  53.264  1.00  0.00     0.050 A 
ENDROOT
BRANCH   7   9
HETATM    9  N1  UNL     1      24.313   3.645  52.713  1.00  0.00    -0.341 N 
HETATM   10  H5  UNL     1      24.288   4.185  53.617  1.00  0.00     0.167 HD
BRANCH   9  11
HETATM   11  C8  UNL     1      24.227   4.096  51.355  1.00  0.00     0.133 A 
HETATM   12  C9  UNL     1      22.943   4.462  50.983  1.00  0.00     0.100 A 
HETATM   13  C10 UNL     1      22.644   4.927  49.705  1.00  0.00     0.128 A 
HETATM   14  N3  UNL     1      23.652   5.005  48.846  1.00  0.00    -0.225 NA
HETATM   15  C18 UNL     1      24.875   4.651  49.218  1.00  0.00     0.237 A 
HETATM   16  N4  UNL     1      25.214   4.196  50.440  1.00  0.00    -0.224 NA
BRANCH  13  17
HETATM   17  N2  UNL     1      21.340   5.310  49.294  1.00  0.00    -0.374 N 
HETATM   18  H7  UNL     1      21.295   6.004  48.502  1.00  0.00     0.161 HD
BRANCH  17  19
HETATM   19  C11 UNL     1      20.157   4.798  49.903  1.00  0.00     0.125 C 
BRANCH  19  20
HETATM   20  C12 UNL     1      19.599   3.552  49.296  1.00  0.00     0.056 C 
BRANCH  20  21
HETATM   21  C13 UNL     1      20.077   2.297  49.893  1.00  0.00    -0.053 A 
HETATM   22  C14 UNL     1      21.090   1.542  49.457  1.00  0.00     0.036 A 
HETATM   23 CL1  UNL     1      22.199   1.705  48.099  1.00  0.00    -0.084 Cl
HETATM   24  C15 UNL     1      21.236   0.382  50.331  1.00  0.00     0.020 A 
HETATM   25  C16 UNL     1      20.324   0.416  51.298  1.00  0.00    -0.021 A 
HETATM   26  C17 UNL     1      19.494   1.658  51.100  1.00  0.00     0.063 A 
ENDBRANCH  20  21
ENDBRANCH  19  20
ENDBRANCH  17  19
ENDBRANCH  13  17
ENDBRANCH   9  11
ENDBRANCH   7   9
TORSDOF 6
ENDMDL
