MODEL 1
REMARK VINA RESULT:      -8.9      0.000      0.000
REMARK  7 active torsions:
REMARK  status: ('A' for Active; 'I' for Inactive)
REMARK    1  A    between atoms: C2_2  and  C3_3 
REMARK       I    between atoms: C3_3  and  N1_5 
REMARK    2  A    between atoms: N1_5  and  C4_6 
REMARK    3  A    between atoms: C8_10  and  O2_11 
REMARK    4  A    between atoms: O2_11  and  C9_12 
REMARK    5  A    between atoms: C10_14  and  C11_15 
REMARK    6  A    between atoms: C12_16  and  N3_18 
REMARK       I    between atoms: N4_21  and  C16_22 
REMARK    7  A    between atoms: C21_29  and  C22_30 
ROOT
HETATM    1  C9  UNL     1      25.214   5.173  49.291  1.00  0.00     0.178 A 
HETATM    2  N2  UNL     1      26.449   4.849  49.016  1.00  0.00    -0.225 NA
HETATM    3  C10 UNL     1      27.390   5.782  48.510  1.00  0.00     0.076 A 
HETATM    4  C20 UNL     1      27.059   7.035  48.286  1.00  0.00     0.116 A 
HETATM    5  N5  UNL     1      25.708   7.376  48.583  1.00  0.00    -0.378 N 
HETATM    6  C21 UNL     1      24.641   6.556  49.117  1.00  0.00     0.267 A 
HETATM    7  H24 UNL     1      25.212   8.313  48.474  1.00  0.00     0.160 HD
ENDROOT
BRANCH   1   8
HETATM    8  O2  UNL     1      24.830   3.924  49.708  1.00  0.00    -0.293 OA
BRANCH   8   9
HETATM    9  C8  UNL     1      25.143   3.301  50.863  1.00  0.00     0.079 A 
HETATM   10  C7  UNL     1      24.169   3.579  51.847  1.00  0.00     0.037 A 
HETATM   11  C6  UNL     1      24.277   3.053  53.126  1.00  0.00     0.005 A 
HETATM   12  C5  UNL     1      25.337   2.249  53.465  1.00  0.00     0.029 A 
HETATM   13  C4  UNL     1      26.311   1.947  52.549  1.00  0.00     0.037 A 
HETATM   14  C23 UNL     1      26.159   2.489  51.299  1.00  0.00     0.066 A 
BRANCH  13  15
HETATM   15  N1  UNL     1      27.425   1.164  52.914  1.00  0.00    -0.324 N 
HETATM   16  C3  UNL     1      28.590   1.429  53.665  1.00  0.00     0.241 C 
HETATM   17  O1  UNL     1      28.719   2.588  54.104  1.00  0.00    -0.269 OA
HETATM   18  H4  UNL     1      27.422   0.156  52.572  1.00  0.00     0.169 HD
BRANCH  16  19
HETATM   19  C2  UNL     1      29.607   0.429  53.942  1.00  0.00     0.048 C 
HETATM   20  C1  UNL     1      29.695  -0.842  53.520  1.00  0.00     0.037 C 
ENDBRANCH  16  19
ENDBRANCH  13  15
ENDBRANCH   8   9
ENDBRANCH   1   8
BRANCH   6  21
HETATM   21  C22 UNL     1      24.084   7.145  50.391  1.00  0.00     0.415 C 
HETATM   22  F1  UNL     1      24.968   6.777  51.417  1.00  0.00    -0.168 F 
HETATM   23  F2  UNL     1      22.825   6.649  50.648  1.00  0.00    -0.168 F 
HETATM   24  F3  UNL     1      24.109   8.504  50.308  1.00  0.00    -0.168 F 
ENDBRANCH   6  21
BRANCH   3  25
HETATM   25  C11 UNL     1      28.800   5.561  48.136  1.00  0.00     0.057 C 
HETATM   26  C12 UNL     1      29.778   6.417  48.007  1.00  0.00     0.005 C 
HETATM   27  C13 UNL     1      31.121   5.855  47.609  1.00  0.00     0.068 C 
BRANCH  26  28
HETATM   28  N3  UNL     1      30.094   7.801  48.099  1.00  0.00    -0.381 N 
HETATM   29  C14 UNL     1      30.401   8.660  49.228  1.00  0.00     0.142 C 
HETATM   30  C15 UNL     1      29.415   9.800  49.374  1.00  0.00     0.145 C 
HETATM   31  N4  UNL     1      28.825  10.129  48.112  1.00  0.00    -0.349 N 
HETATM   32  C16 UNL     1      27.458  10.519  48.141  1.00  0.00     0.215 C 
HETATM   33  C18 UNL     1      29.766  10.006  47.021  1.00  0.00     0.145 C 
HETATM   34  C17 UNL     1      26.414  10.942  47.203  1.00  0.00     0.117 C 
HETATM   35  O3  UNL     1      27.104  10.462  49.346  1.00  0.00    -0.274 OA
HETATM   36  C19 UNL     1      30.118   8.561  46.842  1.00  0.00     0.142 C 
ENDBRANCH  26  28
ENDBRANCH   3  25
TORSDOF 7
ENDMDL
MODEL 2
REMARK VINA RESULT:      -8.8      2.157      8.518
REMARK  7 active torsions:
REMARK  status: ('A' for Active; 'I' for Inactive)
REMARK    1  A    between atoms: C2_2  and  C3_3 
REMARK       I    between atoms: C3_3  and  N1_5 
REMARK    2  A    between atoms: N1_5  and  C4_6 
REMARK    3  A    between atoms: C8_10  and  O2_11 
REMARK    4  A    between atoms: O2_11  and  C9_12 
REMARK    5  A    between atoms: C10_14  and  C11_15 
REMARK    6  A    between atoms: C12_16  and  N3_18 
REMARK       I    between atoms: N4_21  and  C16_22 
REMARK    7  A    between atoms: C21_29  and  C22_30 
ROOT
HETATM    1  C9  UNL     1      25.653   5.862  49.585  1.00  0.00     0.178 A 
HETATM    2  N2  UNL     1      25.038   4.715  49.492  1.00  0.00    -0.225 NA
HETATM    3  C10 UNL     1      23.969   4.347  50.349  1.00  0.00     0.076 A 
HETATM    4  C20 UNL     1      23.543   5.153  51.296  1.00  0.00     0.116 A 
HETATM    5  N5  UNL     1      24.225   6.400  51.394  1.00  0.00    -0.378 N 
HETATM    6  C21 UNL     1      25.310   6.929  50.594  1.00  0.00     0.267 A 
HETATM    7  H24 UNL     1      24.068   7.200  52.082  1.00  0.00     0.160 HD
ENDROOT
BRANCH   1   8
HETATM    8  O2  UNL     1      26.533   5.636  48.558  1.00  0.00    -0.293 OA
BRANCH   8   9
HETATM    9  C8  UNL     1      27.733   6.216  48.350  1.00  0.00     0.079 A 
HETATM   10  C7  UNL     1      28.741   5.232  48.257  1.00  0.00     0.037 A 
HETATM   11  C6  UNL     1      30.066   5.586  48.048  1.00  0.00     0.005 A 
HETATM   12  C5  UNL     1      30.428   6.905  47.929  1.00  0.00     0.029 A 
HETATM   13  C4  UNL     1      29.489   7.901  48.012  1.00  0.00     0.037 A 
HETATM   14  C23 UNL     1      28.194   7.500  48.216  1.00  0.00     0.066 A 
BRANCH  13  15
HETATM   15  N1  UNL     1      29.870   9.257  47.941  1.00  0.00    -0.324 N 
HETATM   16  C3  UNL     1      30.547  10.120  48.830  1.00  0.00     0.241 C 
HETATM   17  O1  UNL     1      30.883   9.637  49.929  1.00  0.00    -0.269 OA
HETATM   18  H4  UNL     1      29.613   9.770  47.045  1.00  0.00     0.169 HD
BRANCH  16  19
HETATM   19  C2  UNL     1      30.861  11.503  48.516  1.00  0.00     0.048 C 
HETATM   20  C1  UNL     1      30.432  12.632  49.100  1.00  0.00     0.037 C 
ENDBRANCH  16  19
ENDBRANCH  13  15
ENDBRANCH   8   9
ENDBRANCH   1   8
BRANCH   6  21
HETATM   21  C22 UNL     1      24.934   8.252  49.970  1.00  0.00     0.415 C 
HETATM   22  F1  UNL     1      23.670   8.586  50.481  1.00  0.00    -0.168 F 
HETATM   23  F2  UNL     1      24.880   8.147  48.599  1.00  0.00    -0.168 F 
HETATM   24  F3  UNL     1      25.803   9.212  50.392  1.00  0.00    -0.168 F 
ENDBRANCH   6  21
BRANCH   3  25
HETATM   25  C11 UNL     1      23.199   3.089  50.376  1.00  0.00     0.057 C 
HETATM   26  C12 UNL     1      23.180   2.135  51.269  1.00  0.00     0.005 C 
HETATM   27  C13 UNL     1      22.265   0.967  50.992  1.00  0.00     0.068 C 
BRANCH  26  28
HETATM   28  N3  UNL     1      23.747   1.732  52.509  1.00  0.00    -0.381 N 
HETATM   29  C14 UNL     1      24.729   2.350  53.381  1.00  0.00     0.142 C 
HETATM   30  C15 UNL     1      25.961   1.490  53.570  1.00  0.00     0.145 C 
HETATM   31  N4  UNL     1      25.648   0.104  53.387  1.00  0.00    -0.349 N 
HETATM   32  C16 UNL     1      26.648  -0.687  52.762  1.00  0.00     0.215 C 
HETATM   33  C18 UNL     1      24.337  -0.231  53.898  1.00  0.00     0.145 C 
HETATM   34  C17 UNL     1      26.854  -2.080  52.353  1.00  0.00     0.117 C 
HETATM   35  O3  UNL     1      27.605   0.090  52.513  1.00  0.00    -0.274 OA
HETATM   36  C19 UNL     1      23.298   0.445  53.057  1.00  0.00     0.142 C 
ENDBRANCH  26  28
ENDBRANCH   3  25
TORSDOF 7
ENDMDL
MODEL 3
REMARK VINA RESULT:      -8.8      4.158      6.954
REMARK  7 active torsions:
REMARK  status: ('A' for Active; 'I' for Inactive)
REMARK    1  A    between atoms: C2_2  and  C3_3 
REMARK       I    between atoms: C3_3  and  N1_5 
REMARK    2  A    between atoms: N1_5  and  C4_6 
REMARK    3  A    between atoms: C8_10  and  O2_11 
REMARK    4  A    between atoms: O2_11  and  C9_12 
REMARK    5  A    between atoms: C10_14  and  C11_15 
REMARK    6  A    between atoms: C12_16  and  N3_18 
REMARK       I    between atoms: N4_21  and  C16_22 
REMARK    7  A    between atoms: C21_29  and  C22_30 
ROOT
HETATM    1  C9  UNL     1      23.940   3.997  50.930  1.00  0.00     0.178 A 
HETATM    2  N2  UNL     1      22.870   4.734  50.808  1.00  0.00    -0.225 NA
HETATM    3  C10 UNL     1      22.921   6.100  50.429  1.00  0.00     0.076 A 
HETATM    4  C20 UNL     1      24.065   6.700  50.182  1.00  0.00     0.116 A 
HETATM    5  N5  UNL     1      25.227   5.888  50.324  1.00  0.00    -0.378 N 
HETATM    6  C21 UNL     1      25.343   4.490  50.681  1.00  0.00     0.267 A 
HETATM    7  H24 UNL     1      26.251   6.152  50.190  1.00  0.00     0.160 HD
ENDROOT
BRANCH   1   8
HETATM    8  O2  UNL     1      23.282   2.853  51.302  1.00  0.00    -0.293 OA
BRANCH   8   9
HETATM    9  C8  UNL     1      23.782   1.781  51.952  1.00  0.00     0.079 A 
HETATM   10  C7  UNL     1      22.735   1.013  52.505  1.00  0.00     0.037 A 
HETATM   11  C6  UNL     1      23.001  -0.141  53.228  1.00  0.00     0.005 A 
HETATM   12  C5  UNL     1      24.293  -0.561  53.424  1.00  0.00     0.029 A 
HETATM   13  C4  UNL     1      25.348   0.148  52.910  1.00  0.00     0.037 A 
HETATM   14  C23 UNL     1      25.033   1.278  52.201  1.00  0.00     0.066 A 
BRANCH  13  15
HETATM   15  N1  UNL     1      26.676  -0.258  53.156  1.00  0.00    -0.324 N 
HETATM   16  C3  UNL     1      27.645   0.127  54.107  1.00  0.00     0.241 C 
HETATM   17  O1  UNL     1      27.315   1.024  54.908  1.00  0.00    -0.269 OA
HETATM   18  H4  UNL     1      27.063  -1.012  52.512  1.00  0.00     0.169 HD
BRANCH  16  19
HETATM   19  C2  UNL     1      28.967  -0.469  54.187  1.00  0.00     0.048 C 
HETATM   20  C1  UNL     1      29.519  -1.432  53.434  1.00  0.00     0.037 C 
ENDBRANCH  16  19
ENDBRANCH  13  15
ENDBRANCH   8   9
ENDBRANCH   1   8
BRANCH   6  21
HETATM   21  C22 UNL     1      26.076   3.712  49.614  1.00  0.00     0.415 C 
HETATM   22  F1  UNL     1      25.097   3.025  48.881  1.00  0.00    -0.168 F 
HETATM   23  F2  UNL     1      26.959   2.821  50.180  1.00  0.00    -0.168 F 
HETATM   24  F3  UNL     1      26.681   4.582  48.758  1.00  0.00    -0.168 F 
ENDBRANCH   6  21
BRANCH   3  25
HETATM   25  C11 UNL     1      21.809   7.057  50.272  1.00  0.00     0.057 C 
HETATM   26  C12 UNL     1      20.624   6.888  49.748  1.00  0.00     0.005 C 
HETATM   27  C13 UNL     1      19.708   8.088  49.745  1.00  0.00     0.068 C 
BRANCH  26  28
HETATM   28  N3  UNL     1      19.790   5.924  49.117  1.00  0.00    -0.381 N 
HETATM   29  C14 UNL     1      18.601   5.221  49.561  1.00  0.00     0.142 C 
HETATM   30  C15 UNL     1      18.789   3.718  49.579  1.00  0.00     0.145 C 
HETATM   31  N4  UNL     1      19.785   3.317  48.631  1.00  0.00    -0.349 N 
HETATM   32  C16 UNL     1      20.616   2.231  49.017  1.00  0.00     0.215 C 
HETATM   33  C18 UNL     1      19.744   4.116  47.426  1.00  0.00     0.145 C 
HETATM   34  C17 UNL     1      21.729   1.449  48.470  1.00  0.00     0.117 C 
HETATM   35  O3  UNL     1      20.235   1.890  50.166  1.00  0.00    -0.274 OA
HETATM   36  C19 UNL     1      20.160   5.517  47.755  1.00  0.00     0.142 C 
ENDBRANCH  26  28
ENDBRANCH   3  25
TORSDOF 7
ENDMDL
MODEL 4
REMARK VINA RESULT:      -8.7      2.053      3.085
REMARK  7 active torsions:
REMARK  status: ('A' for Active; 'I' for Inactive)
REMARK    1  A    between atoms: C2_2  and  C3_3 
REMARK       I    between atoms: C3_3  and  N1_5 
REMARK    2  A    between atoms: N1_5  and  C4_6 
REMARK    3  A    between atoms: C8_10  and  O2_11 
REMARK    4  A    between atoms: O2_11  and  C9_12 
REMARK    5  A    between atoms: C10_14  and  C11_15 
REMARK    6  A    between atoms: C12_16  and  N3_18 
REMARK       I    between atoms: N4_21  and  C16_22 
REMARK    7  A    between atoms: C21_29  and  C22_30 
ROOT
HETATM    1  C9  UNL     1      23.361   3.892  51.221  1.00  0.00     0.178 A 
HETATM    2  N2  UNL     1      24.607   4.085  50.884  1.00  0.00    -0.225 NA
HETATM    3  C10 UNL     1      24.985   4.650  49.639  1.00  0.00     0.076 A 
HETATM    4  C20 UNL     1      24.086   5.008  48.749  1.00  0.00     0.116 A 
HETATM    5  N5  UNL     1      22.729   4.787  49.124  1.00  0.00    -0.378 N 
HETATM    6  C21 UNL     1      22.182   4.244  50.350  1.00  0.00     0.267 A 
HETATM    7  H24 UNL     1      21.839   4.983  48.571  1.00  0.00     0.160 HD
ENDROOT
BRANCH   1   8
HETATM    8  O2  UNL     1      23.629   3.348  52.451  1.00  0.00    -0.293 OA
BRANCH   8   9
HETATM    9  C8  UNL     1      24.129   2.126  52.727  1.00  0.00     0.079 A 
HETATM   10  C7  UNL     1      23.084   1.231  53.047  1.00  0.00     0.037 A 
HETATM   11  C6  UNL     1      23.350  -0.090  53.375  1.00  0.00     0.005 A 
HETATM   12  C5  UNL     1      24.641  -0.559  53.397  1.00  0.00     0.029 A 
HETATM   13  C4  UNL     1      25.693   0.267  53.096  1.00  0.00     0.037 A 
HETATM   14  C23 UNL     1      25.378   1.562  52.777  1.00  0.00     0.066 A 
BRANCH  13  15
HETATM   15  N1  UNL     1      27.020  -0.204  53.170  1.00  0.00    -0.324 N 
HETATM   16  C3  UNL     1      28.063  -0.014  54.102  1.00  0.00     0.241 C 
HETATM   17  O1  UNL     1      27.818   0.731  55.071  1.00  0.00    -0.269 OA
HETATM   18  H4  UNL     1      27.338  -0.838  52.377  1.00  0.00     0.169 HD
BRANCH  16  19
HETATM   19  C2  UNL     1      29.368  -0.642  53.980  1.00  0.00     0.048 C 
HETATM   20  C1  UNL     1      29.709  -1.800  53.394  1.00  0.00     0.037 C 
ENDBRANCH  16  19
ENDBRANCH  13  15
ENDBRANCH   8   9
ENDBRANCH   1   8
BRANCH   6  21
HETATM   21  C22 UNL     1      21.221   5.213  50.996  1.00  0.00     0.415 C 
HETATM   22  F1  UNL     1      20.521   4.487  51.971  1.00  0.00    -0.168 F 
HETATM   23  F2  UNL     1      20.346   5.725  50.065  1.00  0.00    -0.168 F 
HETATM   24  F3  UNL     1      21.926   6.181  51.646  1.00  0.00    -0.168 F 
ENDBRANCH   6  21
BRANCH   3  25
HETATM   25  C11 UNL     1      26.340   4.908  49.115  1.00  0.00     0.057 C 
HETATM   26  C12 UNL     1      26.904   6.032  48.762  1.00  0.00     0.005 C 
HETATM   27  C13 UNL     1      28.325   5.949  48.262  1.00  0.00     0.068 C 
BRANCH  26  28
HETATM   28  N3  UNL     1      26.671   7.431  48.649  1.00  0.00    -0.381 N 
HETATM   29  C14 UNL     1      26.364   8.281  47.513  1.00  0.00     0.142 C 
HETATM   30  C15 UNL     1      27.411   9.352  47.290  1.00  0.00     0.145 C 
HETATM   31  N4  UNL     1      28.080   9.673  48.515  1.00  0.00    -0.349 N 
HETATM   32  C16 UNL     1      29.465   9.974  48.412  1.00  0.00     0.215 C 
HETATM   33  C18 UNL     1      27.187   9.635  49.652  1.00  0.00     0.145 C 
HETATM   34  C17 UNL     1      30.578  10.352  49.288  1.00  0.00     0.117 C 
HETATM   35  O3  UNL     1      29.757   9.867  47.193  1.00  0.00    -0.274 OA
HETATM   36  C19 UNL     1      26.755   8.220  49.885  1.00  0.00     0.142 C 
ENDBRANCH  26  28
ENDBRANCH   3  25
TORSDOF 7
ENDMDL
MODEL 5
REMARK VINA RESULT:      -8.7      5.405      8.196
REMARK  7 active torsions:
REMARK  status: ('A' for Active; 'I' for Inactive)
REMARK    1  A    between atoms: C2_2  and  C3_3 
REMARK       I    between atoms: C3_3  and  N1_5 
REMARK    2  A    between atoms: N1_5  and  C4_6 
REMARK    3  A    between atoms: C8_10  and  O2_11 
REMARK    4  A    between atoms: O2_11  and  C9_12 
REMARK    5  A    between atoms: C10_14  and  C11_15 
REMARK    6  A    between atoms: C12_16  and  N3_18 
REMARK       I    between atoms: N4_21  and  C16_22 
REMARK    7  A    between atoms: C21_29  and  C22_30 
ROOT
HETATM    1  C9  UNL     1      26.410   0.220  53.004  1.00  0.00     0.178 A 
HETATM    2  N2  UNL     1      25.952   0.946  52.021  1.00  0.00    -0.225 NA
HETATM    3  C10 UNL     1      26.581   2.145  51.598  1.00  0.00     0.076 A 
HETATM    4  C20 UNL     1      27.669   2.591  52.185  1.00  0.00     0.116 A 
HETATM    5  N5  UNL     1      28.157   1.794  53.260  1.00  0.00    -0.378 N 
HETATM    6  C21 UNL     1      27.648   0.550  53.797  1.00  0.00     0.267 A 
HETATM    7  H24 UNL     1      29.005   1.957  53.886  1.00  0.00     0.160 HD
ENDROOT
BRANCH   1   8
HETATM    8  O2  UNL     1      25.430  -0.738  52.941  1.00  0.00    -0.293 OA
BRANCH   8   9
HETATM    9  C8  UNL     1      24.155  -0.651  53.374  1.00  0.00     0.079 A 
HETATM   10  C7  UNL     1      24.063  -1.092  54.712  1.00  0.00     0.037 A 
HETATM   11  C6  UNL     1      22.846  -1.102  55.378  1.00  0.00     0.005 A 
HETATM   12  C5  UNL     1      21.700  -0.683  54.747  1.00  0.00     0.029 A 
HETATM   13  C4  UNL     1      21.733  -0.246  53.448  1.00  0.00     0.037 A 
HETATM   14  C23 UNL     1      22.959  -0.253  52.835  1.00  0.00     0.066 A 
BRANCH  13  15
HETATM   15  N1  UNL     1      20.547   0.135  52.787  1.00  0.00    -0.324 N 
HETATM   16  C3  UNL     1      19.231  -0.376  52.790  1.00  0.00     0.241 C 
HETATM   17  O1  UNL     1      19.026  -1.385  53.492  1.00  0.00    -0.269 OA
HETATM   18  H4  UNL     1      20.619   0.980  52.145  1.00  0.00     0.169 HD
BRANCH  16  19
HETATM   19  C2  UNL     1      18.142   0.218  52.033  1.00  0.00     0.048 C 
HETATM   20  C1  UNL     1      17.640  -0.131  50.839  1.00  0.00     0.037 C 
ENDBRANCH  16  19
ENDBRANCH  13  15
ENDBRANCH   8   9
ENDBRANCH   1   8
BRANCH   6  21
HETATM   21  C22 UNL     1      28.700  -0.534  53.756  1.00  0.00     0.415 C 
HETATM   22  F1  UNL     1      29.768  -0.021  53.004  1.00  0.00    -0.168 F 
HETATM   23  F2  UNL     1      28.203  -1.672  53.162  1.00  0.00    -0.168 F 
HETATM   24  F3  UNL     1      29.167  -0.757  55.015  1.00  0.00    -0.168 F 
ENDBRANCH   6  21
BRANCH   3  25
HETATM   25  C11 UNL     1      26.172   3.074  50.527  1.00  0.00     0.057 C 
HETATM   26  C12 UNL     1      25.165   3.905  50.475  1.00  0.00     0.005 C 
HETATM   27  C13 UNL     1      25.029   4.726  49.215  1.00  0.00     0.068 C 
BRANCH  26  28
HETATM   28  N3  UNL     1      24.041   4.372  51.211  1.00  0.00    -0.381 N 
HETATM   29  C14 UNL     1      23.387   3.880  52.410  1.00  0.00     0.142 C 
HETATM   30  C15 UNL     1      21.938   3.511  52.171  1.00  0.00     0.145 C 
HETATM   31  N4  UNL     1      21.395   4.259  51.077  1.00  0.00    -0.349 N 
HETATM   32  C16 UNL     1      20.468   3.573  50.247  1.00  0.00     0.215 C 
HETATM   33  C18 UNL     1      21.906   5.612  51.034  1.00  0.00     0.145 C 
HETATM   34  C17 UNL     1      19.648   3.836  49.061  1.00  0.00     0.117 C 
HETATM   35  O3  UNL     1      20.367   2.412  50.721  1.00  0.00    -0.274 OA
HETATM   36  C19 UNL     1      23.365   5.572  50.701  1.00  0.00     0.142 C 
ENDBRANCH  26  28
ENDBRANCH   3  25
TORSDOF 7
ENDMDL
MODEL 6
REMARK VINA RESULT:      -8.5      2.957      8.442
REMARK  7 active torsions:
REMARK  status: ('A' for Active; 'I' for Inactive)
REMARK    1  A    between atoms: C2_2  and  C3_3 
REMARK       I    between atoms: C3_3  and  N1_5 
REMARK    2  A    between atoms: N1_5  and  C4_6 
REMARK    3  A    between atoms: C8_10  and  O2_11 
REMARK    4  A    between atoms: O2_11  and  C9_12 
REMARK    5  A    between atoms: C10_14  and  C11_15 
REMARK    6  A    between atoms: C12_16  and  N3_18 
REMARK       I    between atoms: N4_21  and  C16_22 
REMARK    7  A    between atoms: C21_29  and  C22_30 
ROOT
HETATM    1  C9  UNL     1      22.697   3.356  51.247  1.00  0.00     0.178 A 
HETATM    2  N2  UNL     1      22.677   2.600  52.311  1.00  0.00    -0.225 NA
HETATM    3  C10 UNL     1      22.174   1.274  52.299  1.00  0.00     0.076 A 
HETATM    4  C20 UNL     1      21.694   0.734  51.200  1.00  0.00     0.116 A 
HETATM    5  N5  UNL     1      21.715   1.569  50.046  1.00  0.00    -0.378 N 
HETATM    6  C21 UNL     1      22.205   2.922  49.890  1.00  0.00     0.267 A 
HETATM    7  H24 UNL     1      21.374   1.359  49.058  1.00  0.00     0.160 HD
ENDROOT
BRANCH   1   8
HETATM    8  O2  UNL     1      23.253   4.449  51.860  1.00  0.00    -0.293 OA
BRANCH   8   9
HETATM    9  C8  UNL     1      23.710   5.581  51.285  1.00  0.00     0.079 A 
HETATM   10  C7  UNL     1      22.644   6.479  51.061  1.00  0.00     0.037 A 
HETATM   11  C6  UNL     1      22.865   7.715  50.471  1.00  0.00     0.005 A 
HETATM   12  C5  UNL     1      24.129   8.093  50.090  1.00  0.00     0.029 A 
HETATM   13  C4  UNL     1      25.200   7.259  50.284  1.00  0.00     0.037 A 
HETATM   14  C23 UNL     1      24.930   6.050  50.873  1.00  0.00     0.066 A 
BRANCH  13  15
HETATM   15  N1  UNL     1      26.488   7.628  49.846  1.00  0.00    -0.324 N 
HETATM   16  C3  UNL     1      27.241   8.817  49.948  1.00  0.00     0.241 C 
HETATM   17  O1  UNL     1      26.691   9.779  50.519  1.00  0.00    -0.269 OA
HETATM   18  H4  UNL     1      27.039   6.879  49.328  1.00  0.00     0.169 HD
BRANCH  16  19
HETATM   19  C2  UNL     1      28.593   8.953  49.433  1.00  0.00     0.048 C 
HETATM   20  C1  UNL     1      29.349   8.068  48.767  1.00  0.00     0.037 C 
ENDBRANCH  16  19
ENDBRANCH  13  15
ENDBRANCH   8   9
ENDBRANCH   1   8
BRANCH   6  21
HETATM   21  C22 UNL     1      23.260   3.000  48.812  1.00  0.00     0.415 C 
HETATM   22  F1  UNL     1      24.488   2.741  49.438  1.00  0.00    -0.168 F 
HETATM   23  F2  UNL     1      23.275   4.250  48.234  1.00  0.00    -0.168 F 
HETATM   24  F3  UNL     1      23.054   2.003  47.907  1.00  0.00    -0.168 F 
ENDBRANCH   6  21
BRANCH   3  25
HETATM   25  C11 UNL     1      22.068   0.316  53.416  1.00  0.00     0.057 C 
HETATM   26  C12 UNL     1      22.995  -0.388  54.010  1.00  0.00     0.005 C 
HETATM   27  C13 UNL     1      22.546  -1.284  55.138  1.00  0.00     0.068 C 
BRANCH  26  28
HETATM   28  N3  UNL     1      24.390  -0.666  53.998  1.00  0.00    -0.381 N 
HETATM   29  C14 UNL     1      25.396  -0.657  55.043  1.00  0.00     0.142 C 
HETATM   30  C15 UNL     1      26.509   0.333  54.768  1.00  0.00     0.145 C 
HETATM   31  N4  UNL     1      26.653   0.561  53.362  1.00  0.00    -0.349 N 
HETATM   32  C16 UNL     1      26.993   1.884  52.973  1.00  0.00     0.215 C 
HETATM   33  C18 UNL     1      26.425  -0.640  52.588  1.00  0.00     0.145 C 
HETATM   34  C17 UNL     1      27.255   2.637  51.742  1.00  0.00     0.117 C 
HETATM   35  O3  UNL     1      27.078   2.551  54.036  1.00  0.00    -0.274 OA
HETATM   36  C19 UNL     1      24.983  -1.028  52.704  1.00  0.00     0.142 C 
ENDBRANCH  26  28
ENDBRANCH   3  25
TORSDOF 7
ENDMDL
MODEL 7
REMARK VINA RESULT:      -8.5      2.673      7.936
REMARK  7 active torsions:
REMARK  status: ('A' for Active; 'I' for Inactive)
REMARK    1  A    between atoms: C2_2  and  C3_3 
REMARK       I    between atoms: C3_3  and  N1_5 
REMARK    2  A    between atoms: N1_5  and  C4_6 
REMARK    3  A    between atoms: C8_10  and  O2_11 
REMARK    4  A    between atoms: O2_11  and  C9_12 
REMARK    5  A    between atoms: C10_14  and  C11_15 
REMARK    6  A    between atoms: C12_16  and  N3_18 
REMARK       I    between atoms: N4_21  and  C16_22 
REMARK    7  A    between atoms: C21_29  and  C22_30 
ROOT
HETATM    1  C9  UNL     1      26.024   6.175  49.296  1.00  0.00     0.178 A 
HETATM    2  N2  UNL     1      25.384   5.051  49.119  1.00  0.00    -0.225 NA
HETATM    3  C10 UNL     1      24.305   4.646  49.946  1.00  0.00     0.076 A 
HETATM    4  C20 UNL     1      23.893   5.391  50.948  1.00  0.00     0.116 A 
HETATM    5  N5  UNL     1      24.603   6.612  51.137  1.00  0.00    -0.378 N 
HETATM    6  C21 UNL     1      25.702   7.173  50.378  1.00  0.00     0.267 A 
HETATM    7  H24 UNL     1      24.462   7.364  51.880  1.00  0.00     0.160 HD
ENDROOT
BRANCH   1   8
HETATM    8  O2  UNL     1      26.902   6.003  48.256  1.00  0.00    -0.293 OA
BRANCH   8   9
HETATM    9  C8  UNL     1      28.240   6.174  48.262  1.00  0.00     0.079 A 
HETATM   10  C7  UNL     1      28.556   7.546  48.371  1.00  0.00     0.037 A 
HETATM   11  C6  UNL     1      29.875   7.975  48.392  1.00  0.00     0.005 A 
HETATM   12  C5  UNL     1      30.906   7.071  48.306  1.00  0.00     0.029 A 
HETATM   13  C4  UNL     1      30.655   5.728  48.199  1.00  0.00     0.037 A 
HETATM   14  C23 UNL     1      29.336   5.354  48.184  1.00  0.00     0.066 A 
BRANCH  13  15
HETATM   15  N1  UNL     1      31.714   4.807  48.059  1.00  0.00    -0.324 N 
HETATM   16  C3  UNL     1      32.608   4.513  47.007  1.00  0.00     0.241 C 
HETATM   17  O1  UNL     1      32.462   5.161  45.953  1.00  0.00    -0.269 OA
HETATM   18  H4  UNL     1      31.912   4.188  48.902  1.00  0.00     0.169 HD
BRANCH  16  19
HETATM   19  C2  UNL     1      33.663   3.519  47.110  1.00  0.00     0.048 C 
HETATM   20  C1  UNL     1      34.740   3.331  46.333  1.00  0.00     0.037 C 
ENDBRANCH  16  19
ENDBRANCH  13  15
ENDBRANCH   8   9
ENDBRANCH   1   8
BRANCH   6  21
HETATM   21  C22 UNL     1      25.357   8.546  49.851  1.00  0.00     0.415 C 
HETATM   22  F1  UNL     1      25.380   8.450  48.451  1.00  0.00    -0.168 F 
HETATM   23  F2  UNL     1      26.275   9.477  50.280  1.00  0.00    -0.168 F 
HETATM   24  F3  UNL     1      24.081   8.859  50.210  1.00  0.00    -0.168 F 
ENDBRANCH   6  21
BRANCH   3  25
HETATM   25  C11 UNL     1      23.506   3.407  49.881  1.00  0.00     0.057 C 
HETATM   26  C12 UNL     1      23.337   2.469  50.775  1.00  0.00     0.005 C 
HETATM   27  C13 UNL     1      22.441   1.318  50.388  1.00  0.00     0.068 C 
BRANCH  26  28
HETATM   28  N3  UNL     1      23.712   2.075  52.089  1.00  0.00    -0.381 N 
HETATM   29  C14 UNL     1      24.554   2.700  53.093  1.00  0.00     0.142 C 
HETATM   30  C15 UNL     1      25.742   1.840  53.471  1.00  0.00     0.145 C 
HETATM   31  N4  UNL     1      25.458   0.453  53.253  1.00  0.00    -0.349 N 
HETATM   32  C16 UNL     1      26.540  -0.343  52.790  1.00  0.00     0.215 C 
HETATM   33  C18 UNL     1      24.085   0.122  53.565  1.00  0.00     0.145 C 
HETATM   34  C17 UNL     1      26.802  -1.739  52.426  1.00  0.00     0.117 C 
HETATM   35  O3  UNL     1      27.524   0.433  52.681  1.00  0.00    -0.274 OA
HETATM   36  C19 UNL     1      23.184   0.793  52.574  1.00  0.00     0.142 C 
ENDBRANCH  26  28
ENDBRANCH   3  25
TORSDOF 7
ENDMDL
MODEL 8
REMARK VINA RESULT:      -8.4      4.813      7.703
REMARK  7 active torsions:
REMARK  status: ('A' for Active; 'I' for Inactive)
REMARK    1  A    between atoms: C2_2  and  C3_3 
REMARK       I    between atoms: C3_3  and  N1_5 
REMARK    2  A    between atoms: N1_5  and  C4_6 
REMARK    3  A    between atoms: C8_10  and  O2_11 
REMARK    4  A    between atoms: O2_11  and  C9_12 
REMARK    5  A    between atoms: C10_14  and  C11_15 
REMARK    6  A    between atoms: C12_16  and  N3_18 
REMARK       I    between atoms: N4_21  and  C16_22 
REMARK    7  A    between atoms: C21_29  and  C22_30 
ROOT
HETATM    1  C9  UNL     1      25.084   0.682  53.034  1.00  0.00     0.178 A 
HETATM    2  N2  UNL     1      25.381   1.289  51.917  1.00  0.00    -0.225 NA
HETATM    3  C10 UNL     1      26.426   2.243  51.819  1.00  0.00     0.076 A 
HETATM    4  C20 UNL     1      27.154   2.571  52.864  1.00  0.00     0.116 A 
HETATM    5  N5  UNL     1      26.817   1.909  54.079  1.00  0.00    -0.378 N 
HETATM    6  C21 UNL     1      25.803   0.908  54.339  1.00  0.00     0.267 A 
HETATM    7  H24 UNL     1      27.251   2.017  55.046  1.00  0.00     0.160 HD
ENDROOT
BRANCH   1   8
HETATM    8  O2  UNL     1      24.052  -0.062  52.521  1.00  0.00    -0.293 OA
BRANCH   8   9
HETATM    9  C8  UNL     1      22.734   0.057  52.779  1.00  0.00     0.079 A 
HETATM   10  C7  UNL     1      22.394  -0.681  53.934  1.00  0.00     0.037 A 
HETATM   11  C6  UNL     1      21.087  -0.719  54.399  1.00  0.00     0.005 A 
HETATM   12  C5  UNL     1      20.092  -0.036  53.743  1.00  0.00     0.029 A 
HETATM   13  C4  UNL     1      20.366   0.696  52.617  1.00  0.00     0.037 A 
HETATM   14  C23 UNL     1      21.672   0.703  52.199  1.00  0.00     0.066 A 
BRANCH  13  15
HETATM   15  N1  UNL     1      19.334   1.353  51.916  1.00  0.00    -0.324 N 
HETATM   16  C3  UNL     1      18.975   2.710  51.771  1.00  0.00     0.241 C 
HETATM   17  O1  UNL     1      19.673   3.541  52.386  1.00  0.00    -0.269 OA
HETATM   18  H4  UNL     1      18.667   0.729  51.370  1.00  0.00     0.169 HD
BRANCH  16  19
HETATM   19  C2  UNL     1      17.862   3.159  50.953  1.00  0.00     0.048 C 
HETATM   20  C1  UNL     1      17.673   4.335  50.335  1.00  0.00     0.037 C 
ENDBRANCH  16  19
ENDBRANCH  13  15
ENDBRANCH   8   9
ENDBRANCH   1   8
BRANCH   6  21
HETATM   21  C22 UNL     1      26.411  -0.347  54.919  1.00  0.00     0.415 C 
HETATM   22  F1  UNL     1      26.436  -1.291  53.882  1.00  0.00    -0.168 F 
HETATM   23  F2  UNL     1      25.654  -0.815  55.970  1.00  0.00    -0.168 F 
HETATM   24  F3  UNL     1      27.704  -0.102  55.268  1.00  0.00    -0.168 F 
ENDBRANCH   6  21
BRANCH   3  25
HETATM   25  C11 UNL     1      26.861   3.019  50.641  1.00  0.00     0.057 C 
HETATM   26  C12 UNL     1      26.274   4.010  50.025  1.00  0.00     0.005 C 
HETATM   27  C13 UNL     1      26.998   4.592  48.836  1.00  0.00     0.068 C 
BRANCH  26  28
HETATM   28  N3  UNL     1      25.106   4.822  50.039  1.00  0.00    -0.381 N 
HETATM   29  C14 UNL     1      24.060   5.010  51.028  1.00  0.00     0.142 C 
HETATM   30  C15 UNL     1      22.691   4.627  50.504  1.00  0.00     0.145 C 
HETATM   31  N4  UNL     1      22.635   4.761  49.079  1.00  0.00    -0.349 N 
HETATM   32  C16 UNL     1      21.858   3.792  48.389  1.00  0.00     0.215 C 
HETATM   33  C18 UNL     1      23.396   5.897  48.607  1.00  0.00     0.145 C 
HETATM   34  C17 UNL     1      21.471   3.469  47.013  1.00  0.00     0.117 C 
HETATM   35  O3  UNL     1      21.400   3.019  49.269  1.00  0.00    -0.274 OA
HETATM   36  C19 UNL     1      24.852   5.641  48.847  1.00  0.00     0.142 C 
ENDBRANCH  26  28
ENDBRANCH   3  25
TORSDOF 7
ENDMDL
MODEL 9
REMARK VINA RESULT:      -8.4      1.623      2.407
REMARK  7 active torsions:
REMARK  status: ('A' for Active; 'I' for Inactive)
REMARK    1  A    between atoms: C2_2  and  C3_3 
REMARK       I    between atoms: C3_3  and  N1_5 
REMARK    2  A    between atoms: N1_5  and  C4_6 
REMARK    3  A    between atoms: C8_10  and  O2_11 
REMARK    4  A    between atoms: O2_11  and  C9_12 
REMARK    5  A    between atoms: C10_14  and  C11_15 
REMARK    6  A    between atoms: C12_16  and  N3_18 
REMARK       I    between atoms: N4_21  and  C16_22 
REMARK    7  A    between atoms: C21_29  and  C22_30 
ROOT
HETATM    1  C9  UNL     1      25.090   5.107  49.328  1.00  0.00     0.178 A 
HETATM    2  N2  UNL     1      26.343   4.875  49.045  1.00  0.00    -0.225 NA
HETATM    3  C10 UNL     1      27.214   5.879  48.549  1.00  0.00     0.076 A 
HETATM    4  C20 UNL     1      26.796   7.108  48.345  1.00  0.00     0.116 A 
HETATM    5  N5  UNL     1      25.425   7.349  48.650  1.00  0.00    -0.378 N 
HETATM    6  C21 UNL     1      24.420   6.448  49.174  1.00  0.00     0.267 A 
HETATM    7  H24 UNL     1      24.864   8.251  48.556  1.00  0.00     0.160 HD
ENDROOT
BRANCH   1   8
HETATM    8  O2  UNL     1      24.796   3.828  49.727  1.00  0.00    -0.293 OA
BRANCH   8   9
HETATM    9  C8  UNL     1      25.150   3.215  50.875  1.00  0.00     0.079 A 
HETATM   10  C7  UNL     1      24.199   3.481  51.885  1.00  0.00     0.037 A 
HETATM   11  C6  UNL     1      24.350   2.961  53.162  1.00  0.00     0.005 A 
HETATM   12  C5  UNL     1      25.432   2.175  53.474  1.00  0.00     0.029 A 
HETATM   13  C4  UNL     1      26.385   1.886  52.533  1.00  0.00     0.037 A 
HETATM   14  C23 UNL     1      26.190   2.421  51.285  1.00  0.00     0.066 A 
BRANCH  13  15
HETATM   15  N1  UNL     1      27.521   1.121  52.870  1.00  0.00    -0.324 N 
HETATM   16  C3  UNL     1      28.675   1.389  53.637  1.00  0.00     0.241 C 
HETATM   17  O1  UNL     1      28.767   2.532  54.126  1.00  0.00    -0.269 OA
HETATM   18  H4  UNL     1      27.550   0.129  52.485  1.00  0.00     0.169 HD
BRANCH  16  19
HETATM   19  C2  UNL     1      29.721   0.410  53.876  1.00  0.00     0.048 C 
HETATM   20  C1  UNL     1      29.748  -0.901  53.590  1.00  0.00     0.037 C 
ENDBRANCH  16  19
ENDBRANCH  13  15
ENDBRANCH   8   9
ENDBRANCH   1   8
BRANCH   6  21
HETATM   21  C22 UNL     1      23.828   6.979  50.459  1.00  0.00     0.415 C 
HETATM   22  F1  UNL     1      23.567   8.340  50.243  1.00  0.00    -0.168 F 
HETATM   23  F2  UNL     1      24.711   6.823  51.503  1.00  0.00    -0.168 F 
HETATM   24  F3  UNL     1      22.630   6.372  50.687  1.00  0.00    -0.168 F 
ENDBRANCH   6  21
BRANCH   3  25
HETATM   25  C11 UNL     1      28.635   5.763  48.169  1.00  0.00     0.057 C 
HETATM   26  C12 UNL     1      29.517   6.694  47.922  1.00  0.00     0.005 C 
HETATM   27  C13 UNL     1      30.906   6.231  47.556  1.00  0.00     0.068 C 
BRANCH  26  28
HETATM   28  N3  UNL     1      29.687   8.104  47.850  1.00  0.00    -0.381 N 
HETATM   29  C14 UNL     1      29.312   9.083  46.846  1.00  0.00     0.142 C 
HETATM   30  C15 UNL     1      30.508   9.819  46.278  1.00  0.00     0.145 C 
HETATM   31  N4  UNL     1      31.585   9.846  47.222  1.00  0.00    -0.349 N 
HETATM   32  C16 UNL     1      32.895   9.740  46.682  1.00  0.00     0.215 C 
HETATM   33  C18 UNL     1      31.115   9.990  48.582  1.00  0.00     0.145 C 
HETATM   34  C17 UNL     1      34.282   9.718  47.155  1.00  0.00     0.117 C 
HETATM   35  O3  UNL     1      32.752   9.638  45.436  1.00  0.00    -0.274 OA
HETATM   36  C19 UNL     1      30.376   8.748  48.977  1.00  0.00     0.142 C 
ENDBRANCH  26  28
ENDBRANCH   3  25
TORSDOF 7
ENDMDL
