MODEL 1
REMARK VINA RESULT:      -9.2      0.000      0.000
REMARK  3 active torsions:
REMARK  status: ('A' for Active; 'I' for Inactive)
REMARK    1  A    between atoms: O1_1  and  C1_2 
REMARK    2  A    between atoms: C3_5  and  N1_6 
REMARK    3  A    between atoms: C11_16  and  C12_17 
ROOT
HETATM    1  N1  UNL     1      25.405   1.571  52.282  1.00  0.00    -0.280 N 
HETATM    2  N2  UNL     1      24.848   1.328  53.526  1.00  0.00    -0.218 NA
HETATM    3  C4  UNL     1      24.405  -0.059  53.498  1.00  0.00     0.069 C 
HETATM    4  C5  UNL     1      23.024  -0.172  53.044  1.00  0.00     0.002 C 
HETATM    5  C6  UNL     1      21.867  -0.565  53.563  1.00  0.00    -0.002 C 
HETATM    6  C7  UNL     1      21.607  -1.069  54.929  1.00  0.00     0.201 C 
HETATM    7  O2  UNL     1      22.684  -1.775  55.458  1.00  0.00    -0.360 OA
HETATM    8  C8  UNL     1      23.983  -1.361  55.624  1.00  0.00     0.133 C 
HETATM    9  C9  UNL     1      24.727  -0.632  54.800  1.00  0.00     0.028 C 
HETATM   10  C10 UNL     1      25.290  -0.730  52.449  1.00  0.00     0.067 C 
HETATM   11  C11 UNL     1      26.187   0.385  51.997  1.00  0.00     0.140 C 
HETATM   12  H3  UNL     1      25.553   1.508  54.280  1.00  0.00     0.148 HD
ENDROOT
BRANCH   1  13
HETATM   13  C3  UNL     1      25.405   2.683  51.206  1.00  0.00     0.186 A 
HETATM   14  S1  UNL     1      24.108   3.646  50.388  1.00  0.00    -0.058 SA
HETATM   15  C2  UNL     1      25.254   4.617  49.348  1.00  0.00     0.111 A 
HETATM   16  C1  UNL     1      26.476   4.043  49.796  1.00  0.00     0.171 A 
HETATM   17  N3  UNL     1      26.783   3.093  50.689  1.00  0.00    -0.199 NA
BRANCH  16  18
HETATM   18  O1  UNL     1      27.775   4.390  49.347  1.00  0.00    -0.344 OA
HETATM   19  H1  UNL     1      28.408   3.700  49.000  1.00  0.00     0.219 HD
ENDBRANCH  16  18
ENDBRANCH   1  13
BRANCH  11  20
HETATM   20  C12 UNL     1      27.454   0.350  52.722  1.00  0.00    -0.034 A 
HETATM   21  C13 UNL     1      28.283   1.276  53.313  1.00  0.00     0.009 A 
HETATM   22  C14 UNL     1      29.455   0.922  53.941  1.00  0.00     0.001 A 
HETATM   23  C15 UNL     1      29.877  -0.388  54.018  1.00  0.00     0.000 A 
HETATM   24  C16 UNL     1      29.078  -1.349  53.439  1.00  0.00     0.001 A 
HETATM   25  C17 UNL     1      27.887  -0.981  52.803  1.00  0.00     0.009 A 
ENDBRANCH  11  20
TORSDOF 3
ENDMDL
MODEL 2
REMARK VINA RESULT:      -8.9      2.745      5.847
REMARK  3 active torsions:
REMARK  status: ('A' for Active; 'I' for Inactive)
REMARK    1  A    between atoms: O1_1  and  C1_2 
REMARK    2  A    between atoms: C3_5  and  N1_6 
REMARK    3  A    between atoms: C11_16  and  C12_17 
ROOT
HETATM    1  N1  UNL     1      25.440   1.950  52.928  1.00  0.00    -0.280 N 
HETATM    2  N2  UNL     1      24.766   3.149  53.083  1.00  0.00    -0.218 NA
HETATM    3  C4  UNL     1      24.104   3.400  51.810  1.00  0.00     0.069 C 
HETATM    4  C5  UNL     1      24.945   4.183  50.913  1.00  0.00     0.002 C 
HETATM    5  C6  UNL     1      24.901   5.386  50.354  1.00  0.00    -0.002 C 
HETATM    6  C7  UNL     1      23.850   6.417  50.495  1.00  0.00     0.201 C 
HETATM    7  O2  UNL     1      22.580   5.873  50.665  1.00  0.00    -0.360 OA
HETATM    8  C8  UNL     1      22.146   4.990  51.623  1.00  0.00     0.133 C 
HETATM    9  C9  UNL     1      22.782   3.935  52.120  1.00  0.00     0.028 C 
HETATM   10  C10 UNL     1      23.925   2.019  51.185  1.00  0.00     0.067 C 
HETATM   11  C11 UNL     1      24.505   1.099  52.218  1.00  0.00     0.140 C 
HETATM   12  H3  UNL     1      24.089   3.083  53.880  1.00  0.00     0.148 HD
ENDROOT
BRANCH   1  13
HETATM   13  C3  UNL     1      26.816   1.336  53.279  1.00  0.00     0.186 A 
HETATM   14  S1  UNL     1      27.564  -0.296  53.048  1.00  0.00    -0.058 SA
HETATM   15  C2  UNL     1      29.158   0.140  53.826  1.00  0.00     0.111 A 
HETATM   16  C1  UNL     1      28.866   1.495  54.148  1.00  0.00     0.171 A 
HETATM   17  N3  UNL     1      27.794   2.280  53.976  1.00  0.00    -0.199 NA
BRANCH  16  18
HETATM   18  O1  UNL     1      29.739   2.406  54.793  1.00  0.00    -0.344 OA
HETATM   19  H1  UNL     1      30.438   2.906  54.285  1.00  0.00     0.219 HD
ENDBRANCH  16  18
ENDBRANCH   1  13
BRANCH  11  20
HETATM   20  C12 UNL     1      23.453   0.567  53.080  1.00  0.00    -0.034 A 
HETATM   21  C13 UNL     1      22.107   0.795  53.256  1.00  0.00     0.009 A 
HETATM   22  C14 UNL     1      21.358   0.110  54.185  1.00  0.00     0.001 A 
HETATM   23  C15 UNL     1      21.910  -0.853  55.004  1.00  0.00     0.000 A 
HETATM   24  C16 UNL     1      23.255  -1.114  54.862  1.00  0.00     0.001 A 
HETATM   25  C17 UNL     1      24.009  -0.412  53.914  1.00  0.00     0.009 A 
ENDBRANCH  11  20
TORSDOF 3
ENDMDL
MODEL 3
REMARK VINA RESULT:      -8.7      2.782      4.994
REMARK  3 active torsions:
REMARK  status: ('A' for Active; 'I' for Inactive)
REMARK    1  A    between atoms: O1_1  and  C1_2 
REMARK    2  A    between atoms: C3_5  and  N1_6 
REMARK    3  A    between atoms: C11_16  and  C12_17 
ROOT
HETATM    1  N1  UNL     1      25.974   0.264  52.726  1.00  0.00    -0.280 N 
HETATM    2  N2  UNL     1      24.778  -0.219  52.225  1.00  0.00    -0.218 NA
HETATM    3  C4  UNL     1      23.732   0.408  53.022  1.00  0.00     0.069 C 
HETATM    4  C5  UNL     1      23.381  -0.404  54.181  1.00  0.00     0.002 C 
HETATM    5  C6  UNL     1      22.311  -1.066  54.607  1.00  0.00    -0.002 C 
HETATM    6  C7  UNL     1      20.994  -1.187  53.947  1.00  0.00     0.201 C 
HETATM    7  O2  UNL     1      20.649  -0.054  53.216  1.00  0.00    -0.360 OA
HETATM    8  C8  UNL     1      21.345   0.555  52.200  1.00  0.00     0.133 C 
HETATM    9  C9  UNL     1      22.654   0.759  52.104  1.00  0.00     0.028 C 
HETATM   10  C10 UNL     1      24.358   1.701  53.539  1.00  0.00     0.067 C 
HETATM   11  C11 UNL     1      25.733   1.678  52.939  1.00  0.00     0.140 C 
HETATM   12  H3  UNL     1      24.694   0.007  51.205  1.00  0.00     0.148 HD
ENDROOT
BRANCH   1  13
HETATM   13  C3  UNL     1      27.380  -0.268  53.092  1.00  0.00     0.186 A 
HETATM   14  S1  UNL     1      28.946   0.518  53.550  1.00  0.00    -0.058 SA
HETATM   15  C2  UNL     1      29.866  -1.047  53.746  1.00  0.00     0.111 A 
HETATM   16  C1  UNL     1      28.812  -1.948  53.424  1.00  0.00     0.171 A 
HETATM   17  N3  UNL     1      27.528  -1.789  53.077  1.00  0.00    -0.199 NA
BRANCH  16  18
HETATM   18  O1  UNL     1      28.902  -3.362  53.397  1.00  0.00    -0.344 OA
HETATM   19  H1  UNL     1      28.394  -3.929  54.043  1.00  0.00     0.219 HD
ENDBRANCH  16  18
ENDBRANCH   1  13
BRANCH  11  20
HETATM   20  C12 UNL     1      25.766   2.453  51.702  1.00  0.00    -0.034 A 
HETATM   21  C13 UNL     1      26.518   2.448  50.549  1.00  0.00     0.009 A 
HETATM   22  C14 UNL     1      26.302   3.341  49.524  1.00  0.00     0.001 A 
HETATM   23  C15 UNL     1      25.317   4.303  49.587  1.00  0.00     0.000 A 
HETATM   24  C16 UNL     1      24.540   4.346  50.724  1.00  0.00     0.001 A 
HETATM   25  C17 UNL     1      24.765   3.433  51.762  1.00  0.00     0.009 A 
ENDBRANCH  11  20
TORSDOF 3
ENDMDL
MODEL 4
REMARK VINA RESULT:      -8.6      2.046      4.838
REMARK  3 active torsions:
REMARK  status: ('A' for Active; 'I' for Inactive)
REMARK    1  A    between atoms: O1_1  and  C1_2 
REMARK    2  A    between atoms: C3_5  and  N1_6 
REMARK    3  A    between atoms: C11_16  and  C12_17 
ROOT
HETATM    1  N1  UNL     1      25.829   2.793  51.036  1.00  0.00    -0.280 N 
HETATM    2  N2  UNL     1      26.422   1.552  51.188  1.00  0.00    -0.218 NA
HETATM    3  C4  UNL     1      26.562   1.352  52.624  1.00  0.00     0.069 C 
HETATM    4  C5  UNL     1      27.847   1.839  53.111  1.00  0.00     0.002 C 
HETATM    5  C6  UNL     1      28.935   1.309  53.658  1.00  0.00    -0.002 C 
HETATM    6  C7  UNL     1      29.194  -0.111  53.975  1.00  0.00     0.201 C 
HETATM    7  O2  UNL     1      28.041  -0.805  54.330  1.00  0.00    -0.360 OA
HETATM    8  C8  UNL     1      26.875  -0.952  53.619  1.00  0.00     0.133 C 
HETATM    9  C9  UNL     1      26.235  -0.045  52.889  1.00  0.00     0.028 C 
HETATM   10  C10 UNL     1      25.474   2.223  53.246  1.00  0.00     0.067 C 
HETATM   11  C11 UNL     1      24.795   2.827  52.052  1.00  0.00     0.140 C 
HETATM   12  H3  UNL     1      25.835   0.811  50.736  1.00  0.00     0.148 HD
ENDROOT
BRANCH   1  13
HETATM   13  C3  UNL     1      25.973   4.048  50.144  1.00  0.00     0.186 A 
HETATM   14  S1  UNL     1      24.895   5.451  49.756  1.00  0.00    -0.058 SA
HETATM   15  C2  UNL     1      26.084   6.270  48.638  1.00  0.00     0.111 A 
HETATM   16  C1  UNL     1      27.144   5.326  48.736  1.00  0.00     0.171 A 
HETATM   17  N3  UNL     1      27.306   4.178  49.407  1.00  0.00    -0.199 NA
BRANCH  16  18
HETATM   18  O1  UNL     1      28.394   5.403  48.073  1.00  0.00    -0.344 OA
HETATM   19  H1  UNL     1      28.894   6.264  48.001  1.00  0.00     0.219 HD
ENDBRANCH  16  18
ENDBRANCH   1  13
BRANCH  11  20
HETATM   20  C12 UNL     1      23.613   2.052  51.687  1.00  0.00    -0.034 A 
HETATM   21  C13 UNL     1      22.955   1.737  50.519  1.00  0.00     0.009 A 
HETATM   22  C14 UNL     1      21.821   0.958  50.498  1.00  0.00     0.001 A 
HETATM   23  C15 UNL     1      21.268   0.441  51.650  1.00  0.00     0.000 A 
HETATM   24  C16 UNL     1      21.893   0.730  52.843  1.00  0.00     0.001 A 
HETATM   25  C17 UNL     1      23.046   1.523  52.855  1.00  0.00     0.009 A 
ENDBRANCH  11  20
TORSDOF 3
ENDMDL
MODEL 5
REMARK VINA RESULT:      -8.6      1.641      5.612
REMARK  3 active torsions:
REMARK  status: ('A' for Active; 'I' for Inactive)
REMARK    1  A    between atoms: O1_1  and  C1_2 
REMARK    2  A    between atoms: C3_5  and  N1_6 
REMARK    3  A    between atoms: C11_16  and  C12_17 
ROOT
HETATM    1  N1  UNL     1      24.462   0.852  52.660  1.00  0.00    -0.280 N 
HETATM    2  N2  UNL     1      24.812   1.258  51.384  1.00  0.00    -0.218 NA
HETATM    3  C4  UNL     1      25.281   2.631  51.519  1.00  0.00     0.069 C 
HETATM    4  C5  UNL     1      24.196   3.588  51.345  1.00  0.00     0.002 C 
HETATM    5  C6  UNL     1      23.882   4.542  50.476  1.00  0.00    -0.002 C 
HETATM    6  C7  UNL     1      24.638   4.967  49.278  1.00  0.00     0.201 C 
HETATM    7  O2  UNL     1      26.015   4.836  49.434  1.00  0.00    -0.360 OA
HETATM    8  C8  UNL     1      26.738   3.715  49.759  1.00  0.00     0.133 C 
HETATM    9  C9  UNL     1      26.439   2.768  50.643  1.00  0.00     0.028 C 
HETATM   10  C10 UNL     1      25.761   2.737  52.965  1.00  0.00     0.067 C 
HETATM   11  C11 UNL     1      25.525   1.358  53.506  1.00  0.00     0.140 C 
HETATM   12  H3  UNL     1      25.544   0.621  50.989  1.00  0.00     0.148 HD
ENDROOT
BRANCH   1  13
HETATM   13  C3  UNL     1      23.325   0.070  53.360  1.00  0.00     0.186 A 
HETATM   14  S1  UNL     1      21.543  -0.087  53.078  1.00  0.00    -0.058 SA
HETATM   15  C2  UNL     1      21.254  -1.230  54.473  1.00  0.00     0.111 A 
HETATM   16  C1  UNL     1      22.592  -1.316  54.949  1.00  0.00     0.171 A 
HETATM   17  N3  UNL     1      23.753  -0.771  54.561  1.00  0.00    -0.199 NA
BRANCH  16  18
HETATM   18  O1  UNL     1      23.036  -2.081  56.056  1.00  0.00    -0.344 OA
HETATM   19  H1  UNL     1      22.517  -2.115  56.908  1.00  0.00     0.219 HD
ENDBRANCH  16  18
ENDBRANCH   1  13
BRANCH  11  20
HETATM   20  C12 UNL     1      26.745   0.559  53.425  1.00  0.00    -0.034 A 
HETATM   21  C13 UNL     1      27.061  -0.733  53.072  1.00  0.00     0.009 A 
HETATM   22  C14 UNL     1      28.352  -1.211  53.103  1.00  0.00     0.001 A 
HETATM   23  C15 UNL     1      29.414  -0.423  53.492  1.00  0.00     0.000 A 
HETATM   24  C16 UNL     1      29.143   0.878  53.855  1.00  0.00     0.001 A 
HETATM   25  C17 UNL     1      27.828   1.356  53.820  1.00  0.00     0.009 A 
ENDBRANCH  11  20
TORSDOF 3
ENDMDL
MODEL 6
REMARK VINA RESULT:      -8.3      2.192      6.048
REMARK  3 active torsions:
REMARK  status: ('A' for Active; 'I' for Inactive)
REMARK    1  A    between atoms: O1_1  and  C1_2 
REMARK    2  A    between atoms: C3_5  and  N1_6 
REMARK    3  A    between atoms: C11_16  and  C12_17 
ROOT
HETATM    1  N1  UNL     1      24.088   1.366  52.936  1.00  0.00    -0.280 N 
HETATM    2  N2  UNL     1      25.171   1.699  53.731  1.00  0.00    -0.218 NA
HETATM    3  C4  UNL     1      26.352   1.265  52.996  1.00  0.00     0.069 C 
HETATM    4  C5  UNL     1      26.730  -0.098  53.345  1.00  0.00     0.002 C 
HETATM    5  C6  UNL     1      27.761  -0.693  53.933  1.00  0.00    -0.002 C 
HETATM    6  C7  UNL     1      28.985  -0.066  54.474  1.00  0.00     0.201 C 
HETATM    7  O2  UNL     1      29.372   1.067  53.764  1.00  0.00    -0.360 OA
HETATM    8  C8  UNL     1      28.646   2.202  53.499  1.00  0.00     0.133 C 
HETATM    9  C9  UNL     1      27.362   2.303  53.172  1.00  0.00     0.028 C 
HETATM   10  C10 UNL     1      25.919   1.263  51.532  1.00  0.00     0.067 C 
HETATM   11  C11 UNL     1      24.497   1.735  51.595  1.00  0.00     0.140 C 
HETATM   12  H3  UNL     1      25.175   2.729  53.925  1.00  0.00     0.148 HD
ENDROOT
BRANCH   1  13
HETATM   13  C3  UNL     1      22.678   0.748  53.092  1.00  0.00     0.186 A 
HETATM   14  S1  UNL     1      21.079   1.038  52.293  1.00  0.00    -0.058 SA
HETATM   15  C2  UNL     1      20.181  -0.230  53.253  1.00  0.00     0.111 A 
HETATM   16  C1  UNL     1      21.265  -0.688  54.053  1.00  0.00     0.171 A 
HETATM   17  N3  UNL     1      22.560  -0.355  54.142  1.00  0.00    -0.199 NA
BRANCH  16  18
HETATM   18  O1  UNL     1      21.204  -1.706  55.037  1.00  0.00    -0.344 OA
HETATM   19  H1  UNL     1      21.156  -1.489  56.010  1.00  0.00     0.219 HD
ENDBRANCH  16  18
ENDBRANCH   1  13
BRANCH  11  20
HETATM   20  C12 UNL     1      24.421   3.173  51.353  1.00  0.00    -0.034 A 
HETATM   21  C13 UNL     1      23.735   4.235  51.897  1.00  0.00     0.009 A 
HETATM   22  C14 UNL     1      23.879   5.522  51.432  1.00  0.00     0.001 A 
HETATM   23  C15 UNL     1      24.723   5.832  50.387  1.00  0.00     0.000 A 
HETATM   24  C16 UNL     1      25.430   4.799  49.811  1.00  0.00     0.001 A 
HETATM   25  C17 UNL     1      25.278   3.493  50.290  1.00  0.00     0.009 A 
ENDBRANCH  11  20
TORSDOF 3
ENDMDL
MODEL 7
REMARK VINA RESULT:      -8.0      1.658      2.012
REMARK  3 active torsions:
REMARK  status: ('A' for Active; 'I' for Inactive)
REMARK    1  A    between atoms: O1_1  and  C1_2 
REMARK    2  A    between atoms: C3_5  and  N1_6 
REMARK    3  A    between atoms: C11_16  and  C12_17 
ROOT
HETATM    1  N1  UNL     1      24.764   1.967  52.551  1.00  0.00    -0.280 N 
HETATM    2  N2  UNL     1      24.110   1.519  53.685  1.00  0.00    -0.218 NA
HETATM    3  C4  UNL     1      23.801   0.117  53.438  1.00  0.00     0.069 C 
HETATM    4  C5  UNL     1      22.489  -0.043  52.823  1.00  0.00     0.002 C 
HETATM    5  C6  UNL     1      21.327  -0.591  53.158  1.00  0.00    -0.002 C 
HETATM    6  C7  UNL     1      20.979  -1.289  54.414  1.00  0.00     0.201 C 
HETATM    7  O2  UNL     1      22.057  -1.973  54.969  1.00  0.00    -0.360 OA
HETATM    8  C8  UNL     1      23.289  -1.483  55.328  1.00  0.00     0.133 C 
HETATM    9  C9  UNL     1      24.043  -0.595  54.687  1.00  0.00     0.028 C 
HETATM   10  C10 UNL     1      24.845  -0.338  52.420  1.00  0.00     0.067 C 
HETATM   11  C11 UNL     1      25.676   0.893  52.210  1.00  0.00     0.140 C 
HETATM   12  H3  UNL     1      24.716   1.652  54.529  1.00  0.00     0.148 HD
ENDROOT
BRANCH   1  13
HETATM   13  C3  UNL     1      24.769   3.208  51.626  1.00  0.00     0.186 A 
HETATM   14  S1  UNL     1      25.604   3.620  50.073  1.00  0.00    -0.058 SA
HETATM   15  C2  UNL     1      24.875   5.288  49.930  1.00  0.00     0.111 A 
HETATM   16  C1  UNL     1      24.089   5.272  51.116  1.00  0.00     0.171 A 
HETATM   17  N3  UNL     1      23.888   4.369  52.085  1.00  0.00    -0.199 NA
BRANCH  16  18
HETATM   18  O1  UNL     1      23.259   6.323  51.581  1.00  0.00    -0.344 OA
HETATM   19  H1  UNL     1      23.600   7.016  52.213  1.00  0.00     0.219 HD
ENDBRANCH  16  18
ENDBRANCH   1  13
BRANCH  11  20
HETATM   20  C12 UNL     1      26.862   0.863  53.062  1.00  0.00    -0.034 A 
HETATM   21  C13 UNL     1      27.468  -0.062  53.883  1.00  0.00     0.009 A 
HETATM   22  C14 UNL     1      28.620   0.218  54.583  1.00  0.00     0.001 A 
HETATM   23  C15 UNL     1      29.242   1.446  54.508  1.00  0.00     0.000 A 
HETATM   24  C16 UNL     1      28.669   2.402  53.698  1.00  0.00     0.001 A 
HETATM   25  C17 UNL     1      27.498   2.109  52.989  1.00  0.00     0.009 A 
ENDBRANCH  11  20
TORSDOF 3
ENDMDL
MODEL 8
REMARK VINA RESULT:      -7.7      2.897      6.699
REMARK  3 active torsions:
REMARK  status: ('A' for Active; 'I' for Inactive)
REMARK    1  A    between atoms: O1_1  and  C1_2 
REMARK    2  A    between atoms: C3_5  and  N1_6 
REMARK    3  A    between atoms: C11_16  and  C12_17 
ROOT
HETATM    1  N1  UNL     1      24.607   2.679  52.569  1.00  0.00    -0.280 N 
HETATM    2  N2  UNL     1      23.896   3.844  52.801  1.00  0.00    -0.218 NA
HETATM    3  C4  UNL     1      23.525   4.351  51.486  1.00  0.00     0.069 C 
HETATM    4  C5  UNL     1      24.530   5.267  50.961  1.00  0.00     0.002 C 
HETATM    5  C6  UNL     1      24.590   6.555  50.646  1.00  0.00    -0.002 C 
HETATM    6  C7  UNL     1      23.518   7.568  50.750  1.00  0.00     0.201 C 
HETATM    7  O2  UNL     1      22.250   7.036  50.532  1.00  0.00    -0.360 OA
HETATM    8  C8  UNL     1      21.631   5.999  51.185  1.00  0.00     0.133 C 
HETATM    9  C9  UNL     1      22.160   4.851  51.597  1.00  0.00     0.028 C 
HETATM   10  C10 UNL     1      23.510   3.118  50.584  1.00  0.00     0.067 C 
HETATM   11  C11 UNL     1      23.864   2.004  51.524  1.00  0.00     0.140 C 
HETATM   12  H3  UNL     1      23.063   3.646  53.404  1.00  0.00     0.148 HD
ENDROOT
BRANCH   1  13
HETATM   13  C3  UNL     1      25.882   1.973  53.088  1.00  0.00     0.186 A 
HETATM   14  S1  UNL     1      27.652   2.158  52.750  1.00  0.00    -0.058 SA
HETATM   15  C2  UNL     1      28.179   0.839  53.898  1.00  0.00     0.111 A 
HETATM   16  C1  UNL     1      26.894   0.453  54.372  1.00  0.00     0.171 A 
HETATM   17  N3  UNL     1      25.646   0.867  54.115  1.00  0.00    -0.199 NA
BRANCH  16  18
HETATM   18  O1  UNL     1      26.626  -0.564  55.322  1.00  0.00    -0.344 OA
HETATM   19  H1  UNL     1      27.361  -1.023  55.816  1.00  0.00     0.219 HD
ENDBRANCH  16  18
ENDBRANCH   1  13
BRANCH  11  20
HETATM   20  C12 UNL     1      22.657   1.346  52.017  1.00  0.00    -0.034 A 
HETATM   21  C13 UNL     1      22.199   0.901  53.237  1.00  0.00     0.009 A 
HETATM   22  C14 UNL     1      20.973   0.295  53.388  1.00  0.00     0.001 A 
HETATM   23  C15 UNL     1      20.121   0.092  52.323  1.00  0.00     0.000 A 
HETATM   24  C16 UNL     1      20.539   0.521  51.082  1.00  0.00     0.001 A 
HETATM   25  C17 UNL     1      21.788   1.137  50.938  1.00  0.00     0.009 A 
ENDBRANCH  11  20
TORSDOF 3
ENDMDL
MODEL 9
REMARK VINA RESULT:      -7.7      2.531      3.094
REMARK  3 active torsions:
REMARK  status: ('A' for Active; 'I' for Inactive)
REMARK    1  A    between atoms: O1_1  and  C1_2 
REMARK    2  A    between atoms: C3_5  and  N1_6 
REMARK    3  A    between atoms: C11_16  and  C12_17 
ROOT
HETATM    1  N1  UNL     1      22.832   2.564  52.149  1.00  0.00    -0.280 N 
HETATM    2  N2  UNL     1      22.105   1.971  53.166  1.00  0.00    -0.218 NA
HETATM    3  C4  UNL     1      21.766   0.637  52.686  1.00  0.00     0.069 C 
HETATM    4  C5  UNL     1      20.484   0.627  51.992  1.00  0.00     0.002 C 
HETATM    5  C6  UNL     1      19.289   0.080  52.181  1.00  0.00    -0.002 C 
HETATM    6  C7  UNL     1      18.853  -0.791  53.293  1.00  0.00     0.201 C 
HETATM    7  O2  UNL     1      19.879  -1.595  53.784  1.00  0.00    -0.360 OA
HETATM    8  C8  UNL     1      21.105  -1.217  54.274  1.00  0.00     0.133 C 
HETATM    9  C9  UNL     1      21.918  -0.270  53.818  1.00  0.00     0.028 C 
HETATM   10  C10 UNL     1      22.847   0.306  51.660  1.00  0.00     0.067 C 
HETATM   11  C11 UNL     1      23.727   1.522  51.688  1.00  0.00     0.140 C 
HETATM   12  H3  UNL     1      22.669   1.947  54.049  1.00  0.00     0.148 HD
ENDROOT
BRANCH   1  13
HETATM   13  C3  UNL     1      22.925   3.932  51.433  1.00  0.00     0.186 A 
HETATM   14  S1  UNL     1      22.289   4.583  49.868  1.00  0.00    -0.058 SA
HETATM   15  C2  UNL     1      23.004   6.251  50.078  1.00  0.00     0.111 A 
HETATM   16  C1  UNL     1      23.631   6.048  51.339  1.00  0.00     0.171 A 
HETATM   17  N3  UNL     1      23.722   5.005  52.175  1.00  0.00    -0.199 NA
BRANCH  16  18
HETATM   18  O1  UNL     1      24.378   7.011  52.063  1.00  0.00    -0.344 OA
HETATM   19  H1  UNL     1      25.228   7.391  51.702  1.00  0.00     0.219 HD
ENDBRANCH  16  18
ENDBRANCH   1  13
BRANCH  11  20
HETATM   20  C12 UNL     1      24.864   1.312  52.579  1.00  0.00    -0.034 A 
HETATM   21  C13 UNL     1      25.518   2.049  53.541  1.00  0.00     0.009 A 
HETATM   22  C14 UNL     1      26.602   1.559  54.234  1.00  0.00     0.001 A 
HETATM   23  C15 UNL     1      27.104   0.295  54.009  1.00  0.00     0.000 A 
HETATM   24  C16 UNL     1      26.481  -0.477  53.054  1.00  0.00     0.001 A 
HETATM   25  C17 UNL     1      25.379   0.028  52.354  1.00  0.00     0.009 A 
ENDBRANCH  11  20
TORSDOF 3
ENDMDL
