MODEL 1
REMARK VINA RESULT:      -8.4      0.000      0.000
REMARK  8 active torsions:
REMARK  status: ('A' for Active; 'I' for Inactive)
REMARK    1  A    between atoms: C3_4  and  S1_5 
REMARK    2  A    between atoms: S1_5  and  C4_6 
REMARK    3  A    between atoms: C4_6  and  C5_7 
REMARK    4  A    between atoms: C11_14  and  C12_15 
REMARK    5  A    between atoms: C15_18  and  O1_19 
REMARK    6  A    between atoms: C17_21  and  O2_22 
REMARK    7  A    between atoms: C18_23  and  C19_24 
REMARK    8  A    between atoms: C19_24  and  N3_25 
ROOT
HETATM    1  C1  UNL     1      27.164  -1.378  52.461  1.00  0.00     0.066 C 
HETATM    2  C2  UNL     1      26.204  -0.252  52.511  1.00  0.00     0.019 A 
HETATM    3  N1  UNL     1      26.318   0.625  51.575  1.00  0.00    -0.232 NA
HETATM    4  C3  UNL     1      25.433   1.728  51.557  1.00  0.00     0.184 A 
HETATM    5  N2  UNL     1      24.590   1.740  52.490  1.00  0.00    -0.254 NA
HETATM    6  C11 UNL     1      24.330   0.871  53.576  1.00  0.00     0.158 A 
HETATM    7  C18 UNL     1      25.256  -0.284  53.637  1.00  0.00     0.085 A 
ENDROOT
BRANCH   6   8
HETATM    8  C12 UNL     1      22.892   0.444  53.565  1.00  0.00     0.001 A 
HETATM    9  C13 UNL     1      22.636  -0.830  54.088  1.00  0.00     0.015 A 
HETATM   10  C14 UNL     1      21.366  -1.365  54.149  1.00  0.00     0.037 A 
HETATM   11  C15 UNL     1      20.336  -0.584  53.666  1.00  0.00     0.068 A 
HETATM   12  C16 UNL     1      20.547   0.675  53.144  1.00  0.00     0.073 A 
HETATM   13  C17 UNL     1      21.832   1.188  53.095  1.00  0.00     0.076 A 
BRANCH  11  14
HETATM   14  O1  UNL     1      19.040  -1.101  53.716  1.00  0.00    -0.361 OA
HETATM   15  H14 UNL     1      18.337  -0.656  54.316  1.00  0.00     0.217 HD
ENDBRANCH  11  14
BRANCH  13  16
HETATM   16  O2  UNL     1      22.129   2.444  52.585  1.00  0.00    -0.360 OA
HETATM   17  H16 UNL     1      21.409   2.916  52.024  1.00  0.00     0.217 HD
ENDBRANCH  13  16
ENDBRANCH   6   8
BRANCH   7  18
HETATM   18  C19 UNL     1      25.983  -0.384  54.964  1.00  0.00     0.195 C 
BRANCH  18  19
HETATM   19  N3  UNL     1      26.783   0.781  55.130  1.00  0.00    -0.140 NA
HETATM   20  O3  UNL     1      27.957   0.650  55.283  1.00  0.00    -0.067 OA
ENDBRANCH  18  19
ENDBRANCH   7  18
BRANCH   4  21
HETATM   21  S1  UNL     1      25.233   3.130  50.497  1.00  0.00    -0.086 SA
BRANCH  21  22
HETATM   22  C4  UNL     1      26.659   3.305  49.411  1.00  0.00     0.121 C 
BRANCH  22  23
HETATM   23  C5  UNL     1      26.751   4.712  48.967  1.00  0.00    -0.049 A 
HETATM   24  C6  UNL     1      25.801   5.706  48.907  1.00  0.00     0.008 A 
HETATM   25  C7  UNL     1      26.103   6.951  48.448  1.00  0.00     0.001 A 
HETATM   26  C8  UNL     1      27.344   7.301  48.020  1.00  0.00     0.000 A 
HETATM   27  C9  UNL     1      28.327   6.342  48.062  1.00  0.00     0.001 A 
HETATM   28  C10 UNL     1      28.029   5.068  48.529  1.00  0.00     0.008 A 
ENDBRANCH  22  23
ENDBRANCH  21  22
ENDBRANCH   4  21
TORSDOF 8
ENDMDL
MODEL 2
REMARK VINA RESULT:      -8.3      1.878      4.488
REMARK  8 active torsions:
REMARK  status: ('A' for Active; 'I' for Inactive)
REMARK    1  A    between atoms: C3_4  and  S1_5 
REMARK    2  A    between atoms: S1_5  and  C4_6 
REMARK    3  A    between atoms: C4_6  and  C5_7 
REMARK    4  A    between atoms: C11_14  and  C12_15 
REMARK    5  A    between atoms: C15_18  and  O1_19 
REMARK    6  A    between atoms: C17_21  and  O2_22 
REMARK    7  A    between atoms: C18_23  and  C19_24 
REMARK    8  A    between atoms: C19_24  and  N3_25 
ROOT
HETATM    1  C1  UNL     1      20.635   1.719  53.370  1.00  0.00     0.066 C 
HETATM    2  C2  UNL     1      21.855   1.652  52.532  1.00  0.00     0.019 A 
HETATM    3  N1  UNL     1      21.908   2.481  51.549  1.00  0.00    -0.232 NA
HETATM    4  C3  UNL     1      23.043   2.476  50.707  1.00  0.00     0.184 A 
HETATM    5  N2  UNL     1      23.922   1.631  51.016  1.00  0.00    -0.254 NA
HETATM    6  C11 UNL     1      24.022   0.666  52.046  1.00  0.00     0.158 A 
HETATM    7  C18 UNL     1      22.836   0.631  52.933  1.00  0.00     0.085 A 
ENDROOT
BRANCH   6   8
HETATM    8  C12 UNL     1      25.298   0.857  52.813  1.00  0.00     0.001 A 
HETATM    9  C13 UNL     1      26.075  -0.295  52.989  1.00  0.00     0.015 A 
HETATM   10  C14 UNL     1      27.274  -0.283  53.671  1.00  0.00     0.037 A 
HETATM   11  C15 UNL     1      27.688   0.929  54.185  1.00  0.00     0.068 A 
HETATM   12  C16 UNL     1      26.951   2.085  54.032  1.00  0.00     0.073 A 
HETATM   13  C17 UNL     1      25.751   2.045  53.343  1.00  0.00     0.076 A 
BRANCH  11  14
HETATM   14  O1  UNL     1      28.898   0.970  54.879  1.00  0.00    -0.361 OA
HETATM   15  H14 UNL     1      29.715   1.423  54.453  1.00  0.00     0.217 HD
ENDBRANCH  11  14
BRANCH  13  16
HETATM   16  O2  UNL     1      24.950   3.162  53.147  1.00  0.00    -0.360 OA
HETATM   17  H16 UNL     1      24.030   3.021  52.712  1.00  0.00     0.217 HD
ENDBRANCH  13  16
ENDBRANCH   6   8
BRANCH   7  18
HETATM   18  C19 UNL     1      22.199  -0.744  53.007  1.00  0.00     0.195 C 
BRANCH  18  19
HETATM   19  N3  UNL     1      22.429  -1.280  54.305  1.00  0.00    -0.140 NA
HETATM   20  O3  UNL     1      21.490  -1.510  55.001  1.00  0.00    -0.067 OA
ENDBRANCH  18  19
ENDBRANCH   7  18
BRANCH   4  21
HETATM   21  S1  UNL     1      23.526   3.407  49.282  1.00  0.00    -0.086 SA
BRANCH  21  22
HETATM   22  C4  UNL     1      23.945   5.096  49.748  1.00  0.00     0.121 C 
BRANCH  22  23
HETATM   23  C5  UNL     1      25.298   5.408  49.242  1.00  0.00    -0.049 A 
HETATM   24  C6  UNL     1      25.805   6.545  48.656  1.00  0.00     0.008 A 
HETATM   25  C7  UNL     1      27.101   6.617  48.247  1.00  0.00     0.001 A 
HETATM   26  C8  UNL     1      27.978   5.588  48.382  1.00  0.00     0.000 A 
HETATM   27  C9  UNL     1      27.518   4.431  48.962  1.00  0.00     0.001 A 
HETATM   28  C10 UNL     1      26.197   4.347  49.383  1.00  0.00     0.008 A 
ENDBRANCH  22  23
ENDBRANCH  21  22
ENDBRANCH   4  21
TORSDOF 8
ENDMDL
MODEL 3
REMARK VINA RESULT:      -8.2      3.076      6.558
REMARK  8 active torsions:
REMARK  status: ('A' for Active; 'I' for Inactive)
REMARK    1  A    between atoms: C3_4  and  S1_5 
REMARK    2  A    between atoms: S1_5  and  C4_6 
REMARK    3  A    between atoms: C4_6  and  C5_7 
REMARK    4  A    between atoms: C11_14  and  C12_15 
REMARK    5  A    between atoms: C15_18  and  O1_19 
REMARK    6  A    between atoms: C17_21  and  O2_22 
REMARK    7  A    between atoms: C18_23  and  C19_24 
REMARK    8  A    between atoms: C19_24  and  N3_25 
ROOT
HETATM    1  C1  UNL     1      20.262   0.699  50.992  1.00  0.00     0.066 C 
HETATM    2  C2  UNL     1      21.535   1.122  51.622  1.00  0.00     0.019 A 
HETATM    3  N1  UNL     1      22.258   0.178  52.116  1.00  0.00    -0.232 NA
HETATM    4  C3  UNL     1      23.488   0.507  52.731  1.00  0.00     0.184 A 
HETATM    5  N2  UNL     1      23.763   1.734  52.733  1.00  0.00    -0.254 NA
HETATM    6  C11 UNL     1      23.095   2.880  52.241  1.00  0.00     0.158 A 
HETATM    7  C18 UNL     1      21.790   2.572  51.609  1.00  0.00     0.085 A 
ENDROOT
BRANCH   6   8
HETATM    8  C12 UNL     1      23.997   3.654  51.326  1.00  0.00     0.001 A 
HETATM    9  C13 UNL     1      24.893   2.889  50.570  1.00  0.00     0.015 A 
HETATM   10  C14 UNL     1      25.786   3.452  49.683  1.00  0.00     0.037 A 
HETATM   11  C15 UNL     1      25.765   4.828  49.566  1.00  0.00     0.068 A 
HETATM   12  C16 UNL     1      24.898   5.616  50.293  1.00  0.00     0.073 A 
HETATM   13  C17 UNL     1      24.012   5.024  51.176  1.00  0.00     0.076 A 
BRANCH  11  14
HETATM   14  O1  UNL     1      26.658   5.426  48.676  1.00  0.00    -0.361 OA
HETATM   15  H14 UNL     1      27.566   5.764  49.014  1.00  0.00     0.217 HD
ENDBRANCH  11  14
BRANCH  13  16
HETATM   16  O2  UNL     1      23.109   5.745  51.945  1.00  0.00    -0.360 OA
HETATM   17  H16 UNL     1      23.463   6.208  52.791  1.00  0.00     0.217 HD
ENDBRANCH  13  16
ENDBRANCH   6   8
BRANCH   7  18
HETATM   18  C19 UNL     1      20.640   3.337  52.235  1.00  0.00     0.195 C 
BRANCH  18  19
HETATM   19  N3  UNL     1      20.293   4.416  51.374  1.00  0.00    -0.140 NA
HETATM   20  O3  UNL     1      20.736   4.428  50.268  1.00  0.00    -0.067 OA
ENDBRANCH  18  19
ENDBRANCH   7  18
BRANCH   4  21
HETATM   21  S1  UNL     1      24.762  -0.434  53.520  1.00  0.00    -0.086 SA
BRANCH  21  22
HETATM   22  C4  UNL     1      26.236  -0.485  52.486  1.00  0.00     0.121 C 
BRANCH  22  23
HETATM   23  C5  UNL     1      27.245   0.438  53.049  1.00  0.00    -0.049 A 
HETATM   24  C6  UNL     1      27.477   1.774  52.819  1.00  0.00     0.008 A 
HETATM   25  C7  UNL     1      28.484   2.439  53.448  1.00  0.00     0.001 A 
HETATM   26  C8  UNL     1      29.324   1.843  54.334  1.00  0.00     0.000 A 
HETATM   27  C9  UNL     1      29.132   0.509  54.596  1.00  0.00     0.001 A 
HETATM   28  C10 UNL     1      28.107  -0.179  53.960  1.00  0.00     0.008 A 
ENDBRANCH  22  23
ENDBRANCH  21  22
ENDBRANCH   4  21
TORSDOF 8
ENDMDL
MODEL 4
REMARK VINA RESULT:      -8.2      3.027      7.217
REMARK  8 active torsions:
REMARK  status: ('A' for Active; 'I' for Inactive)
REMARK    1  A    between atoms: C3_4  and  S1_5 
REMARK    2  A    between atoms: S1_5  and  C4_6 
REMARK    3  A    between atoms: C4_6  and  C5_7 
REMARK    4  A    between atoms: C11_14  and  C12_15 
REMARK    5  A    between atoms: C15_18  and  O1_19 
REMARK    6  A    between atoms: C17_21  and  O2_22 
REMARK    7  A    between atoms: C18_23  and  C19_24 
REMARK    8  A    between atoms: C19_24  and  N3_25 
ROOT
HETATM    1  C1  UNL     1      23.227   3.180  47.891  1.00  0.00     0.066 C 
HETATM    2  C2  UNL     1      23.310   3.178  49.370  1.00  0.00     0.019 A 
HETATM    3  N1  UNL     1      22.185   3.210  49.996  1.00  0.00    -0.232 NA
HETATM    4  C3  UNL     1      22.186   3.209  51.409  1.00  0.00     0.184 A 
HETATM    5  N2  UNL     1      23.329   3.172  51.933  1.00  0.00    -0.254 NA
HETATM    6  C11 UNL     1      24.639   3.130  51.404  1.00  0.00     0.158 A 
HETATM    7  C18 UNL     1      24.674   3.153  49.923  1.00  0.00     0.085 A 
ENDROOT
BRANCH   6   8
HETATM    8  C12 UNL     1      25.390   1.960  51.969  1.00  0.00     0.001 A 
HETATM    9  C13 UNL     1      24.606   0.864  52.347  1.00  0.00     0.015 A 
HETATM   10  C14 UNL     1      25.147  -0.287  52.881  1.00  0.00     0.037 A 
HETATM   11  C15 UNL     1      26.519  -0.318  53.033  1.00  0.00     0.068 A 
HETATM   12  C16 UNL     1      27.326   0.740  52.673  1.00  0.00     0.073 A 
HETATM   13  C17 UNL     1      26.756   1.883  52.138  1.00  0.00     0.076 A 
BRANCH  11  14
HETATM   14  O1  UNL     1      27.094  -1.471  53.571  1.00  0.00    -0.361 OA
HETATM   15  H14 UNL     1      26.498  -2.178  54.017  1.00  0.00     0.217 HD
ENDBRANCH  11  14
BRANCH  13  16
HETATM   16  O2  UNL     1      27.496   2.992  51.752  1.00  0.00    -0.360 OA
HETATM   17  H16 UNL     1      27.432   3.292  50.772  1.00  0.00     0.217 HD
ENDBRANCH  13  16
ENDBRANCH   6   8
BRANCH   7  18
HETATM   18  C19 UNL     1      25.509   4.294  49.373  1.00  0.00     0.195 C 
BRANCH  18  19
HETATM   19  N3  UNL     1      26.806   3.797  49.063  1.00  0.00    -0.140 NA
HETATM   20  O3  UNL     1      27.732   4.544  49.121  1.00  0.00    -0.067 OA
ENDBRANCH  18  19
ENDBRANCH   7  18
BRANCH   4  21
HETATM   21  S1  UNL     1      20.919   3.247  52.643  1.00  0.00    -0.086 SA
BRANCH  21  22
HETATM   22  C4  UNL     1      19.813   1.839  52.451  1.00  0.00     0.121 C 
BRANCH  22  23
HETATM   23  C5  UNL     1      20.362   0.695  53.210  1.00  0.00    -0.049 A 
HETATM   24  C6  UNL     1      21.515   0.570  53.950  1.00  0.00     0.008 A 
HETATM   25  C7  UNL     1      21.840  -0.598  54.570  1.00  0.00     0.001 A 
HETATM   26  C8  UNL     1      21.063  -1.711  54.504  1.00  0.00     0.000 A 
HETATM   27  C9  UNL     1      19.901  -1.635  53.777  1.00  0.00     0.001 A 
HETATM   28  C10 UNL     1      19.560  -0.448  53.141  1.00  0.00     0.008 A 
ENDBRANCH  22  23
ENDBRANCH  21  22
ENDBRANCH   4  21
TORSDOF 8
ENDMDL
MODEL 5
REMARK VINA RESULT:      -8.0      3.942      8.501
REMARK  8 active torsions:
REMARK  status: ('A' for Active; 'I' for Inactive)
REMARK    1  A    between atoms: C3_4  and  S1_5 
REMARK    2  A    between atoms: S1_5  and  C4_6 
REMARK    3  A    between atoms: C4_6  and  C5_7 
REMARK    4  A    between atoms: C11_14  and  C12_15 
REMARK    5  A    between atoms: C15_18  and  O1_19 
REMARK    6  A    between atoms: C17_21  and  O2_22 
REMARK    7  A    between atoms: C18_23  and  C19_24 
REMARK    8  A    between atoms: C19_24  and  N3_25 
ROOT
HETATM    1  C1  UNL     1      21.895   1.355  48.633  1.00  0.00     0.066 C 
HETATM    2  C2  UNL     1      21.824   1.296  50.111  1.00  0.00     0.019 A 
HETATM    3  N1  UNL     1      20.862   0.593  50.600  1.00  0.00    -0.232 NA
HETATM    4  C3  UNL     1      20.733   0.489  52.004  1.00  0.00     0.184 A 
HETATM    5  N2  UNL     1      21.604   1.116  52.659  1.00  0.00    -0.254 NA
HETATM    6  C11 UNL     1      22.709   1.918  52.288  1.00  0.00     0.158 A 
HETATM    7  C18 UNL     1      22.859   2.066  50.821  1.00  0.00     0.085 A 
ENDROOT
BRANCH   6   8
HETATM    8  C12 UNL     1      23.962   1.408  52.936  1.00  0.00     0.001 A 
HETATM    9  C13 UNL     1      24.049   0.017  53.074  1.00  0.00     0.015 A 
HETATM   10  C14 UNL     1      25.138  -0.605  53.647  1.00  0.00     0.037 A 
HETATM   11  C15 UNL     1      26.159   0.210  54.092  1.00  0.00     0.068 A 
HETATM   12  C16 UNL     1      26.111   1.583  53.975  1.00  0.00     0.073 A 
HETATM   13  C17 UNL     1      25.007   2.182  53.394  1.00  0.00     0.076 A 
BRANCH  11  14
HETATM   14  O1  UNL     1      27.274  -0.393  54.677  1.00  0.00    -0.361 OA
HETATM   15  H14 UNL     1      28.114  -0.568  54.113  1.00  0.00     0.217 HD
ENDBRANCH  11  14
BRANCH  13  16
HETATM   16  O2  UNL     1      24.880   3.555  53.240  1.00  0.00    -0.360 OA
HETATM   17  H16 UNL     1      24.923   3.936  52.287  1.00  0.00     0.217 HD
ENDBRANCH  13  16
ENDBRANCH   6   8
BRANCH   7  18
HETATM   18  C19 UNL     1      22.868   3.515  50.375  1.00  0.00     0.195 C 
BRANCH  18  19
HETATM   19  N3  UNL     1      24.214   3.905  50.130  1.00  0.00    -0.140 NA
HETATM   20  O3  UNL     1      24.685   4.777  50.790  1.00  0.00    -0.067 OA
ENDBRANCH  18  19
ENDBRANCH   7  18
BRANCH   4  21
HETATM   21  S1  UNL     1      19.599  -0.340  53.080  1.00  0.00    -0.086 SA
BRANCH  21  22
HETATM   22  C4  UNL     1      17.918  -0.194  52.452  1.00  0.00     0.121 C 
BRANCH  22  23
HETATM   23  C5  UNL     1      17.216  -1.478  52.666  1.00  0.00    -0.049 A 
HETATM   24  C6  UNL     1      15.984  -1.918  52.239  1.00  0.00     0.008 A 
HETATM   25  C7  UNL     1      15.519  -3.155  52.565  1.00  0.00     0.001 A 
HETATM   26  C8  UNL     1      16.224  -4.034  53.324  1.00  0.00     0.000 A 
HETATM   27  C9  UNL     1      17.460  -3.640  53.773  1.00  0.00     0.001 A 
HETATM   28  C10 UNL     1      17.944  -2.379  53.447  1.00  0.00     0.008 A 
ENDBRANCH  22  23
ENDBRANCH  21  22
ENDBRANCH   4  21
TORSDOF 8
ENDMDL
MODEL 6
REMARK VINA RESULT:      -8.0      1.600      2.147
REMARK  8 active torsions:
REMARK  status: ('A' for Active; 'I' for Inactive)
REMARK    1  A    between atoms: C3_4  and  S1_5 
REMARK    2  A    between atoms: S1_5  and  C4_6 
REMARK    3  A    between atoms: C4_6  and  C5_7 
REMARK    4  A    between atoms: C11_14  and  C12_15 
REMARK    5  A    between atoms: C15_18  and  O1_19 
REMARK    6  A    between atoms: C17_21  and  O2_22 
REMARK    7  A    between atoms: C18_23  and  C19_24 
REMARK    8  A    between atoms: C19_24  and  N3_25 
ROOT
HETATM    1  C1  UNL     1      26.806   0.209  51.695  1.00  0.00     0.066 C 
HETATM    2  C2  UNL     1      25.669   1.097  52.029  1.00  0.00     0.019 A 
HETATM    3  N1  UNL     1      25.657   2.242  51.439  1.00  0.00    -0.232 NA
HETATM    4  C3  UNL     1      24.600   3.141  51.707  1.00  0.00     0.184 A 
HETATM    5  N2  UNL     1      23.744   2.716  52.525  1.00  0.00    -0.254 NA
HETATM    6  C11 UNL     1      23.606   1.508  53.248  1.00  0.00     0.158 A 
HETATM    7  C18 UNL     1      24.712   0.551  53.006  1.00  0.00     0.085 A 
ENDROOT
BRANCH   6   8
HETATM    8  C12 UNL     1      22.262   0.897  52.986  1.00  0.00     0.001 A 
HETATM    9  C13 UNL     1      21.699   1.184  51.736  1.00  0.00     0.015 A 
HETATM   10  C14 UNL     1      20.470   0.695  51.346  1.00  0.00     0.037 A 
HETATM   11  C15 UNL     1      19.800  -0.103  52.251  1.00  0.00     0.068 A 
HETATM   12  C16 UNL     1      20.319  -0.408  53.491  1.00  0.00     0.073 A 
HETATM   13  C17 UNL     1      21.556   0.095  53.858  1.00  0.00     0.076 A 
BRANCH  11  14
HETATM   14  O1  UNL     1      18.553  -0.611  51.882  1.00  0.00    -0.361 OA
HETATM   15  H14 UNL     1      17.716  -0.340  52.409  1.00  0.00     0.217 HD
ENDBRANCH  11  14
BRANCH  13  16
HETATM   16  O2  UNL     1      22.148  -0.163  55.086  1.00  0.00    -0.360 OA
HETATM   17  H16 UNL     1      23.132  -0.456  55.091  1.00  0.00     0.217 HD
ENDBRANCH  13  16
ENDBRANCH   6   8
BRANCH   7  18
HETATM   18  C19 UNL     1      25.412   0.129  54.282  1.00  0.00     0.195 C 
BRANCH  18  19
HETATM   19  N3  UNL     1      24.955  -1.170  54.641  1.00  0.00    -0.140 NA
HETATM   20  O3  UNL     1      24.827  -1.431  55.796  1.00  0.00    -0.067 OA
ENDBRANCH  18  19
ENDBRANCH   7  18
BRANCH   4  21
HETATM   21  S1  UNL     1      24.192   4.768  51.144  1.00  0.00    -0.086 SA
BRANCH  21  22
HETATM   22  C4  UNL     1      24.286   4.852  49.348  1.00  0.00     0.121 C 
BRANCH  22  23
HETATM   23  C5  UNL     1      25.659   5.240  48.959  1.00  0.00    -0.049 A 
HETATM   24  C6  UNL     1      26.843   4.543  49.006  1.00  0.00     0.008 A 
HETATM   25  C7  UNL     1      28.015   5.104  48.601  1.00  0.00     0.001 A 
HETATM   26  C8  UNL     1      28.103   6.375  48.130  1.00  0.00     0.000 A 
HETATM   27  C9  UNL     1      26.946   7.112  48.063  1.00  0.00     0.001 A 
HETATM   28  C10 UNL     1      25.744   6.548  48.474  1.00  0.00     0.008 A 
ENDBRANCH  22  23
ENDBRANCH  21  22
ENDBRANCH   4  21
TORSDOF 8
ENDMDL
MODEL 7
REMARK VINA RESULT:      -7.9      3.439      7.857
REMARK  8 active torsions:
REMARK  status: ('A' for Active; 'I' for Inactive)
REMARK    1  A    between atoms: C3_4  and  S1_5 
REMARK    2  A    between atoms: S1_5  and  C4_6 
REMARK    3  A    between atoms: C4_6  and  C5_7 
REMARK    4  A    between atoms: C11_14  and  C12_15 
REMARK    5  A    between atoms: C15_18  and  O1_19 
REMARK    6  A    between atoms: C17_21  and  O2_22 
REMARK    7  A    between atoms: C18_23  and  C19_24 
REMARK    8  A    between atoms: C19_24  and  N3_25 
ROOT
HETATM    1  C1  UNL     1      22.039   2.211  48.967  1.00  0.00     0.066 C 
HETATM    2  C2  UNL     1      23.079   2.792  49.847  1.00  0.00     0.019 A 
HETATM    3  N1  UNL     1      23.517   2.024  50.783  1.00  0.00    -0.232 NA
HETATM    4  C3  UNL     1      24.513   2.511  51.661  1.00  0.00     0.184 A 
HETATM    5  N2  UNL     1      24.887   3.689  51.428  1.00  0.00    -0.254 NA
HETATM    6  C11 UNL     1      24.521   4.651  50.458  1.00  0.00     0.158 A 
HETATM    7  C18 UNL     1      23.461   4.180  49.536  1.00  0.00     0.085 A 
ENDROOT
BRANCH   6   8
HETATM    8  C12 UNL     1      25.736   5.136  49.723  1.00  0.00     0.001 A 
HETATM    9  C13 UNL     1      25.837   6.525  49.572  1.00  0.00     0.015 A 
HETATM   10  C14 UNL     1      26.894   7.125  48.922  1.00  0.00     0.037 A 
HETATM   11  C15 UNL     1      27.869   6.290  48.414  1.00  0.00     0.068 A 
HETATM   12  C16 UNL     1      27.806   4.919  48.542  1.00  0.00     0.073 A 
HETATM   13  C17 UNL     1      26.733   4.342  49.200  1.00  0.00     0.076 A 
BRANCH  11  14
HETATM   14  O1  UNL     1      28.952   6.871  47.751  1.00  0.00    -0.361 OA
HETATM   15  H14 UNL     1      29.151   6.615  46.777  1.00  0.00     0.217 HD
ENDBRANCH  11  14
BRANCH  13  16
HETATM   16  O2  UNL     1      26.594   2.972  49.371  1.00  0.00    -0.360 OA
HETATM   17  H16 UNL     1      27.139   2.355  48.756  1.00  0.00     0.217 HD
ENDBRANCH  13  16
ENDBRANCH   6   8
BRANCH   7  18
HETATM   18  C19 UNL     1      22.249   5.091  49.519  1.00  0.00     0.195 C 
BRANCH  18  19
HETATM   19  N3  UNL     1      21.888   5.388  50.863  1.00  0.00    -0.140 NA
HETATM   20  O3  UNL     1      21.523   6.492  51.125  1.00  0.00    -0.067 OA
ENDBRANCH  18  19
ENDBRANCH   7  18
BRANCH   4  21
HETATM   21  S1  UNL     1      25.376   1.828  53.046  1.00  0.00    -0.086 SA
BRANCH  21  22
HETATM   22  C4  UNL     1      25.840   0.120  52.716  1.00  0.00     0.121 C 
BRANCH  22  23
HETATM   23  C5  UNL     1      27.272  -0.057  53.042  1.00  0.00    -0.049 A 
HETATM   24  C6  UNL     1      28.227   0.849  53.440  1.00  0.00     0.008 A 
HETATM   25  C7  UNL     1      29.511   0.468  53.682  1.00  0.00     0.001 A 
HETATM   26  C8  UNL     1      29.940  -0.815  53.550  1.00  0.00     0.000 A 
HETATM   27  C9  UNL     1      29.021  -1.756  53.156  1.00  0.00     0.001 A 
HETATM   28  C10 UNL     1      27.708  -1.377  52.906  1.00  0.00     0.008 A 
ENDBRANCH  22  23
ENDBRANCH  21  22
ENDBRANCH   4  21
TORSDOF 8
ENDMDL
MODEL 8
REMARK VINA RESULT:      -7.8      3.381      7.618
REMARK  8 active torsions:
REMARK  status: ('A' for Active; 'I' for Inactive)
REMARK    1  A    between atoms: C3_4  and  S1_5 
REMARK    2  A    between atoms: S1_5  and  C4_6 
REMARK    3  A    between atoms: C4_6  and  C5_7 
REMARK    4  A    between atoms: C11_14  and  C12_15 
REMARK    5  A    between atoms: C15_18  and  O1_19 
REMARK    6  A    between atoms: C17_21  and  O2_22 
REMARK    7  A    between atoms: C18_23  and  C19_24 
REMARK    8  A    between atoms: C19_24  and  N3_25 
ROOT
HETATM    1  C1  UNL     1      22.590   2.113  47.733  1.00  0.00     0.066 C 
HETATM    2  C2  UNL     1      22.309   2.320  49.173  1.00  0.00     0.019 A 
HETATM    3  N1  UNL     1      21.069   2.283  49.515  1.00  0.00    -0.232 NA
HETATM    4  C3  UNL     1      20.725   2.470  50.873  1.00  0.00     0.184 A 
HETATM    5  N2  UNL     1      21.704   2.660  51.641  1.00  0.00    -0.254 NA
HETATM    6  C11 UNL     1      23.101   2.727  51.435  1.00  0.00     0.158 A 
HETATM    7  C18 UNL     1      23.494   2.556  50.016  1.00  0.00     0.085 A 
ENDROOT
BRANCH   6   8
HETATM    8  C12 UNL     1      23.806   1.756  52.336  1.00  0.00     0.001 A 
HETATM    9  C13 UNL     1      23.100   0.584  52.633  1.00  0.00     0.015 A 
HETATM   10  C14 UNL     1      23.612  -0.405  53.446  1.00  0.00     0.037 A 
HETATM   11  C15 UNL     1      24.872  -0.193  53.969  1.00  0.00     0.068 A 
HETATM   12  C16 UNL     1      25.599   0.948  53.701  1.00  0.00     0.073 A 
HETATM   13  C17 UNL     1      25.061   1.925  52.880  1.00  0.00     0.076 A 
BRANCH  11  14
HETATM   14  O1  UNL     1      25.416  -1.178  54.795  1.00  0.00    -0.361 OA
HETATM   15  H14 UNL     1      25.987  -1.927  54.387  1.00  0.00     0.217 HD
ENDBRANCH  11  14
BRANCH  13  16
HETATM   16  O2  UNL     1      25.726   3.101  52.563  1.00  0.00    -0.360 OA
HETATM   17  H16 UNL     1      26.607   3.027  52.040  1.00  0.00     0.217 HD
ENDBRANCH  13  16
ENDBRANCH   6   8
BRANCH   7  18
HETATM   18  C19 UNL     1      24.318   3.716  49.491  1.00  0.00     0.195 C 
BRANCH  18  19
HETATM   19  N3  UNL     1      25.687   3.329  49.478  1.00  0.00    -0.140 NA
HETATM   20  O3  UNL     1      26.501   4.099  49.881  1.00  0.00    -0.067 OA
ENDBRANCH  18  19
ENDBRANCH   7  18
BRANCH   4  21
HETATM   21  S1  UNL     1      19.198   2.500  51.766  1.00  0.00    -0.086 SA
BRANCH  21  22
HETATM   22  C4  UNL     1      18.110   1.185  51.193  1.00  0.00     0.121 C 
BRANCH  22  23
HETATM   23  C5  UNL     1      18.257   0.020  52.091  1.00  0.00    -0.049 A 
HETATM   24  C6  UNL     1      19.316  -0.402  52.860  1.00  0.00     0.008 A 
HETATM   25  C7  UNL     1      19.240  -1.530  53.618  1.00  0.00     0.001 A 
HETATM   26  C8  UNL     1      18.131  -2.313  53.671  1.00  0.00     0.000 A 
HETATM   27  C9  UNL     1      17.046  -1.932  52.920  1.00  0.00     0.001 A 
HETATM   28  C10 UNL     1      17.113  -0.782  52.143  1.00  0.00     0.008 A 
ENDBRANCH  22  23
ENDBRANCH  21  22
ENDBRANCH   4  21
TORSDOF 8
ENDMDL
MODEL 9
REMARK VINA RESULT:      -7.8      2.327      4.694
REMARK  8 active torsions:
REMARK  status: ('A' for Active; 'I' for Inactive)
REMARK    1  A    between atoms: C3_4  and  S1_5 
REMARK    2  A    between atoms: S1_5  and  C4_6 
REMARK    3  A    between atoms: C4_6  and  C5_7 
REMARK    4  A    between atoms: C11_14  and  C12_15 
REMARK    5  A    between atoms: C15_18  and  O1_19 
REMARK    6  A    between atoms: C17_21  and  O2_22 
REMARK    7  A    between atoms: C18_23  and  C19_24 
REMARK    8  A    between atoms: C19_24  and  N3_25 
ROOT
HETATM    1  C1  UNL     1      20.535   2.926  52.693  1.00  0.00     0.066 C 
HETATM    2  C2  UNL     1      21.898   2.921  52.113  1.00  0.00     0.019 A 
HETATM    3  N1  UNL     1      22.324   4.051  51.668  1.00  0.00    -0.232 NA
HETATM    4  C3  UNL     1      23.618   4.122  51.103  1.00  0.00     0.184 A 
HETATM    5  N2  UNL     1      24.247   3.033  51.093  1.00  0.00    -0.254 NA
HETATM    6  C11 UNL     1      23.934   1.727  51.534  1.00  0.00     0.158 A 
HETATM    7  C18 UNL     1      22.574   1.613  52.112  1.00  0.00     0.085 A 
ENDROOT
BRANCH   6   8
HETATM    8  C12 UNL     1      24.992   1.229  52.475  1.00  0.00     0.001 A 
HETATM    9  C13 UNL     1      25.478  -0.057  52.213  1.00  0.00     0.015 A 
HETATM   10  C14 UNL     1      26.452  -0.654  52.985  1.00  0.00     0.037 A 
HETATM   11  C15 UNL     1      26.940   0.078  54.049  1.00  0.00     0.068 A 
HETATM   12  C16 UNL     1      26.487   1.347  54.340  1.00  0.00     0.073 A 
HETATM   13  C17 UNL     1      25.509   1.923  53.548  1.00  0.00     0.076 A 
BRANCH  11  14
HETATM   14  O1  UNL     1      27.927  -0.502  54.848  1.00  0.00    -0.361 OA
HETATM   15  H14 UNL     1      28.729  -0.968  54.409  1.00  0.00     0.217 HD
ENDBRANCH  11  14
BRANCH  13  16
HETATM   16  O2  UNL     1      24.999   3.194  53.774  1.00  0.00    -0.360 OA
HETATM   17  H16 UNL     1      23.979   3.295  53.848  1.00  0.00     0.217 HD
ENDBRANCH  13  16
ENDBRANCH   6   8
BRANCH   7  18
HETATM   18  C19 UNL     1      21.730   0.559  51.423  1.00  0.00     0.195 C 
BRANCH  18  19
HETATM   19  N3  UNL     1      21.783   0.784  50.019  1.00  0.00    -0.140 NA
HETATM   20  O3  UNL     1      20.771   1.035  49.443  1.00  0.00    -0.067 OA
ENDBRANCH  18  19
ENDBRANCH   7  18
BRANCH   4  21
HETATM   21  S1  UNL     1      24.581   5.423  50.388  1.00  0.00    -0.086 SA
BRANCH  21  22
HETATM   22  C4  UNL     1      25.465   4.824  48.937  1.00  0.00     0.121 C 
BRANCH  22  23
HETATM   23  C5  UNL     1      26.630   5.702  48.693  1.00  0.00    -0.049 A 
HETATM   24  C6  UNL     1      26.723   7.069  48.575  1.00  0.00     0.008 A 
HETATM   25  C7  UNL     1      27.914   7.683  48.336  1.00  0.00     0.001 A 
HETATM   26  C8  UNL     1      29.082   7.002  48.196  1.00  0.00     0.000 A 
HETATM   27  C9  UNL     1      29.039   5.634  48.307  1.00  0.00     0.001 A 
HETATM   28  C10 UNL     1      27.829   4.998  48.551  1.00  0.00     0.008 A 
ENDBRANCH  22  23
ENDBRANCH  21  22
ENDBRANCH   4  21
TORSDOF 8
ENDMDL
