MODEL 1
REMARK VINA RESULT:      -8.6      0.000      0.000
REMARK  3 active torsions:
REMARK  status: ('A' for Active; 'I' for Inactive)
REMARK    1  A    between atoms: C8_12  and  O1_13 
REMARK    2  A    between atoms: O1_13  and  C9_14 
REMARK    3  A    between atoms: C9_14  and  C10_15 
ROOT
HETATM    1  C1  UNL     1      23.354   3.315  49.943  1.00  0.00     0.040 C 
HETATM    2  C2  UNL     1      23.493   3.341  51.442  1.00  0.00     0.141 C 
HETATM    3  N1  UNL     1      22.321   4.136  51.930  1.00  0.00    -0.273 NA
HETATM    4  C3  UNL     1      21.208   3.628  52.314  1.00  0.00     0.228 C 
HETATM    5  N2  UNL     1      20.055   2.829  52.694  1.00  0.00    -0.238 NA
HETATM    6  C4  UNL     1      19.859   1.610  52.358  1.00  0.00     0.208 C 
HETATM    7  N3  UNL     1      20.066   0.324  51.764  1.00  0.00    -0.351 N 
HETATM    8  C5  UNL     1      21.451   0.527  52.141  1.00  0.00     0.035 A 
HETATM    9  C6  UNL     1      22.189  -0.210  53.037  1.00  0.00     0.056 A 
HETATM   10  C7  UNL     1      23.460   0.119  53.460  1.00  0.00     0.070 A 
HETATM   11 CL1  UNL     1      24.376  -0.842  54.585  1.00  0.00    -0.081 Cl
HETATM   12  C8  UNL     1      24.085   1.251  52.991  1.00  0.00     0.099 A 
HETATM   13  C16 UNL     1      23.386   2.017  52.094  1.00  0.00     0.004 A 
HETATM   14  C17 UNL     1      22.135   1.655  51.692  1.00  0.00     0.041 A 
HETATM   15  H7  UNL     1      20.269  -0.571  51.361  1.00  0.00     0.166 HD
ENDROOT
BRANCH  12  16
HETATM   16  O1  UNL     1      25.304   1.803  53.238  1.00  0.00    -0.344 OA
BRANCH  16  17
HETATM   17  C9  UNL     1      26.350   1.667  52.293  1.00  0.00     0.214 C 
BRANCH  17  18
HETATM   18  C10 UNL     1      27.379   0.699  52.741  1.00  0.00    -0.031 A 
HETATM   19  C11 UNL     1      28.545   1.146  53.367  1.00  0.00     0.009 A 
HETATM   20  C12 UNL     1      29.514   0.234  53.787  1.00  0.00     0.004 A 
HETATM   21  C13 UNL     1      29.335  -1.136  53.588  1.00  0.00     0.042 A 
HETATM   22  C14 UNL     1      28.167  -1.585  52.961  1.00  0.00     0.117 A 
HETATM   23  F1  UNL     1      27.932  -2.896  52.739  1.00  0.00    -0.206 F 
HETATM   24  C15 UNL     1      27.220  -0.674  52.553  1.00  0.00     0.051 A 
ENDBRANCH  17  18
ENDBRANCH  16  17
ENDBRANCH  12  16
TORSDOF 3
ENDMDL
MODEL 2
REMARK VINA RESULT:      -8.2      1.953      3.237
REMARK  3 active torsions:
REMARK  status: ('A' for Active; 'I' for Inactive)
REMARK    1  A    between atoms: C8_12  and  O1_13 
REMARK    2  A    between atoms: O1_13  and  C9_14 
REMARK    3  A    between atoms: C9_14  and  C10_15 
ROOT
HETATM    1  C1  UNL     1      21.229   0.035  54.538  1.00  0.00     0.040 C 
HETATM    2  C2  UNL     1      22.004  -0.281  53.286  1.00  0.00     0.141 C 
HETATM    3  N1  UNL     1      20.975  -0.376  52.201  1.00  0.00    -0.273 NA
HETATM    4  C3  UNL     1      20.644   0.592  51.427  1.00  0.00     0.228 C 
HETATM    5  N2  UNL     1      20.442   1.821  50.681  1.00  0.00    -0.238 NA
HETATM    6  C4  UNL     1      20.809   2.986  51.063  1.00  0.00     0.208 C 
HETATM    7  N3  UNL     1      21.377   4.025  51.868  1.00  0.00    -0.351 N 
HETATM    8  C5  UNL     1      22.414   3.051  52.146  1.00  0.00     0.035 A 
HETATM    9  C6  UNL     1      23.745   3.131  51.811  1.00  0.00     0.056 A 
HETATM   10  C7  UNL     1      24.656   2.109  51.977  1.00  0.00     0.070 A 
HETATM   11 CL1  UNL     1      26.339   2.244  51.557  1.00  0.00    -0.081 Cl
HETATM   12  C8  UNL     1      24.265   0.902  52.510  1.00  0.00     0.099 A 
HETATM   13  C16 UNL     1      22.946   0.778  52.861  1.00  0.00     0.004 A 
HETATM   14  C17 UNL     1      22.077   1.814  52.689  1.00  0.00     0.041 A 
HETATM   15  H7  UNL     1      21.817   4.715  52.446  1.00  0.00     0.166 HD
ENDROOT
BRANCH  12  16
HETATM   16  O1  UNL     1      24.938  -0.252  52.775  1.00  0.00    -0.344 OA
BRANCH  16  17
HETATM   17  C9  UNL     1      25.588  -0.424  54.021  1.00  0.00     0.214 C 
BRANCH  17  18
HETATM   18  C10 UNL     1      27.061  -0.305  53.897  1.00  0.00    -0.031 A 
HETATM   19  C11 UNL     1      27.803  -1.315  53.281  1.00  0.00     0.009 A 
HETATM   20  C12 UNL     1      29.189  -1.203  53.167  1.00  0.00     0.004 A 
HETATM   21  C13 UNL     1      29.856  -0.083  53.667  1.00  0.00     0.042 A 
HETATM   22  C14 UNL     1      29.113   0.930  54.285  1.00  0.00     0.117 A 
HETATM   23  F1  UNL     1      29.695   2.039  54.790  1.00  0.00    -0.206 F 
HETATM   24  C15 UNL     1      27.747   0.806  54.390  1.00  0.00     0.051 A 
ENDBRANCH  17  18
ENDBRANCH  16  17
ENDBRANCH  12  16
TORSDOF 3
ENDMDL
MODEL 3
REMARK VINA RESULT:      -8.1      3.122      4.607
REMARK  3 active torsions:
REMARK  status: ('A' for Active; 'I' for Inactive)
REMARK    1  A    between atoms: C8_12  and  O1_13 
REMARK    2  A    between atoms: O1_13  and  C9_14 
REMARK    3  A    between atoms: C9_14  and  C10_15 
ROOT
HETATM    1  C1  UNL     1      21.709   1.121  50.026  1.00  0.00     0.040 C 
HETATM    2  C2  UNL     1      22.221   1.945  51.178  1.00  0.00     0.141 C 
HETATM    3  N1  UNL     1      21.023   2.196  52.042  1.00  0.00    -0.273 NA
HETATM    4  C3  UNL     1      20.694   1.479  53.053  1.00  0.00     0.228 C 
HETATM    5  N2  UNL     1      20.528   0.531  54.141  1.00  0.00    -0.238 NA
HETATM    6  C4  UNL     1      21.098  -0.613  54.218  1.00  0.00     0.208 C 
HETATM    7  N3  UNL     1      21.917  -1.737  53.880  1.00  0.00    -0.351 N 
HETATM    8  C5  UNL     1      22.855  -0.736  53.411  1.00  0.00     0.035 A 
HETATM    9  C6  UNL     1      24.111  -0.473  53.903  1.00  0.00     0.056 A 
HETATM   10  C7  UNL     1      24.901   0.586  53.508  1.00  0.00     0.070 A 
HETATM   11 CL1  UNL     1      26.494   0.885  54.139  1.00  0.00    -0.081 Cl
HETATM   12  C8  UNL     1      24.454   1.477  52.559  1.00  0.00     0.099 A 
HETATM   13  C16 UNL     1      23.206   1.254  52.039  1.00  0.00     0.004 A 
HETATM   14  C17 UNL     1      22.458   0.190  52.449  1.00  0.00     0.041 A 
HETATM   15  H7  UNL     1      22.531  -2.486  53.622  1.00  0.00     0.166 HD
ENDROOT
BRANCH  12  16
HETATM   16  O1  UNL     1      25.010   2.588  52.001  1.00  0.00    -0.344 OA
BRANCH  16  17
HETATM   17  C9  UNL     1      25.837   2.469  50.858  1.00  0.00     0.214 C 
BRANCH  17  18
HETATM   18  C10 UNL     1      25.915   3.739  50.097  1.00  0.00    -0.031 A 
HETATM   19  C11 UNL     1      24.836   4.626  50.090  1.00  0.00     0.009 A 
HETATM   20  C12 UNL     1      24.910   5.820  49.372  1.00  0.00     0.004 A 
HETATM   21  C13 UNL     1      26.058   6.146  48.649  1.00  0.00     0.042 A 
HETATM   22  C14 UNL     1      27.140   5.257  48.655  1.00  0.00     0.117 A 
HETATM   23  F1  UNL     1      28.280   5.512  47.977  1.00  0.00    -0.206 F 
HETATM   24  C15 UNL     1      27.053   4.084  49.368  1.00  0.00     0.051 A 
ENDBRANCH  17  18
ENDBRANCH  16  17
ENDBRANCH  12  16
TORSDOF 3
ENDMDL
MODEL 4
REMARK VINA RESULT:      -7.9      3.811      6.914
REMARK  3 active torsions:
REMARK  status: ('A' for Active; 'I' for Inactive)
REMARK    1  A    between atoms: C8_12  and  O1_13 
REMARK    2  A    between atoms: O1_13  and  C9_14 
REMARK    3  A    between atoms: C9_14  and  C10_15 
ROOT
HETATM    1  C1  UNL     1      26.362  -1.782  52.613  1.00  0.00     0.040 C 
HETATM    2  C2  UNL     1      25.668  -0.941  53.652  1.00  0.00     0.141 C 
HETATM    3  N1  UNL     1      26.752  -0.499  54.586  1.00  0.00    -0.273 NA
HETATM    4  C3  UNL     1      27.380   0.616  54.495  1.00  0.00     0.228 C 
HETATM    5  N2  UNL     1      27.944   1.919  54.189  1.00  0.00    -0.238 NA
HETATM    6  C4  UNL     1      27.824   2.531  53.071  1.00  0.00     0.208 C 
HETATM    7  N3  UNL     1      27.438   2.813  51.722  1.00  0.00    -0.351 N 
HETATM    8  C5  UNL     1      26.176   2.209  52.104  1.00  0.00     0.035 A 
HETATM    9  C6  UNL     1      24.944   2.815  52.162  1.00  0.00     0.056 A 
HETATM   10  C7  UNL     1      23.806   2.226  52.670  1.00  0.00     0.070 A 
HETATM   11 CL1  UNL     1      22.255   3.013  52.717  1.00  0.00    -0.081 Cl
HETATM   12  C8  UNL     1      23.842   0.943  53.168  1.00  0.00     0.099 A 
HETATM   13  C16 UNL     1      25.051   0.299  53.129  1.00  0.00     0.004 A 
HETATM   14  C17 UNL     1      26.154   0.912  52.612  1.00  0.00     0.041 A 
HETATM   15  H7  UNL     1      27.115   2.985  50.789  1.00  0.00     0.166 HD
ENDROOT
BRANCH  12  16
HETATM   16  O1  UNL     1      22.893   0.139  53.719  1.00  0.00    -0.344 OA
BRANCH  16  17
HETATM   17  C9  UNL     1      22.290  -0.881  52.945  1.00  0.00     0.214 C 
BRANCH  17  18
HETATM   18  C10 UNL     1      20.902  -0.534  52.557  1.00  0.00    -0.031 A 
HETATM   19  C11 UNL     1      20.658   0.229  51.413  1.00  0.00     0.009 A 
HETATM   20  C12 UNL     1      19.351   0.557  51.049  1.00  0.00     0.004 A 
HETATM   21  C13 UNL     1      18.269   0.131  51.821  1.00  0.00     0.042 A 
HETATM   22  C14 UNL     1      18.513  -0.634  52.969  1.00  0.00     0.117 A 
HETATM   23  F1  UNL     1      17.512  -1.078  53.759  1.00  0.00    -0.206 F 
HETATM   24  C15 UNL     1      19.806  -0.950  53.314  1.00  0.00     0.051 A 
ENDBRANCH  17  18
ENDBRANCH  16  17
ENDBRANCH  12  16
TORSDOF 3
ENDMDL
MODEL 5
REMARK VINA RESULT:      -7.9      1.746      2.225
REMARK  3 active torsions:
REMARK  status: ('A' for Active; 'I' for Inactive)
REMARK    1  A    between atoms: C8_12  and  O1_13 
REMARK    2  A    between atoms: O1_13  and  C9_14 
REMARK    3  A    between atoms: C9_14  and  C10_15 
ROOT
HETATM    1  C1  UNL     1      21.955   0.921  50.019  1.00  0.00     0.040 C 
HETATM    2  C2  UNL     1      22.429   1.604  51.275  1.00  0.00     0.141 C 
HETATM    3  N1  UNL     1      21.212   2.265  51.845  1.00  0.00    -0.273 NA
HETATM    4  C3  UNL     1      20.453   1.744  52.739  1.00  0.00     0.228 C 
HETATM    5  N2  UNL     1      19.755   0.957  53.740  1.00  0.00    -0.238 NA
HETATM    6  C4  UNL     1      19.898  -0.302  53.922  1.00  0.00     0.208 C 
HETATM    7  N3  UNL     1      20.372  -1.644  53.759  1.00  0.00    -0.351 N 
HETATM    8  C5  UNL     1      21.659  -1.014  53.539  1.00  0.00     0.035 A 
HETATM    9  C6  UNL     1      22.789  -1.134  54.313  1.00  0.00     0.056 A 
HETATM   10  C7  UNL     1      23.942  -0.399  54.132  1.00  0.00     0.070 A 
HETATM   11 CL1  UNL     1      25.363  -0.582  55.118  1.00  0.00    -0.081 Cl
HETATM   12  C8  UNL     1      24.027   0.535  53.124  1.00  0.00     0.099 A 
HETATM   13  C16 UNL     1      22.924   0.687  52.326  1.00  0.00     0.004 A 
HETATM   14  C17 UNL     1      21.804  -0.065  52.531  1.00  0.00     0.041 A 
HETATM   15  H7  UNL     1      20.756  -2.560  53.634  1.00  0.00     0.166 HD
ENDROOT
BRANCH  12  16
HETATM   16  O1  UNL     1      25.018   1.382  52.731  1.00  0.00    -0.344 OA
BRANCH  16  17
HETATM   17  C9  UNL     1      26.050   0.921  51.879  1.00  0.00     0.214 C 
BRANCH  17  18
HETATM   18  C10 UNL     1      27.268   0.548  52.636  1.00  0.00    -0.031 A 
HETATM   19  C11 UNL     1      27.712  -0.777  52.654  1.00  0.00     0.009 A 
HETATM   20  C12 UNL     1      28.858  -1.127  53.369  1.00  0.00     0.004 A 
HETATM   21  C13 UNL     1      29.577  -0.163  54.078  1.00  0.00     0.042 A 
HETATM   22  C14 UNL     1      29.132   1.165  54.061  1.00  0.00     0.117 A 
HETATM   23  F1  UNL     1      29.781   2.145  54.725  1.00  0.00    -0.206 F 
HETATM   24  C15 UNL     1      28.002   1.495  53.351  1.00  0.00     0.051 A 
ENDBRANCH  17  18
ENDBRANCH  16  17
ENDBRANCH  12  16
TORSDOF 3
ENDMDL
MODEL 6
REMARK VINA RESULT:      -7.8      4.001      5.368
REMARK  3 active torsions:
REMARK  status: ('A' for Active; 'I' for Inactive)
REMARK    1  A    between atoms: C8_12  and  O1_13 
REMARK    2  A    between atoms: O1_13  and  C9_14 
REMARK    3  A    between atoms: C9_14  and  C10_15 
ROOT
HETATM    1  C1  UNL     1      24.702   2.668  53.545  1.00  0.00     0.040 C 
HETATM    2  C2  UNL     1      24.450   1.652  52.461  1.00  0.00     0.141 C 
HETATM    3  N1  UNL     1      24.855   0.338  53.055  1.00  0.00    -0.273 NA
HETATM    4  C3  UNL     1      24.050  -0.478  53.631  1.00  0.00     0.228 C 
HETATM    5  N2  UNL     1      22.961  -1.228  54.230  1.00  0.00    -0.238 NA
HETATM    6  C4  UNL     1      21.823  -0.743  54.560  1.00  0.00     0.208 C 
HETATM    7  N3  UNL     1      20.762   0.200  54.750  1.00  0.00    -0.351 N 
HETATM    8  C5  UNL     1      21.179   0.718  53.462  1.00  0.00     0.035 A 
HETATM    9  C6  UNL     1      20.452   0.738  52.296  1.00  0.00     0.056 A 
HETATM   10  C7  UNL     1      20.953   1.115  51.068  1.00  0.00     0.070 A 
HETATM   11 CL1  UNL     1      20.004   1.145  49.610  1.00  0.00    -0.081 Cl
HETATM   12  C8  UNL     1      22.266   1.507  50.937  1.00  0.00     0.099 A 
HETATM   13  C16 UNL     1      23.029   1.504  52.075  1.00  0.00     0.004 A 
HETATM   14  C17 UNL     1      22.495   1.133  53.273  1.00  0.00     0.041 A 
HETATM   15  H7  UNL     1      20.035   0.884  54.832  1.00  0.00     0.166 HD
ENDROOT
BRANCH  12  16
HETATM   16  O1  UNL     1      23.006   1.915  49.869  1.00  0.00    -0.344 OA
BRANCH  16  17
HETATM   17  C9  UNL     1      22.915   3.252  49.412  1.00  0.00     0.214 C 
BRANCH  17  18
HETATM   18  C10 UNL     1      24.250   3.880  49.268  1.00  0.00    -0.031 A 
HETATM   19  C11 UNL     1      25.408   3.153  49.557  1.00  0.00     0.009 A 
HETATM   20  C12 UNL     1      26.664   3.745  49.423  1.00  0.00     0.004 A 
HETATM   21  C13 UNL     1      26.785   5.070  49.001  1.00  0.00     0.042 A 
HETATM   22  C14 UNL     1      25.625   5.799  48.712  1.00  0.00     0.117 A 
HETATM   23  F1  UNL     1      25.671   7.085  48.299  1.00  0.00    -0.206 F 
HETATM   24  C15 UNL     1      24.393   5.202  48.848  1.00  0.00     0.051 A 
ENDBRANCH  17  18
ENDBRANCH  16  17
ENDBRANCH  12  16
TORSDOF 3
ENDMDL
MODEL 7
REMARK VINA RESULT:      -7.8      3.291      6.578
REMARK  3 active torsions:
REMARK  status: ('A' for Active; 'I' for Inactive)
REMARK    1  A    between atoms: C8_12  and  O1_13 
REMARK    2  A    between atoms: O1_13  and  C9_14 
REMARK    3  A    between atoms: C9_14  and  C10_15 
ROOT
HETATM    1  C1  UNL     1      23.539   4.834  52.415  1.00  0.00     0.040 C 
HETATM    2  C2  UNL     1      23.495   3.585  51.574  1.00  0.00     0.141 C 
HETATM    3  N1  UNL     1      24.676   3.688  50.659  1.00  0.00    -0.273 NA
HETATM    4  C3  UNL     1      25.824   3.164  50.892  1.00  0.00     0.228 C 
HETATM    5  N2  UNL     1      27.016   2.488  51.372  1.00  0.00    -0.238 NA
HETATM    6  C4  UNL     1      27.219   2.117  52.580  1.00  0.00     0.208 C 
HETATM    7  N3  UNL     1      27.005   1.900  53.979  1.00  0.00    -0.351 N 
HETATM    8  C5  UNL     1      25.643   1.604  53.582  1.00  0.00     0.035 A 
HETATM    9  C6  UNL     1      24.981   0.405  53.701  1.00  0.00     0.056 A 
HETATM   10  C7  UNL     1      23.733   0.145  53.176  1.00  0.00     0.070 A 
HETATM   11 CL1  UNL     1      22.913  -1.379  53.355  1.00  0.00    -0.081 Cl
HETATM   12  C8  UNL     1      23.053   1.113  52.473  1.00  0.00     0.099 A 
HETATM   13  C16 UNL     1      23.674   2.326  52.330  1.00  0.00     0.004 A 
HETATM   14  C17 UNL     1      24.906   2.548  52.871  1.00  0.00     0.041 A 
HETATM   15  H7  UNL     1      26.799   1.737  54.946  1.00  0.00     0.166 HD
ENDROOT
BRANCH  12  16
HETATM   16  O1  UNL     1      21.838   1.126  51.857  1.00  0.00    -0.344 OA
BRANCH  16  17
HETATM   17  C9  UNL     1      20.691   1.567  52.560  1.00  0.00     0.214 C 
BRANCH  17  18
HETATM   18  C10 UNL     1      19.574   0.597  52.461  1.00  0.00    -0.031 A 
HETATM   19  C11 UNL     1      18.585   0.756  51.488  1.00  0.00     0.009 A 
HETATM   20  C12 UNL     1      17.533  -0.157  51.396  1.00  0.00     0.004 A 
HETATM   21  C13 UNL     1      17.452  -1.239  52.274  1.00  0.00     0.042 A 
HETATM   22  C14 UNL     1      18.443  -1.398  53.249  1.00  0.00     0.117 A 
HETATM   23  F1  UNL     1      18.424  -2.423  54.129  1.00  0.00    -0.206 F 
HETATM   24  C15 UNL     1      19.474  -0.492  53.327  1.00  0.00     0.051 A 
ENDBRANCH  17  18
ENDBRANCH  16  17
ENDBRANCH  12  16
TORSDOF 3
ENDMDL
MODEL 8
REMARK VINA RESULT:      -7.7      2.950      5.814
REMARK  3 active torsions:
REMARK  status: ('A' for Active; 'I' for Inactive)
REMARK    1  A    between atoms: C8_12  and  O1_13 
REMARK    2  A    between atoms: O1_13  and  C9_14 
REMARK    3  A    between atoms: C9_14  and  C10_15 
ROOT
HETATM    1  C1  UNL     1      23.214   4.643  53.038  1.00  0.00     0.040 C 
HETATM    2  C2  UNL     1      23.019   3.266  52.461  1.00  0.00     0.141 C 
HETATM    3  N1  UNL     1      22.580   3.492  51.047  1.00  0.00    -0.273 NA
HETATM    4  C3  UNL     1      23.369   3.510  50.035  1.00  0.00     0.228 C 
HETATM    5  N2  UNL     1      24.446   3.484  49.060  1.00  0.00    -0.238 NA
HETATM    6  C4  UNL     1      25.691   3.603  49.332  1.00  0.00     0.208 C 
HETATM    7  N3  UNL     1      26.898   3.768  50.084  1.00  0.00    -0.351 N 
HETATM    8  C5  UNL     1      26.251   2.900  51.049  1.00  0.00     0.035 A 
HETATM    9  C6  UNL     1      26.650   1.645  51.440  1.00  0.00     0.056 A 
HETATM   10  C7  UNL     1      25.915   0.810  52.256  1.00  0.00     0.070 A 
HETATM   11 CL1  UNL     1      26.452  -0.770  52.748  1.00  0.00    -0.081 Cl
HETATM   12  C8  UNL     1      24.690   1.206  52.743  1.00  0.00     0.099 A 
HETATM   13  C16 UNL     1      24.253   2.452  52.379  1.00  0.00     0.004 A 
HETATM   14  C17 UNL     1      25.011   3.252  51.577  1.00  0.00     0.041 A 
HETATM   15  H7  UNL     1      27.719   3.850  50.652  1.00  0.00     0.166 HD
ENDROOT
BRANCH  12  16
HETATM   16  O1  UNL     1      23.774   0.596  53.545  1.00  0.00    -0.344 OA
BRANCH  16  17
HETATM   17  C9  UNL     1      23.151  -0.604  53.126  1.00  0.00     0.214 C 
BRANCH  17  18
HETATM   18  C10 UNL     1      21.729  -0.392  52.762  1.00  0.00    -0.031 A 
HETATM   19  C11 UNL     1      20.713  -0.734  53.658  1.00  0.00     0.009 A 
HETATM   20  C12 UNL     1      19.375  -0.536  53.315  1.00  0.00     0.004 A 
HETATM   21  C13 UNL     1      19.031   0.003  52.074  1.00  0.00     0.042 A 
HETATM   22  C14 UNL     1      20.049   0.345  51.176  1.00  0.00     0.117 A 
HETATM   23  F1  UNL     1      19.785   0.870  49.960  1.00  0.00    -0.206 F 
HETATM   24  C15 UNL     1      21.363   0.145  51.528  1.00  0.00     0.051 A 
ENDBRANCH  17  18
ENDBRANCH  16  17
ENDBRANCH  12  16
TORSDOF 3
ENDMDL
MODEL 9
REMARK VINA RESULT:      -7.6      3.585      5.292
REMARK  3 active torsions:
REMARK  status: ('A' for Active; 'I' for Inactive)
REMARK    1  A    between atoms: C8_12  and  O1_13 
REMARK    2  A    between atoms: O1_13  and  C9_14 
REMARK    3  A    between atoms: C9_14  and  C10_15 
ROOT
HETATM    1  C1  UNL     1      24.846   2.857  53.371  1.00  0.00     0.040 C 
HETATM    2  C2  UNL     1      23.523   3.267  52.778  1.00  0.00     0.141 C 
HETATM    3  N1  UNL     1      23.483   4.758  52.906  1.00  0.00    -0.273 NA
HETATM    4  C3  UNL     1      23.842   5.576  51.985  1.00  0.00     0.228 C 
HETATM    5  N2  UNL     1      24.298   6.294  50.808  1.00  0.00    -0.238 NA
HETATM    6  C4  UNL     1      24.992   5.788  49.858  1.00  0.00     0.208 C 
HETATM    7  N3  UNL     1      25.721   4.832  49.081  1.00  0.00    -0.351 N 
HETATM    8  C5  UNL     1      24.676   3.913  49.488  1.00  0.00     0.035 A 
HETATM    9  C6  UNL     1      23.763   3.279  48.680  1.00  0.00     0.056 A 
HETATM   10  C7  UNL     1      22.703   2.526  49.140  1.00  0.00     0.070 A 
HETATM   11 CL1  UNL     1      21.570   1.721  48.093  1.00  0.00    -0.081 Cl
HETATM   12  C8  UNL     1      22.492   2.363  50.490  1.00  0.00     0.099 A 
HETATM   13  C16 UNL     1      23.380   2.978  51.334  1.00  0.00     0.004 A 
HETATM   14  C17 UNL     1      24.421   3.707  50.842  1.00  0.00     0.041 A 
HETATM   15  H7  UNL     1      26.192   4.123  48.553  1.00  0.00     0.166 HD
ENDROOT
BRANCH  12  16
HETATM   16  O1  UNL     1      21.545   1.694  51.203  1.00  0.00    -0.344 OA
BRANCH  16  17
HETATM   17  C9  UNL     1      21.556   0.278  51.244  1.00  0.00     0.214 C 
BRANCH  17  18
HETATM   18  C10 UNL     1      21.943  -0.234  52.580  1.00  0.00    -0.031 A 
HETATM   19  C11 UNL     1      20.963  -0.603  53.506  1.00  0.00     0.009 A 
HETATM   20  C12 UNL     1      21.328  -1.083  54.765  1.00  0.00     0.004 A 
HETATM   21  C13 UNL     1      22.673  -1.201  55.119  1.00  0.00     0.042 A 
HETATM   22  C14 UNL     1      23.655  -0.830  54.192  1.00  0.00     0.117 A 
HETATM   23  F1  UNL     1      24.973  -0.919  54.471  1.00  0.00    -0.206 F 
HETATM   24  C15 UNL     1      23.281  -0.359  52.955  1.00  0.00     0.051 A 
ENDBRANCH  17  18
ENDBRANCH  16  17
ENDBRANCH  12  16
TORSDOF 3
ENDMDL
