MODEL 1
REMARK VINA RESULT:      -7.3      0.000      0.000
REMARK  3 active torsions:
REMARK  status: ('A' for Active; 'I' for Inactive)
REMARK    1  A    between atoms: C2_2  and  N1_3 
REMARK    2  A    between atoms: C2_2  and  C8_10 
REMARK    3  A    between atoms: N1_3  and  C3_4 
ROOT
HETATM    1  C8  UNL     1      23.435   3.300  52.140  1.00  0.00     0.077 A 
HETATM    2  C9  UNL     1      23.936   4.196  53.251  1.00  0.00     0.035 C 
HETATM    3  C10 UNL     1      22.008   3.721  51.893  1.00  0.00     0.098 A 
HETATM    4  S1  UNL     1      21.691   5.223  51.383  1.00  0.00    -0.064 SA
HETATM    5  N2  UNL     1      21.084   2.672  52.158  1.00  0.00    -0.344 N 
HETATM    6  C11 UNL     1      19.647   2.788  52.002  1.00  0.00     0.157 C 
HETATM    7  C12 UNL     1      21.880   1.571  52.581  1.00  0.00     0.042 A 
HETATM    8  C13 UNL     1      21.382   0.337  52.945  1.00  0.00     0.030 A 
HETATM    9  C14 UNL     1      22.255  -0.649  53.340  1.00  0.00     0.002 A 
HETATM   10  C15 UNL     1      23.598  -0.384  53.365  1.00  0.00     0.001 A 
HETATM   11  C16 UNL     1      24.035   0.869  52.990  1.00  0.00     0.011 A 
HETATM   12  C17 UNL     1      23.227   1.909  52.581  1.00  0.00    -0.010 A 
ENDROOT
BRANCH   1  13
HETATM   13  C2  UNL     1      24.194   3.456  50.900  1.00  0.00     0.003 C 
HETATM   14  C1  UNL     1      23.787   2.877  49.782  1.00  0.00     0.059 C 
BRANCH  13  15
HETATM   15  N1  UNL     1      25.392   4.215  50.790  1.00  0.00    -0.384 N 
HETATM   16  H3  UNL     1      26.037   4.165  51.608  1.00  0.00     0.160 HD
BRANCH  15  17
HETATM   17  C3  UNL     1      25.685   5.015  49.588  1.00  0.00     0.127 C 
HETATM   18  C4  UNL     1      26.982   4.553  49.087  1.00  0.00     0.003 C 
HETATM   19  C5  UNL     1      27.939   5.263  48.499  1.00  0.00     0.006 C 
HETATM   20  P1  UNL     1      27.605   7.048  48.282  1.00  0.00    -0.083 P 
HETATM   21  C6  UNL     1      26.319   7.470  49.546  1.00  0.00     0.006 C 
HETATM   22  H7  UNL     1      27.146   7.355  46.951  1.00  0.00     0.066 HD
HETATM   23  C7  UNL     1      25.601   6.416  49.971  1.00  0.00     0.003 C 
ENDBRANCH  15  17
ENDBRANCH  13  15
ENDBRANCH   1  13
TORSDOF 3
ENDMDL
MODEL 2
REMARK VINA RESULT:      -7.2      2.860      5.481
REMARK  3 active torsions:
REMARK  status: ('A' for Active; 'I' for Inactive)
REMARK    1  A    between atoms: C2_2  and  N1_3 
REMARK    2  A    between atoms: C2_2  and  C8_10 
REMARK    3  A    between atoms: N1_3  and  C3_4 
ROOT
HETATM    1  C8  UNL     1      23.767   3.033  50.547  1.00  0.00     0.077 A 
HETATM    2  C9  UNL     1      22.951   2.330  49.485  1.00  0.00     0.035 C 
HETATM    3  C10 UNL     1      22.943   4.222  50.971  1.00  0.00     0.098 A 
HETATM    4  S1  UNL     1      21.493   3.993  51.652  1.00  0.00    -0.064 SA
HETATM    5  N2  UNL     1      23.596   5.455  50.696  1.00  0.00    -0.344 N 
HETATM    6  C11 UNL     1      23.043   6.761  51.000  1.00  0.00     0.157 C 
HETATM    7  C12 UNL     1      24.834   5.096  50.093  1.00  0.00     0.042 A 
HETATM    8  C13 UNL     1      25.787   5.996  49.661  1.00  0.00     0.030 A 
HETATM    9  C14 UNL     1      26.945   5.524  49.090  1.00  0.00     0.002 A 
HETATM   10  C15 UNL     1      27.126   4.173  48.961  1.00  0.00     0.001 A 
HETATM   11  C16 UNL     1      26.138   3.324  49.412  1.00  0.00     0.011 A 
HETATM   12  C17 UNL     1      24.952   3.716  49.995  1.00  0.00    -0.010 A 
ENDROOT
BRANCH   1  13
HETATM   13  C2  UNL     1      24.019   2.193  51.718  1.00  0.00     0.003 C 
HETATM   14  C1  UNL     1      23.253   1.144  51.973  1.00  0.00     0.059 C 
BRANCH  13  15
HETATM   15  N1  UNL     1      25.068   2.420  52.650  1.00  0.00    -0.384 N 
HETATM   16  H3  UNL     1      24.980   3.282  53.231  1.00  0.00     0.160 HD
BRANCH  15  17
HETATM   17  C3  UNL     1      26.200   1.486  52.772  1.00  0.00     0.127 C 
HETATM   18  C4  UNL     1      25.960   0.697  53.983  1.00  0.00     0.003 C 
HETATM   19  C5  UNL     1      26.849   0.225  54.850  1.00  0.00     0.006 C 
HETATM   20  P1  UNL     1      28.604   0.601  54.496  1.00  0.00    -0.083 P 
HETATM   21  C6  UNL     1      28.580   2.097  53.404  1.00  0.00     0.006 C 
HETATM   22  H7  UNL     1      29.275  -0.501  53.853  1.00  0.00     0.066 HD
HETATM   23  C7  UNL     1      27.420   2.280  52.749  1.00  0.00     0.003 C 
ENDBRANCH  15  17
ENDBRANCH  13  15
ENDBRANCH   1  13
TORSDOF 3
ENDMDL
MODEL 3
REMARK VINA RESULT:      -7.1      2.695      6.004
REMARK  3 active torsions:
REMARK  status: ('A' for Active; 'I' for Inactive)
REMARK    1  A    between atoms: C2_2  and  N1_3 
REMARK    2  A    between atoms: C2_2  and  C8_10 
REMARK    3  A    between atoms: N1_3  and  C3_4 
ROOT
HETATM    1  C8  UNL     1      23.776   3.983  49.789  1.00  0.00     0.077 A 
HETATM    2  C9  UNL     1      23.270   2.872  48.895  1.00  0.00     0.035 C 
HETATM    3  C10 UNL     1      22.905   5.175  49.486  1.00  0.00     0.098 A 
HETATM    4  S1  UNL     1      21.315   5.104  49.780  1.00  0.00    -0.064 SA
HETATM    5  N2  UNL     1      23.649   6.264  48.953  1.00  0.00    -0.344 N 
HETATM    6  C11 UNL     1      23.075   7.541  48.574  1.00  0.00     0.157 C 
HETATM    7  C12 UNL     1      24.994   5.804  48.895  1.00  0.00     0.042 A 
HETATM    8  C13 UNL     1      26.059   6.549  48.431  1.00  0.00     0.030 A 
HETATM    9  C14 UNL     1      27.315   5.990  48.421  1.00  0.00     0.002 A 
HETATM   10  C15 UNL     1      27.481   4.707  48.871  1.00  0.00     0.001 A 
HETATM   11  C16 UNL     1      26.378   4.014  49.323  1.00  0.00     0.011 A 
HETATM   12  C17 UNL     1      25.090   4.501  49.365  1.00  0.00    -0.010 A 
ENDROOT
BRANCH   1  13
HETATM   13  C2  UNL     1      23.659   3.663  51.212  1.00  0.00     0.003 C 
HETATM   14  C1  UNL     1      23.727   4.617  52.126  1.00  0.00     0.059 C 
BRANCH  13  15
HETATM   15  N1  UNL     1      23.470   2.348  51.719  1.00  0.00    -0.384 N 
HETATM   16  H3  UNL     1      22.601   1.862  51.405  1.00  0.00     0.160 HD
BRANCH  15  17
HETATM   17  C3  UNL     1      24.449   1.729  52.628  1.00  0.00     0.127 C 
HETATM   18  C4  UNL     1      25.649   1.465  51.831  1.00  0.00     0.003 C 
HETATM   19  C5  UNL     1      26.500   0.450  51.931  1.00  0.00     0.006 C 
HETATM   20  P1  UNL     1      26.138  -0.784  53.232  1.00  0.00    -0.083 P 
HETATM   21  C6  UNL     1      24.326  -0.618  53.581  1.00  0.00     0.006 C 
HETATM   22  H7  UNL     1      26.919  -0.562  54.422  1.00  0.00     0.066 HD
HETATM   23  C7  UNL     1      23.806   0.571  53.232  1.00  0.00     0.003 C 
ENDBRANCH  15  17
ENDBRANCH  13  15
ENDBRANCH   1  13
TORSDOF 3
ENDMDL
MODEL 4
REMARK VINA RESULT:      -6.8      2.283      3.501
REMARK  3 active torsions:
REMARK  status: ('A' for Active; 'I' for Inactive)
REMARK    1  A    between atoms: C2_2  and  N1_3 
REMARK    2  A    between atoms: C2_2  and  C8_10 
REMARK    3  A    between atoms: N1_3  and  C3_4 
ROOT
HETATM    1  C8  UNL     1      23.539   1.991  51.881  1.00  0.00     0.077 A 
HETATM    2  C9  UNL     1      23.143   1.789  50.435  1.00  0.00     0.035 C 
HETATM    3  C10 UNL     1      24.913   1.385  52.014  1.00  0.00     0.098 A 
HETATM    4  S1  UNL     1      26.146   1.995  51.162  1.00  0.00    -0.064 SA
HETATM    5  N2  UNL     1      24.934   0.294  52.927  1.00  0.00    -0.344 N 
HETATM    6  C11 UNL     1      26.118  -0.476  53.256  1.00  0.00     0.157 C 
HETATM    7  C12 UNL     1      23.595   0.170  53.392  1.00  0.00     0.042 A 
HETATM    8  C13 UNL     1      23.163  -0.776  54.299  1.00  0.00     0.030 A 
HETATM    9  C14 UNL     1      21.839  -0.796  54.669  1.00  0.00     0.002 A 
HETATM   10  C15 UNL     1      20.978   0.121  54.127  1.00  0.00     0.001 A 
HETATM   11  C16 UNL     1      21.469   1.041  53.225  1.00  0.00     0.011 A 
HETATM   12  C17 UNL     1      22.779   1.129  52.804  1.00  0.00    -0.010 A 
ENDROOT
BRANCH   1  13
HETATM   13  C2  UNL     1      23.608   3.402  52.258  1.00  0.00     0.003 C 
HETATM   14  C1  UNL     1      24.058   3.761  53.450  1.00  0.00     0.059 C 
BRANCH  13  15
HETATM   15  N1  UNL     1      23.214   4.473  51.409  1.00  0.00    -0.384 N 
HETATM   16  H3  UNL     1      22.187   4.567  51.246  1.00  0.00     0.160 HD
BRANCH  15  17
HETATM   17  C3  UNL     1      24.206   5.381  50.809  1.00  0.00     0.127 C 
HETATM   18  C4  UNL     1      23.905   6.722  51.318  1.00  0.00     0.003 C 
HETATM   19  C5  UNL     1      24.026   7.888  50.693  1.00  0.00     0.006 C 
HETATM   20  P1  UNL     1      24.649   7.824  48.974  1.00  0.00    -0.083 P 
HETATM   21  C6  UNL     1      24.290   6.107  48.381  1.00  0.00     0.006 C 
HETATM   22  H7  UNL     1      26.058   8.118  48.898  1.00  0.00     0.066 HD
HETATM   23  C7  UNL     1      24.135   5.207  49.367  1.00  0.00     0.003 C 
ENDBRANCH  15  17
ENDBRANCH  13  15
ENDBRANCH   1  13
TORSDOF 3
ENDMDL
MODEL 5
REMARK VINA RESULT:      -6.7      1.886      2.552
REMARK  3 active torsions:
REMARK  status: ('A' for Active; 'I' for Inactive)
REMARK    1  A    between atoms: C2_2  and  N1_3 
REMARK    2  A    between atoms: C2_2  and  C8_10 
REMARK    3  A    between atoms: N1_3  and  C3_4 
ROOT
HETATM    1  C8  UNL     1      23.449   2.721  51.940  1.00  0.00     0.077 A 
HETATM    2  C9  UNL     1      23.611   3.951  52.805  1.00  0.00     0.035 C 
HETATM    3  C10 UNL     1      22.298   1.953  52.539  1.00  0.00     0.098 A 
HETATM    4  S1  UNL     1      20.824   2.621  52.584  1.00  0.00    -0.064 SA
HETATM    5  N2  UNL     1      22.693   0.670  53.009  1.00  0.00    -0.344 N 
HETATM    6  C11 UNL     1      21.796  -0.287  53.626  1.00  0.00     0.157 C 
HETATM    7  C12 UNL     1      24.086   0.584  52.733  1.00  0.00     0.042 A 
HETATM    8  C13 UNL     1      24.880  -0.504  53.033  1.00  0.00     0.030 A 
HETATM    9  C14 UNL     1      26.217  -0.466  52.719  1.00  0.00     0.002 A 
HETATM   10  C15 UNL     1      26.733   0.652  52.118  1.00  0.00     0.001 A 
HETATM   11  C16 UNL     1      25.889   1.707  51.844  1.00  0.00     0.011 A 
HETATM   12  C17 UNL     1      24.540   1.747  52.125  1.00  0.00    -0.010 A 
ENDROOT
BRANCH   1  13
HETATM   13  C2  UNL     1      23.128   3.043  50.550  1.00  0.00     0.003 C 
HETATM   14  C1  UNL     1      22.878   2.083  49.675  1.00  0.00     0.059 C 
BRANCH  13  15
HETATM   15  N1  UNL     1      23.058   4.367  50.036  1.00  0.00    -0.384 N 
HETATM   16  H3  UNL     1      22.281   4.957  50.405  1.00  0.00     0.160 HD
BRANCH  15  17
HETATM   17  C3  UNL     1      24.032   4.857  49.046  1.00  0.00     0.127 C 
HETATM   18  C4  UNL     1      25.199   5.321  49.802  1.00  0.00     0.003 C 
HETATM   19  C5  UNL     1      26.005   6.341  49.532  1.00  0.00     0.006 C 
HETATM   20  P1  UNL     1      25.622   7.297  48.020  1.00  0.00    -0.083 P 
HETATM   21  C6  UNL     1      23.829   6.982  47.675  1.00  0.00     0.006 C 
HETATM   22  H7  UNL     1      26.444   6.900  46.905  1.00  0.00     0.066 HD
HETATM   23  C7  UNL     1      23.355   5.852  48.228  1.00  0.00     0.003 C 
ENDBRANCH  15  17
ENDBRANCH  13  15
ENDBRANCH   1  13
TORSDOF 3
ENDMDL
MODEL 6
REMARK VINA RESULT:      -6.6      2.994      4.088
REMARK  3 active torsions:
REMARK  status: ('A' for Active; 'I' for Inactive)
REMARK    1  A    between atoms: C2_2  and  N1_3 
REMARK    2  A    between atoms: C2_2  and  C8_10 
REMARK    3  A    between atoms: N1_3  and  C3_4 
ROOT
HETATM    1  C8  UNL     1      23.747   2.386  51.574  1.00  0.00     0.077 A 
HETATM    2  C9  UNL     1      23.413   2.242  50.106  1.00  0.00     0.035 C 
HETATM    3  C10 UNL     1      25.121   1.787  51.738  1.00  0.00     0.098 A 
HETATM    4  S1  UNL     1      26.382   2.443  50.963  1.00  0.00    -0.064 SA
HETATM    5  N2  UNL     1      25.116   0.659  52.605  1.00  0.00    -0.344 N 
HETATM    6  C11 UNL     1      26.294  -0.114  52.950  1.00  0.00     0.157 C 
HETATM    7  C12 UNL     1      23.761   0.504  53.009  1.00  0.00     0.042 A 
HETATM    8  C13 UNL     1      23.302  -0.482  53.858  1.00  0.00     0.030 A 
HETATM    9  C14 UNL     1      21.965  -0.529  54.171  1.00  0.00     0.002 A 
HETATM   10  C15 UNL     1      21.117   0.402  53.634  1.00  0.00     0.001 A 
HETATM   11  C16 UNL     1      21.635   1.363  52.792  1.00  0.00     0.011 A 
HETATM   12  C17 UNL     1      22.960   1.480  52.429  1.00  0.00    -0.010 A 
ENDROOT
BRANCH   1  13
HETATM   13  C2  UNL     1      23.787   3.781  52.012  1.00  0.00     0.003 C 
HETATM   14  C1  UNL     1      23.886   4.083  53.296  1.00  0.00     0.059 C 
BRANCH  13  15
HETATM   15  N1  UNL     1      23.725   4.895  51.129  1.00  0.00    -0.384 N 
HETATM   16  H3  UNL     1      24.455   4.924  50.384  1.00  0.00     0.160 HD
BRANCH  15  17
HETATM   17  C3  UNL     1      22.688   5.931  51.274  1.00  0.00     0.127 C 
HETATM   18  C4  UNL     1      21.465   5.382  50.683  1.00  0.00     0.003 C 
HETATM   19  C5  UNL     1      20.513   6.022  50.013  1.00  0.00     0.006 C 
HETATM   20  P1  UNL     1      20.748   7.824  49.797  1.00  0.00    -0.083 P 
HETATM   21  C6  UNL     1      22.567   8.113  49.988  1.00  0.00     0.006 C 
HETATM   22  H7  UNL     1      19.996   8.587  50.761  1.00  0.00     0.066 HD
HETATM   23  C7  UNL     1      23.208   7.149  50.672  1.00  0.00     0.003 C 
ENDBRANCH  15  17
ENDBRANCH  13  15
ENDBRANCH   1  13
TORSDOF 3
ENDMDL
MODEL 7
REMARK VINA RESULT:      -6.4      2.932      3.556
REMARK  3 active torsions:
REMARK  status: ('A' for Active; 'I' for Inactive)
REMARK    1  A    between atoms: C2_2  and  N1_3 
REMARK    2  A    between atoms: C2_2  and  C8_10 
REMARK    3  A    between atoms: N1_3  and  C3_4 
ROOT
HETATM    1  C8  UNL     1      22.819   2.092  51.708  1.00  0.00     0.077 A 
HETATM    2  C9  UNL     1      23.072   3.552  52.015  1.00  0.00     0.035 C 
HETATM    3  C10 UNL     1      21.643   1.697  52.565  1.00  0.00     0.098 A 
HETATM    4  S1  UNL     1      20.210   2.416  52.345  1.00  0.00    -0.064 SA
HETATM    5  N2  UNL     1      21.979   0.682  53.504  1.00  0.00    -0.344 N 
HETATM    6  C11 UNL     1      21.047   0.105  54.453  1.00  0.00     0.157 C 
HETATM    7  C12 UNL     1      23.357   0.409  53.283  1.00  0.00     0.042 A 
HETATM    8  C13 UNL     1      24.097  -0.518  53.988  1.00  0.00     0.030 A 
HETATM    9  C14 UNL     1      25.426  -0.688  53.682  1.00  0.00     0.002 A 
HETATM   10  C15 UNL     1      25.987   0.066  52.686  1.00  0.00     0.001 A 
HETATM   11  C16 UNL     1      25.196   0.976  52.017  1.00  0.00     0.011 A 
HETATM   12  C17 UNL     1      23.859   1.206  52.262  1.00  0.00    -0.010 A 
ENDROOT
BRANCH   1  13
HETATM   13  C2  UNL     1      22.480   1.857  50.305  1.00  0.00     0.003 C 
HETATM   14  C1  UNL     1      21.673   0.866  49.963  1.00  0.00     0.059 C 
BRANCH  13  15
HETATM   15  N1  UNL     1      22.969   2.644  49.226  1.00  0.00    -0.384 N 
HETATM   16  H3  UNL     1      23.983   2.533  49.007  1.00  0.00     0.160 HD
BRANCH  15  17
HETATM   17  C3  UNL     1      22.084   3.552  48.477  1.00  0.00     0.127 C 
HETATM   18  C4  UNL     1      21.998   3.020  47.114  1.00  0.00     0.003 C 
HETATM   19  C5  UNL     1      21.897   3.690  45.971  1.00  0.00     0.006 C 
HETATM   20  P1  UNL     1      21.858   5.514  46.104  1.00  0.00    -0.083 P 
HETATM   21  C6  UNL     1      22.647   5.910  47.732  1.00  0.00     0.006 C 
HETATM   22  H7  UNL     1      20.515   6.033  46.037  1.00  0.00     0.066 HD
HETATM   23  C7  UNL     1      22.626   4.895  48.613  1.00  0.00     0.003 C 
ENDBRANCH  15  17
ENDBRANCH  13  15
ENDBRANCH   1  13
TORSDOF 3
ENDMDL
MODEL 8
REMARK VINA RESULT:      -6.3      2.904      6.685
REMARK  3 active torsions:
REMARK  status: ('A' for Active; 'I' for Inactive)
REMARK    1  A    between atoms: C2_2  and  N1_3 
REMARK    2  A    between atoms: C2_2  and  C8_10 
REMARK    3  A    between atoms: N1_3  and  C3_4 
ROOT
HETATM    1  C8  UNL     1      24.075   6.053  49.001  1.00  0.00     0.077 A 
HETATM    2  C9  UNL     1      23.182   5.242  48.089  1.00  0.00     0.035 C 
HETATM    3  C10 UNL     1      24.049   7.457  48.450  1.00  0.00     0.098 A 
HETATM    4  S1  UNL     1      22.655   8.277  48.405  1.00  0.00    -0.064 SA
HETATM    5  N2  UNL     1      25.335   7.890  48.021  1.00  0.00    -0.344 N 
HETATM    6  C11 UNL     1      25.611   9.195  47.453  1.00  0.00     0.157 C 
HETATM    7  C12 UNL     1      26.203   6.792  48.276  1.00  0.00     0.042 A 
HETATM    8  C13 UNL     1      27.556   6.782  48.003  1.00  0.00     0.030 A 
HETATM    9  C14 UNL     1      28.290   5.657  48.293  1.00  0.00     0.002 A 
HETATM   10  C15 UNL     1      27.663   4.571  48.844  1.00  0.00     0.001 A 
HETATM   11  C16 UNL     1      26.309   4.642  49.094  1.00  0.00     0.011 A 
HETATM   12  C17 UNL     1      25.504   5.730  48.834  1.00  0.00    -0.010 A 
ENDROOT
BRANCH   1  13
HETATM   13  C2  UNL     1      23.598   6.082  50.384  1.00  0.00     0.003 C 
HETATM   14  C1  UNL     1      24.230   6.796  51.301  1.00  0.00     0.059 C 
BRANCH  13  15
HETATM   15  N1  UNL     1      22.457   5.371  50.846  1.00  0.00    -0.384 N 
HETATM   16  H3  UNL     1      21.543   5.667  50.439  1.00  0.00     0.160 HD
BRANCH  15  17
HETATM   17  C3  UNL     1      22.577   4.290  51.839  1.00  0.00     0.127 C 
HETATM   18  C4  UNL     1      23.461   3.280  51.250  1.00  0.00     0.003 C 
HETATM   19  C5  UNL     1      23.408   1.959  51.382  1.00  0.00     0.006 C 
HETATM   20  P1  UNL     1      22.064   1.304  52.436  1.00  0.00    -0.083 P 
HETATM   21  C6  UNL     1      20.767   2.627  52.464  1.00  0.00     0.006 C 
HETATM   22  H7  UNL     1      22.521   0.996  53.767  1.00  0.00     0.066 HD
HETATM   23  C7  UNL     1      21.229   3.855  52.170  1.00  0.00     0.003 C 
ENDBRANCH  15  17
ENDBRANCH  13  15
ENDBRANCH   1  13
TORSDOF 3
ENDMDL
MODEL 9
REMARK VINA RESULT:      -6.3      3.774      6.640
REMARK  3 active torsions:
REMARK  status: ('A' for Active; 'I' for Inactive)
REMARK    1  A    between atoms: C2_2  and  N1_3 
REMARK    2  A    between atoms: C2_2  and  C8_10 
REMARK    3  A    between atoms: N1_3  and  C3_4 
ROOT
HETATM    1  C8  UNL     1      21.925   1.745  50.696  1.00  0.00     0.077 A 
HETATM    2  C9  UNL     1      21.541   0.918  49.489  1.00  0.00     0.035 C 
HETATM    3  C10 UNL     1      23.033   2.654  50.229  1.00  0.00     0.098 A 
HETATM    4  S1  UNL     1      22.746   3.739  49.062  1.00  0.00    -0.064 SA
HETATM    5  N2  UNL     1      24.252   2.416  50.922  1.00  0.00    -0.344 N 
HETATM    6  C11 UNL     1      25.484   3.143  50.685  1.00  0.00     0.157 C 
HETATM    7  C12 UNL     1      23.964   1.362  51.833  1.00  0.00     0.042 A 
HETATM    8  C13 UNL     1      24.877   0.810  52.709  1.00  0.00     0.030 A 
HETATM    9  C14 UNL     1      24.477  -0.209  53.540  1.00  0.00     0.002 A 
HETATM   10  C15 UNL     1      23.184  -0.655  53.480  1.00  0.00     0.001 A 
HETATM   11  C16 UNL     1      22.319  -0.063  52.584  1.00  0.00     0.011 A 
HETATM   12  C17 UNL     1      22.640   0.961  51.719  1.00  0.00    -0.010 A 
ENDROOT
BRANCH   1  13
HETATM   13  C2  UNL     1      20.822   2.567  51.195  1.00  0.00     0.003 C 
HETATM   14  C1  UNL     1      21.026   3.468  52.142  1.00  0.00     0.059 C 
BRANCH  13  15
HETATM   15  N1  UNL     1      19.483   2.472  50.724  1.00  0.00    -0.384 N 
HETATM   16  H3  UNL     1      19.324   2.792  49.744  1.00  0.00     0.160 HD
BRANCH  15  17
HETATM   17  C3  UNL     1      18.404   1.953  51.582  1.00  0.00     0.127 C 
HETATM   18  C4  UNL     1      18.649   0.516  51.736  1.00  0.00     0.003 C 
HETATM   19  C5  UNL     1      17.761  -0.466  51.835  1.00  0.00     0.006 C 
HETATM   20  P1  UNL     1      16.000   0.026  51.773  1.00  0.00    -0.083 P 
HETATM   21  C6  UNL     1      15.973   1.668  50.916  1.00  0.00     0.006 C 
HETATM   22  H7  UNL     1      15.416   0.116  53.087  1.00  0.00     0.066 HD
HETATM   23  C7  UNL     1      17.142   2.331  50.964  1.00  0.00     0.003 C 
ENDBRANCH  15  17
ENDBRANCH  13  15
ENDBRANCH   1  13
TORSDOF 3
ENDMDL
