MODEL 1
REMARK VINA RESULT:      -7.7      0.000      0.000
REMARK  1 active torsions:
REMARK  status: ('A' for Active; 'I' for Inactive)
REMARK    1  A    between atoms: O1_2  and  C2_3 
ROOT
HETATM    1  C2  UNL     1      23.201   2.268  50.382  1.00  0.00     0.094 A 
HETATM    2  C3  UNL     1      22.354   1.687  49.463  1.00  0.00     0.040 A 
HETATM    3  C4  UNL     1      21.815   2.379  48.402  1.00  0.00     0.015 A 
HETATM    4  C5  UNL     1      22.218   3.685  48.377  1.00  0.00    -0.026 A 
HETATM    5  C6  UNL     1      23.059   4.278  49.281  1.00  0.00     0.044 A 
HETATM    6  C7  UNL     1      23.603   3.590  50.347  1.00  0.00     0.063 A 
HETATM    7  N1  UNL     1      24.446   4.439  51.117  1.00  0.00    -0.379 N 
HETATM    8  C8  UNL     1      25.550   4.992  50.426  1.00  0.00     0.111 C 
HETATM    9  C9  UNL     1      25.993   4.092  49.259  1.00  0.00     0.029 C 
HETATM   10  C10 UNL     1      27.380   4.660  48.894  1.00  0.00     0.003 C 
HETATM   11  C11 UNL     1      27.217   6.001  48.235  1.00  0.00     0.004 C 
HETATM   12  C12 UNL     1      26.612   7.006  49.180  1.00  0.00     0.036 C 
HETATM   13  C13 UNL     1      25.542   6.356  49.973  1.00  0.00    -0.057 C 
HETATM   14  C14 UNL     1      24.613   7.318  50.196  1.00  0.00     0.006 C 
HETATM   15  C15 UNL     1      23.326   7.393  50.933  1.00  0.00     0.014 C 
HETATM   16  C16 UNL     1      22.140   7.556  50.426  1.00  0.00    -0.013 C 
HETATM   17  P1  UNL     1      22.156   8.408  49.027  1.00  0.00    -0.029 P 
HETATM   18  C17 UNL     1      23.168   7.787  47.669  1.00  0.00     0.166 C 
HETATM   19  N2  UNL     1      22.311   6.739  47.064  1.00  0.00    -0.381 N 
HETATM   20  C18 UNL     1      22.416   6.359  45.687  1.00  0.00     0.086 C 
HETATM   21  C19 UNL     1      22.064   5.177  45.146  1.00  0.00     0.017 C 
HETATM   22  C20 UNL     1      21.640   4.076  46.049  1.00  0.00     0.011 C 
HETATM   23  C21 UNL     1      21.696   4.510  47.287  1.00  0.00    -0.030 C 
HETATM   24  C22 UNL     1      21.256   5.903  47.682  1.00  0.00     0.162 C 
HETATM   25  H7  UNL     1      23.830   4.266  51.940  1.00  0.00     0.160 HD
ENDROOT
BRANCH   1  26
HETATM   26  O1  UNL     1      23.801   1.679  51.487  1.00  0.00    -0.354 OA
HETATM   27  C1  UNL     1      23.178   1.355  52.689  1.00  0.00     0.210 C 
ENDBRANCH   1  26
TORSDOF 1
ENDMDL
MODEL 2
REMARK VINA RESULT:      -7.1      2.154      4.939
REMARK  1 active torsions:
REMARK  status: ('A' for Active; 'I' for Inactive)
REMARK    1  A    between atoms: O1_2  and  C2_3 
ROOT
HETATM    1  C2  UNL     1      26.247   5.568  48.940  1.00  0.00     0.094 A 
HETATM    2  C3  UNL     1      26.038   6.920  48.773  1.00  0.00     0.040 A 
HETATM    3  C4  UNL     1      24.782   7.476  48.677  1.00  0.00     0.015 A 
HETATM    4  C5  UNL     1      23.793   6.538  48.768  1.00  0.00    -0.026 A 
HETATM    5  C6  UNL     1      23.982   5.192  48.936  1.00  0.00     0.044 A 
HETATM    6  C7  UNL     1      25.239   4.628  49.033  1.00  0.00     0.063 A 
HETATM    7  N1  UNL     1      25.146   3.220  49.214  1.00  0.00    -0.379 N 
HETATM    8  C8  UNL     1      24.456   2.798  50.375  1.00  0.00     0.111 C 
HETATM    9  C9  UNL     1      24.538   3.852  51.493  1.00  0.00     0.029 C 
HETATM   10  C10 UNL     1      24.070   3.070  52.738  1.00  0.00     0.003 C 
HETATM   11  C11 UNL     1      22.594   2.803  52.640  1.00  0.00     0.004 C 
HETATM   12  C12 UNL     1      22.275   1.913  51.468  1.00  0.00     0.036 C 
HETATM   13  C13 UNL     1      23.107   2.308  50.307  1.00  0.00    -0.057 C 
HETATM   14  C14 UNL     1      22.345   2.071  49.210  1.00  0.00     0.006 C 
HETATM   15  C15 UNL     1      22.539   2.192  47.744  1.00  0.00     0.014 C 
HETATM   16  C16 UNL     1      21.938   3.016  46.937  1.00  0.00    -0.013 C 
HETATM   17  P1  UNL     1      20.435   3.422  47.446  1.00  0.00    -0.029 P 
HETATM   18  C17 UNL     1      20.263   4.156  49.084  1.00  0.00     0.166 C 
HETATM   19  N2  UNL     1      20.610   5.579  48.853  1.00  0.00    -0.381 N 
HETATM   20  C18 UNL     1      20.106   6.636  49.676  1.00  0.00     0.086 C 
HETATM   21  C19 UNL     1      20.668   7.844  49.873  1.00  0.00     0.017 C 
HETATM   22  C20 UNL     1      22.016   8.107  49.304  1.00  0.00     0.011 C 
HETATM   23  C21 UNL     1      22.416   7.027  48.673  1.00  0.00    -0.030 C 
HETATM   24  C22 UNL     1      21.487   6.186  47.825  1.00  0.00     0.162 C 
HETATM   25  H7  UNL     1      25.684   3.093  48.330  1.00  0.00     0.160 HD
ENDROOT
BRANCH   1  26
HETATM   26  O1  UNL     1      27.456   4.895  49.047  1.00  0.00    -0.354 OA
HETATM   27  C1  UNL     1      28.634   5.204  48.372  1.00  0.00     0.210 C 
ENDBRANCH   1  26
TORSDOF 1
ENDMDL
MODEL 3
REMARK VINA RESULT:      -6.9      5.546      7.684
REMARK  1 active torsions:
REMARK  status: ('A' for Active; 'I' for Inactive)
REMARK    1  A    between atoms: O1_2  and  C2_3 
ROOT
HETATM    1  C2  UNL     1      30.225   5.820  48.267  1.00  0.00     0.094 A 
HETATM    2  C3  UNL     1      28.930   5.365  48.388  1.00  0.00     0.040 A 
HETATM    3  C4  UNL     1      27.832   6.163  48.157  1.00  0.00     0.015 A 
HETATM    4  C5  UNL     1      28.183   7.435  47.801  1.00  0.00    -0.026 A 
HETATM    5  C6  UNL     1      29.464   7.903  47.673  1.00  0.00     0.044 A 
HETATM    6  C7  UNL     1      30.569   7.108  47.903  1.00  0.00     0.063 A 
HETATM    7  N1  UNL     1      31.770   7.841  47.689  1.00  0.00    -0.379 N 
HETATM    8  C8  UNL     1      31.945   8.357  46.384  1.00  0.00     0.111 C 
HETATM    9  C9  UNL     1      31.204   7.506  45.337  1.00  0.00     0.029 C 
HETATM   10  C10 UNL     1      31.809   7.995  44.005  1.00  0.00     0.003 C 
HETATM   11  C11 UNL     1      31.320   9.385  43.710  1.00  0.00     0.004 C 
HETATM   12  C12 UNL     1      31.799  10.366  44.748  1.00  0.00     0.036 C 
HETATM   13  C13 UNL     1      31.715   9.744  46.091  1.00  0.00    -0.057 C 
HETATM   14  C14 UNL     1      31.423  10.755  46.947  1.00  0.00     0.006 C 
HETATM   15  C15 UNL     1      31.234  10.874  48.414  1.00  0.00     0.014 C 
HETATM   16  C16 UNL     1      30.132  11.157  49.044  1.00  0.00    -0.013 C 
HETATM   17  P1  UNL     1      29.119  12.096  48.163  1.00  0.00    -0.029 P 
HETATM   18  C17 UNL     1      28.596  11.495  46.545  1.00  0.00     0.166 C 
HETATM   19  N2  UNL     1      27.499  10.555  46.874  1.00  0.00    -0.381 N 
HETATM   20  C18 UNL     1      26.437  10.261  45.958  1.00  0.00     0.086 C 
HETATM   21  C19 UNL     1      25.682   9.146  45.929  1.00  0.00     0.017 C 
HETATM   22  C20 UNL     1      26.032   8.021  46.834  1.00  0.00     0.011 C 
HETATM   23  C21 UNL     1      27.086   8.367  47.536  1.00  0.00    -0.030 C 
HETATM   24  C22 UNL     1      27.268   9.759  48.102  1.00  0.00     0.162 C 
HETATM   25  H7  UNL     1      32.031   7.659  48.682  1.00  0.00     0.160 HD
ENDROOT
BRANCH   1  26
HETATM   26  O1  UNL     1      31.403   5.116  48.474  1.00  0.00    -0.354 OA
HETATM   27  C1  UNL     1      32.041   4.288  47.554  1.00  0.00     0.210 C 
ENDBRANCH   1  26
TORSDOF 1
ENDMDL
MODEL 4
REMARK VINA RESULT:      -6.8      6.412      9.623
REMARK  1 active torsions:
REMARK  status: ('A' for Active; 'I' for Inactive)
REMARK    1  A    between atoms: O1_2  and  C2_3 
ROOT
HETATM    1  C2  UNL     1      28.157   7.313  47.360  1.00  0.00     0.094 A 
HETATM    2  C3  UNL     1      28.374   6.184  48.120  1.00  0.00     0.040 A 
HETATM    3  C4  UNL     1      29.615   5.602  48.256  1.00  0.00     0.015 A 
HETATM    4  C5  UNL     1      30.580   6.272  47.559  1.00  0.00    -0.026 A 
HETATM    5  C6  UNL     1      30.382   7.396  46.801  1.00  0.00     0.044 A 
HETATM    6  C7  UNL     1      29.142   7.984  46.661  1.00  0.00     0.063 A 
HETATM    7  N1  UNL     1      29.223   9.139  45.832  1.00  0.00    -0.379 N 
HETATM    8  C8  UNL     1      30.074  10.167  46.301  1.00  0.00     0.111 C 
HETATM    9  C9  UNL     1      30.197  10.142  47.835  1.00  0.00     0.029 C 
HETATM   10  C10 UNL     1      30.832  11.511  48.152  1.00  0.00     0.003 C 
HETATM   11  C11 UNL     1      32.266  11.517  47.705  1.00  0.00     0.004 C 
HETATM   12  C12 UNL     1      32.374  11.366  46.210  1.00  0.00     0.036 C 
HETATM   13  C13 UNL     1      31.382  10.369  45.742  1.00  0.00    -0.057 C 
HETATM   14  C14 UNL     1      31.956   9.747  44.682  1.00  0.00     0.006 C 
HETATM   15  C15 UNL     1      31.539   8.695  43.722  1.00  0.00     0.014 C 
HETATM   16  C16 UNL     1      32.028   7.496  43.609  1.00  0.00    -0.013 C 
HETATM   17  P1  UNL     1      33.603   7.407  44.051  1.00  0.00    -0.029 P 
HETATM   18  C17 UNL     1      34.049   7.944  45.715  1.00  0.00     0.166 C 
HETATM   19  N2  UNL     1      33.710   6.767  46.549  1.00  0.00    -0.381 N 
HETATM   20  C18 UNL     1      34.365   6.492  47.793  1.00  0.00     0.086 C 
HETATM   21  C19 UNL     1      33.873   5.778  48.824  1.00  0.00     0.017 C 
HETATM   22  C20 UNL     1      32.461   5.319  48.767  1.00  0.00     0.011 C 
HETATM   23  C21 UNL     1      31.937   5.730  47.635  1.00  0.00    -0.030 C 
HETATM   24  C22 UNL     1      32.700   5.706  46.328  1.00  0.00     0.162 C 
HETATM   25  H7  UNL     1      28.550   8.687  45.176  1.00  0.00     0.160 HD
ENDROOT
BRANCH   1  26
HETATM   26  O1  UNL     1      26.961   7.985  47.147  1.00  0.00    -0.354 OA
HETATM   27  C1  UNL     1      25.703   7.590  47.592  1.00  0.00     0.210 C 
ENDBRANCH   1  26
TORSDOF 1
ENDMDL
MODEL 5
REMARK VINA RESULT:      -6.8      2.592      5.769
REMARK  1 active torsions:
REMARK  status: ('A' for Active; 'I' for Inactive)
REMARK    1  A    between atoms: O1_2  and  C2_3 
ROOT
HETATM    1  C2  UNL     1      23.589   0.908  52.747  1.00  0.00     0.094 A 
HETATM    2  C3  UNL     1      24.425   1.871  53.269  1.00  0.00     0.040 A 
HETATM    3  C4  UNL     1      24.496   3.151  52.765  1.00  0.00     0.015 A 
HETATM    4  C5  UNL     1      23.651   3.338  51.707  1.00  0.00    -0.026 A 
HETATM    5  C6  UNL     1      22.812   2.393  51.178  1.00  0.00     0.044 A 
HETATM    6  C7  UNL     1      22.737   1.109  51.679  1.00  0.00     0.063 A 
HETATM    7  N1  UNL     1      21.783   0.341  50.953  1.00  0.00    -0.379 N 
HETATM    8  C8  UNL     1      20.456   0.833  50.981  1.00  0.00     0.111 C 
HETATM    9  C9  UNL     1      20.182   1.645  52.259  1.00  0.00     0.029 C 
HETATM   10  C10 UNL     1      18.645   1.762  52.270  1.00  0.00     0.003 C 
HETATM   11  C11 UNL     1      18.202   2.697  51.181  1.00  0.00     0.004 C 
HETATM   12  C12 UNL     1      18.550   2.156  49.819  1.00  0.00     0.036 C 
HETATM   13  C13 UNL     1      19.897   1.540  49.862  1.00  0.00    -0.057 C 
HETATM   14  C14 UNL     1      20.439   1.754  48.637  1.00  0.00     0.006 C 
HETATM   15  C15 UNL     1      21.714   1.392  47.969  1.00  0.00     0.014 C 
HETATM   16  C16 UNL     1      22.661   2.200  47.594  1.00  0.00    -0.013 C 
HETATM   17  P1  UNL     1      22.109   3.693  47.210  1.00  0.00    -0.029 P 
HETATM   18  C17 UNL     1      21.182   4.603  48.461  1.00  0.00     0.166 C 
HETATM   19  N2  UNL     1      22.248   5.176  49.317  1.00  0.00    -0.381 N 
HETATM   20  C18 UNL     1      22.062   6.378  50.075  1.00  0.00     0.086 C 
HETATM   21  C19 UNL     1      22.723   6.739  51.192  1.00  0.00     0.017 C 
HETATM   22  C20 UNL     1      23.658   5.766  51.814  1.00  0.00     0.011 C 
HETATM   23  C21 UNL     1      23.653   4.668  51.095  1.00  0.00    -0.030 C 
HETATM   24  C22 UNL     1      23.619   4.684  49.582  1.00  0.00     0.162 C 
HETATM   25  H7  UNL     1      22.546  -0.320  50.694  1.00  0.00     0.160 HD
ENDROOT
BRANCH   1  26
HETATM   26  O1  UNL     1      23.432  -0.407  53.165  1.00  0.00    -0.354 OA
HETATM   27  C1  UNL     1      22.662  -0.844  54.240  1.00  0.00     0.210 C 
ENDBRANCH   1  26
TORSDOF 1
ENDMDL
MODEL 6
REMARK VINA RESULT:      -6.8      2.464      6.024
REMARK  1 active torsions:
REMARK  status: ('A' for Active; 'I' for Inactive)
REMARK    1  A    between atoms: O1_2  and  C2_3 
ROOT
HETATM    1  C2  UNL     1      23.449   8.618  46.404  1.00  0.00     0.094 A 
HETATM    2  C3  UNL     1      24.799   8.891  46.371  1.00  0.00     0.040 A 
HETATM    3  C4  UNL     1      25.718   8.208  47.137  1.00  0.00     0.015 A 
HETATM    4  C5  UNL     1      25.133   7.249  47.914  1.00  0.00    -0.026 A 
HETATM    5  C6  UNL     1      23.794   6.964  47.958  1.00  0.00     0.044 A 
HETATM    6  C7  UNL     1      22.868   7.644  47.193  1.00  0.00     0.063 A 
HETATM    7  N1  UNL     1      21.557   7.141  47.423  1.00  0.00    -0.379 N 
HETATM    8  C8  UNL     1      21.366   5.773  47.114  1.00  0.00     0.111 C 
HETATM    9  C9  UNL     1      22.338   5.301  46.018  1.00  0.00     0.029 C 
HETATM   10  C10 UNL     1      21.735   3.951  45.582  1.00  0.00     0.003 C 
HETATM   11  C11 UNL     1      21.940   2.932  46.668  1.00  0.00     0.004 C 
HETATM   12  C12 UNL     1      21.197   3.313  47.922  1.00  0.00     0.036 C 
HETATM   13  C13 UNL     1      21.319   4.773  48.145  1.00  0.00    -0.057 C 
HETATM   14  C14 UNL     1      21.334   4.940  49.490  1.00  0.00     0.006 C 
HETATM   15  C15 UNL     1      21.394   6.105  50.409  1.00  0.00     0.014 C 
HETATM   16  C16 UNL     1      22.367   6.423  51.210  1.00  0.00    -0.013 C 
HETATM   17  P1  UNL     1      23.218   5.123  51.728  1.00  0.00    -0.029 P 
HETATM   18  C17 UNL     1      23.962   4.047  50.486  1.00  0.00     0.166 C 
HETATM   19  N2  UNL     1      25.208   4.765  50.125  1.00  0.00    -0.381 N 
HETATM   20  C18 UNL     1      26.367   4.089  49.623  1.00  0.00     0.086 C 
HETATM   21  C19 UNL     1      27.340   4.615  48.855  1.00  0.00     0.017 C 
HETATM   22  C20 UNL     1      27.174   5.999  48.339  1.00  0.00     0.011 C 
HETATM   23  C21 UNL     1      26.025   6.467  48.772  1.00  0.00    -0.030 C 
HETATM   24  C22 UNL     1      25.518   6.213  50.174  1.00  0.00     0.162 C 
HETATM   25  H7  UNL     1      21.274   8.091  47.746  1.00  0.00     0.160 HD
ENDROOT
BRANCH   1  26
HETATM   26  O1  UNL     1      22.434   9.235  45.686  1.00  0.00    -0.354 OA
HETATM   27  C1  UNL     1      22.086   8.976  44.362  1.00  0.00     0.210 C 
ENDBRANCH   1  26
TORSDOF 1
ENDMDL
MODEL 7
REMARK VINA RESULT:      -6.7      2.101      5.191
REMARK  1 active torsions:
REMARK  status: ('A' for Active; 'I' for Inactive)
REMARK    1  A    between atoms: O1_2  and  C2_3 
ROOT
HETATM    1  C2  UNL     1      21.969   3.669  46.425  1.00  0.00     0.094 A 
HETATM    2  C3  UNL     1      22.152   2.472  47.083  1.00  0.00     0.040 A 
HETATM    3  C4  UNL     1      22.692   2.390  48.348  1.00  0.00     0.015 A 
HETATM    4  C5  UNL     1      23.015   3.617  48.853  1.00  0.00    -0.026 A 
HETATM    5  C6  UNL     1      22.839   4.816  48.213  1.00  0.00     0.044 A 
HETATM    6  C7  UNL     1      22.299   4.905  46.947  1.00  0.00     0.063 A 
HETATM    7  N1  UNL     1      22.219   6.263  46.528  1.00  0.00    -0.379 N 
HETATM    8  C8  UNL     1      21.420   7.105  47.336  1.00  0.00     0.111 C 
HETATM    9  C9  UNL     1      20.314   6.312  48.055  1.00  0.00     0.029 C 
HETATM   10  C10 UNL     1      19.367   7.421  48.559  1.00  0.00     0.003 C 
HETATM   11  C11 UNL     1      20.023   8.171  49.684  1.00  0.00     0.004 C 
HETATM   12  C12 UNL     1      21.261   8.888  49.216  1.00  0.00     0.036 C 
HETATM   13  C13 UNL     1      22.009   8.020  48.275  1.00  0.00    -0.057 C 
HETATM   14  C14 UNL     1      23.319   8.309  48.469  1.00  0.00     0.006 C 
HETATM   15  C15 UNL     1      24.600   7.863  47.865  1.00  0.00     0.014 C 
HETATM   16  C16 UNL     1      25.541   7.173  48.438  1.00  0.00    -0.013 C 
HETATM   17  P1  UNL     1      25.621   7.425  50.055  1.00  0.00    -0.029 P 
HETATM   18  C17 UNL     1      24.140   7.110  51.036  1.00  0.00     0.166 C 
HETATM   19  N2  UNL     1      24.171   5.640  51.226  1.00  0.00    -0.381 N 
HETATM   20  C18 UNL     1      23.557   4.998  52.350  1.00  0.00     0.086 C 
HETATM   21  C19 UNL     1      23.118   3.726  52.412  1.00  0.00     0.017 C 
HETATM   22  C20 UNL     1      23.128   2.905  51.174  1.00  0.00     0.011 C 
HETATM   23  C21 UNL     1      23.602   3.639  50.194  1.00  0.00    -0.030 C 
HETATM   24  C22 UNL     1      24.769   4.586  50.375  1.00  0.00     0.162 C 
HETATM   25  H7  UNL     1      22.840   6.028  45.724  1.00  0.00     0.160 HD
ENDROOT
BRANCH   1  26
HETATM   26  O1  UNL     1      21.441   3.878  45.158  1.00  0.00    -0.354 OA
HETATM   27  C1  UNL     1      20.090   3.896  44.821  1.00  0.00     0.210 C 
ENDBRANCH   1  26
TORSDOF 1
ENDMDL
MODEL 8
REMARK VINA RESULT:      -6.6      4.936      8.057
REMARK  1 active torsions:
REMARK  status: ('A' for Active; 'I' for Inactive)
REMARK    1  A    between atoms: O1_2  and  C2_3 
ROOT
HETATM    1  C2  UNL     1      30.525   7.804  48.807  1.00  0.00     0.094 A 
HETATM    2  C3  UNL     1      31.271   8.857  49.291  1.00  0.00     0.040 A 
HETATM    3  C4  UNL     1      30.934  10.174  49.074  1.00  0.00     0.015 A 
HETATM    4  C5  UNL     1      29.792  10.300  48.335  1.00  0.00    -0.026 A 
HETATM    5  C6  UNL     1      29.037   9.266  47.847  1.00  0.00     0.044 A 
HETATM    6  C7  UNL     1      29.370   7.944  48.062  1.00  0.00     0.063 A 
HETATM    7  N1  UNL     1      28.414   7.080  47.457  1.00  0.00    -0.379 N 
HETATM    8  C8  UNL     1      27.087   7.214  47.930  1.00  0.00     0.111 C 
HETATM    9  C9  UNL     1      27.054   7.730  49.379  1.00  0.00     0.029 C 
HETATM   10  C10 UNL     1      25.598   7.454  49.809  1.00  0.00     0.003 C 
HETATM   11  C11 UNL     1      24.674   8.402  49.098  1.00  0.00     0.004 C 
HETATM   12  C12 UNL     1      24.698   8.176  47.609  1.00  0.00     0.036 C 
HETATM   13  C13 UNL     1      26.091   7.918  47.171  1.00  0.00    -0.057 C 
HETATM   14  C14 UNL     1      26.188   8.443  45.925  1.00  0.00     0.006 C 
HETATM   15  C15 UNL     1      27.249   8.517  44.890  1.00  0.00     0.014 C 
HETATM   16  C16 UNL     1      27.862   9.584  44.468  1.00  0.00    -0.013 C 
HETATM   17  P1  UNL     1      26.936  10.931  44.569  1.00  0.00    -0.029 P 
HETATM   18  C17 UNL     1      26.266  11.380  46.182  1.00  0.00     0.166 C 
HETATM   19  N2  UNL     1      27.404  12.067  46.839  1.00  0.00    -0.381 N 
HETATM   20  C18 UNL     1      27.219  13.055  47.859  1.00  0.00     0.086 C 
HETATM   21  C19 UNL     1      28.100  13.398  48.820  1.00  0.00     0.017 C 
HETATM   22  C20 UNL     1      29.351  12.608  48.957  1.00  0.00     0.011 C 
HETATM   23  C21 UNL     1      29.348  11.665  48.044  1.00  0.00    -0.030 C 
HETATM   24  C22 UNL     1      28.861  11.900  46.631  1.00  0.00     0.162 C 
HETATM   25  H7  UNL     1      29.179   6.678  46.875  1.00  0.00     0.160 HD
ENDROOT
BRANCH   1  26
HETATM   26  O1  UNL     1      30.763   6.445  48.958  1.00  0.00    -0.354 OA
HETATM   27  C1  UNL     1      31.958   5.858  49.366  1.00  0.00     0.210 C 
ENDBRANCH   1  26
TORSDOF 1
ENDMDL
MODEL 9
REMARK VINA RESULT:      -6.5      5.189      6.992
REMARK  1 active torsions:
REMARK  status: ('A' for Active; 'I' for Inactive)
REMARK    1  A    between atoms: O1_2  and  C2_3 
ROOT
HETATM    1  C2  UNL     1      19.423  -0.380  53.373  1.00  0.00     0.094 A 
HETATM    2  C3  UNL     1      18.522  -1.422  53.344  1.00  0.00     0.040 A 
HETATM    3  C4  UNL     1      17.442  -1.453  52.490  1.00  0.00     0.015 A 
HETATM    4  C5  UNL     1      17.379  -0.344  51.695  1.00  0.00    -0.026 A 
HETATM    5  C6  UNL     1      18.266   0.700  51.709  1.00  0.00     0.044 A 
HETATM    6  C7  UNL     1      19.351   0.736  52.562  1.00  0.00     0.063 A 
HETATM    7  N1  UNL     1      20.110   1.923  52.360  1.00  0.00    -0.379 N 
HETATM    8  C8  UNL     1      20.648   2.090  51.062  1.00  0.00     0.111 C 
HETATM    9  C9  UNL     1      20.884   0.735  50.371  1.00  0.00     0.029 C 
HETATM   10  C10 UNL     1      21.785   1.110  49.177  1.00  0.00     0.003 C 
HETATM   11  C11 UNL     1      20.982   1.867  48.157  1.00  0.00     0.004 C 
HETATM   12  C12 UNL     1      20.491   3.179  48.712  1.00  0.00     0.036 C 
HETATM   13  C13 UNL     1      20.049   2.988  50.114  1.00  0.00    -0.057 C 
HETATM   14  C14 UNL     1      19.020   3.852  50.297  1.00  0.00     0.006 C 
HETATM   15  C15 UNL     1      18.144   4.223  51.436  1.00  0.00     0.014 C 
HETATM   16  C16 UNL     1      16.867   4.005  51.548  1.00  0.00    -0.013 C 
HETATM   17  P1  UNL     1      16.098   3.964  50.102  1.00  0.00    -0.029 P 
HETATM   18  C17 UNL     1      16.673   2.779  48.870  1.00  0.00     0.166 C 
HETATM   19  N2  UNL     1      16.025   1.514  49.292  1.00  0.00    -0.381 N 
HETATM   20  C18 UNL     1      15.724   0.459  48.371  1.00  0.00     0.086 C 
HETATM   21  C19 UNL     1      15.583  -0.849  48.660  1.00  0.00     0.017 C 
HETATM   22  C20 UNL     1      15.889  -1.314  50.038  1.00  0.00     0.011 C 
HETATM   23  C21 UNL     1      16.262  -0.276  50.752  1.00  0.00    -0.030 C 
HETATM   24  C22 UNL     1      15.590   1.075  50.638  1.00  0.00     0.162 C 
HETATM   25  H7  UNL     1      19.930   2.181  53.354  1.00  0.00     0.160 HD
ENDROOT
BRANCH   1  26
HETATM   26  O1  UNL     1      20.541  -0.236  54.183  1.00  0.00    -0.354 OA
HETATM   27  C1  UNL     1      21.721  -0.971  54.098  1.00  0.00     0.210 C 
ENDBRANCH   1  26
TORSDOF 1
ENDMDL
