MODEL 1
REMARK VINA RESULT:      -7.4      0.000      0.000
REMARK  4 active torsions:
REMARK  status: ('A' for Active; 'I' for Inactive)
REMARK    1  A    between atoms: C2_2  and  C3_3 
REMARK    2  A    between atoms: C3_3  and  N1_4 
REMARK    3  A    between atoms: N1_4  and  C4_5 
REMARK    4  A    between atoms: N2_17  and  O1_18 
ROOT
HETATM    1  C1  UNL     1      23.495   2.455  50.450  1.00  0.00     0.037 C 
HETATM    2  C2  UNL     1      23.104   2.512  51.914  1.00  0.00     0.080 C 
HETATM    3  C10 UNL     1      22.975   1.170  52.450  1.00  0.00    -0.151 C 
HETATM    4  C11 UNL     1      22.864   0.097  52.898  1.00  0.00     0.044 A 
HETATM    5  C12 UNL     1      22.729  -1.161  53.453  1.00  0.00     0.023 A 
HETATM    6  C13 UNL     1      21.501  -0.745  53.633  1.00  0.00     0.037 A 
HETATM    7  C14 UNL     1      20.506   0.269  53.501  1.00  0.00    -0.000 C 
HETATM    8  C15 UNL     1      20.042   1.437  53.148  1.00  0.00     0.120 C 
HETATM    9  N2  UNL     1      20.521   2.613  52.513  1.00  0.00    -0.228 N 
HETATM   10  C16 UNL     1      21.748   3.153  51.969  1.00  0.00     0.127 C 
HETATM   11  S1  UNL     1      21.836   4.623  51.278  1.00  0.00    -0.061 SA
ENDROOT
BRANCH   2  12
HETATM   12  C3  UNL     1      24.133   3.197  52.751  1.00  0.00     0.148 C 
BRANCH  12  13
HETATM   13  N1  UNL     1      25.484   3.107  52.336  1.00  0.00    -0.388 N 
HETATM   14  H6  UNL     1      26.168   3.675  51.782  1.00  0.00     0.159 HD
BRANCH  13  15
HETATM   15  C4  UNL     1      26.084   1.883  52.804  1.00  0.00     0.028 A 
HETATM   16  C5  UNL     1      26.284   1.576  54.133  1.00  0.00     0.029 A 
HETATM   17  C6  UNL     1      26.855   0.415  54.614  1.00  0.00     0.002 A 
HETATM   18  C7  UNL     1      27.263  -0.519  53.686  1.00  0.00     0.000 A 
HETATM   19  C8  UNL     1      27.109  -0.308  52.334  1.00  0.00     0.002 A 
HETATM   20  C9  UNL     1      26.527   0.880  51.957  1.00  0.00     0.029 A 
ENDBRANCH  13  15
ENDBRANCH  12  13
ENDBRANCH   2  12
BRANCH   9  21
HETATM   21  O1  UNL     1      19.565   3.571  52.331  1.00  0.00    -0.282 OA
HETATM   22  H16 UNL     1      19.917   4.177  51.641  1.00  0.00     0.245 HD
ENDBRANCH   9  21
TORSDOF 4
ENDMDL
MODEL 2
REMARK VINA RESULT:      -7.4      3.362      4.792
REMARK  4 active torsions:
REMARK  status: ('A' for Active; 'I' for Inactive)
REMARK    1  A    between atoms: C2_2  and  C3_3 
REMARK    2  A    between atoms: C3_3  and  N1_4 
REMARK    3  A    between atoms: N1_4  and  C4_5 
REMARK    4  A    between atoms: N2_17  and  O1_18 
ROOT
HETATM    1  C1  UNL     1      24.535   3.184  53.350  1.00  0.00     0.037 C 
HETATM    2  C2  UNL     1      24.564   1.743  52.878  1.00  0.00     0.080 C 
HETATM    3  C10 UNL     1      23.317   1.081  53.212  1.00  0.00    -0.151 C 
HETATM    4  C11 UNL     1      22.321   0.532  53.474  1.00  0.00     0.044 A 
HETATM    5  C12 UNL     1      21.150  -0.140  53.772  1.00  0.00     0.023 A 
HETATM    6  C13 UNL     1      21.975  -0.884  54.467  1.00  0.00     0.037 A 
HETATM    7  C14 UNL     1      23.296  -1.180  54.915  1.00  0.00    -0.000 C 
HETATM    8  C15 UNL     1      24.586  -0.997  55.009  1.00  0.00     0.120 C 
HETATM    9  N2  UNL     1      25.560  -0.088  54.519  1.00  0.00    -0.228 N 
HETATM   10  C16 UNL     1      25.658   1.064  53.650  1.00  0.00     0.127 C 
HETATM   11  S1  UNL     1      27.056   1.849  53.379  1.00  0.00    -0.061 SA
ENDROOT
BRANCH   2  12
HETATM   12  C3  UNL     1      24.710   1.634  51.397  1.00  0.00     0.148 C 
BRANCH  12  13
HETATM   13  N1  UNL     1      23.984   2.549  50.595  1.00  0.00    -0.388 N 
HETATM   14  H6  UNL     1      22.989   2.726  50.322  1.00  0.00     0.159 HD
BRANCH  13  15
HETATM   15  C4  UNL     1      24.871   3.501  49.974  1.00  0.00     0.028 A 
HETATM   16  C5  UNL     1      26.213   3.280  49.751  1.00  0.00     0.029 A 
HETATM   17  C6  UNL     1      27.088   4.170  49.161  1.00  0.00     0.002 A 
HETATM   18  C7  UNL     1      26.577   5.386  48.761  1.00  0.00     0.000 A 
HETATM   19  C8  UNL     1      25.250   5.705  48.939  1.00  0.00     0.002 A 
HETATM   20  C9  UNL     1      24.461   4.750  49.536  1.00  0.00     0.029 A 
ENDBRANCH  13  15
ENDBRANCH  12  13
ENDBRANCH   2  12
BRANCH   9  21
HETATM   21  O1  UNL     1      26.821  -0.328  54.985  1.00  0.00    -0.282 OA
HETATM   22  H16 UNL     1      27.369   0.434  54.687  1.00  0.00     0.245 HD
ENDBRANCH   9  21
TORSDOF 4
ENDMDL
MODEL 3
REMARK VINA RESULT:      -6.9      1.509      1.732
REMARK  4 active torsions:
REMARK  status: ('A' for Active; 'I' for Inactive)
REMARK    1  A    between atoms: C2_2  and  C3_3 
REMARK    2  A    between atoms: C3_3  and  N1_4 
REMARK    3  A    between atoms: N1_4  and  C4_5 
REMARK    4  A    between atoms: N2_17  and  O1_18 
ROOT
HETATM    1  C1  UNL     1      24.526   2.854  49.864  1.00  0.00     0.037 C 
HETATM    2  C2  UNL     1      24.072   2.979  51.306  1.00  0.00     0.080 C 
HETATM    3  C10 UNL     1      23.268   1.831  51.679  1.00  0.00    -0.151 C 
HETATM    4  C11 UNL     1      22.617   0.915  51.996  1.00  0.00     0.044 A 
HETATM    5  C12 UNL     1      21.845  -0.159  52.397  1.00  0.00     0.023 A 
HETATM    6  C13 UNL     1      20.954   0.786  52.567  1.00  0.00     0.037 A 
HETATM    7  C14 UNL     1      20.582   2.161  52.506  1.00  0.00    -0.000 C 
HETATM    8  C15 UNL     1      20.768   3.431  52.268  1.00  0.00     0.120 C 
HETATM    9  N2  UNL     1      21.808   4.273  51.794  1.00  0.00    -0.228 N 
HETATM   10  C16 UNL     1      23.189   4.191  51.371  1.00  0.00     0.127 C 
HETATM   11  S1  UNL     1      24.034   5.482  50.857  1.00  0.00    -0.061 SA
ENDROOT
BRANCH   2  12
HETATM   12  C3  UNL     1      25.219   3.012  52.261  1.00  0.00     0.148 C 
BRANCH  12  13
HETATM   13  N1  UNL     1      26.518   2.803  51.736  1.00  0.00    -0.388 N 
HETATM   14  H6  UNL     1      27.156   3.247  51.035  1.00  0.00     0.159 HD
BRANCH  13  15
HETATM   15  C4  UNL     1      27.132   1.644  52.336  1.00  0.00     0.028 A 
HETATM   16  C5  UNL     1      28.219   1.693  53.182  1.00  0.00     0.029 A 
HETATM   17  C6  UNL     1      28.830   0.604  53.772  1.00  0.00     0.002 A 
HETATM   18  C7  UNL     1      28.310  -0.641  53.488  1.00  0.00     0.000 A 
HETATM   19  C8  UNL     1      27.225  -0.798  52.654  1.00  0.00     0.002 A 
HETATM   20  C9  UNL     1      26.688   0.349  52.119  1.00  0.00     0.029 A 
ENDBRANCH  13  15
ENDBRANCH  12  13
ENDBRANCH   2  12
BRANCH   9  21
HETATM   21  O1  UNL     1      21.448   5.585  51.679  1.00  0.00    -0.282 OA
HETATM   22  H16 UNL     1      20.482   5.584  51.486  1.00  0.00     0.245 HD
ENDBRANCH   9  21
TORSDOF 4
ENDMDL
MODEL 4
REMARK VINA RESULT:      -6.8      2.408      3.792
REMARK  4 active torsions:
REMARK  status: ('A' for Active; 'I' for Inactive)
REMARK    1  A    between atoms: C2_2  and  C3_3 
REMARK    2  A    between atoms: C3_3  and  N1_4 
REMARK    3  A    between atoms: N1_4  and  C4_5 
REMARK    4  A    between atoms: N2_17  and  O1_18 
ROOT
HETATM    1  C1  UNL     1      23.967   3.374  52.812  1.00  0.00     0.037 C 
HETATM    2  C2  UNL     1      24.146   2.503  51.584  1.00  0.00     0.080 C 
HETATM    3  C10 UNL     1      23.798   3.247  50.388  1.00  0.00    -0.151 C 
HETATM    4  C11 UNL     1      23.521   3.830  49.415  1.00  0.00     0.044 A 
HETATM    5  C12 UNL     1      23.200   4.498  48.249  1.00  0.00     0.023 A 
HETATM    6  C13 UNL     1      22.306   3.544  48.170  1.00  0.00     0.037 A 
HETATM    7  C14 UNL     1      21.698   2.371  48.706  1.00  0.00    -0.000 C 
HETATM    8  C15 UNL     1      21.531   1.414  49.578  1.00  0.00     0.120 C 
HETATM    9  N2  UNL     1      22.102   0.999  50.810  1.00  0.00    -0.228 N 
HETATM   10  C16 UNL     1      23.166   1.373  51.715  1.00  0.00     0.127 C 
HETATM   11  S1  UNL     1      23.465   0.581  53.103  1.00  0.00    -0.061 SA
ENDROOT
BRANCH   2  12
HETATM   12  C3  UNL     1      25.560   2.061  51.403  1.00  0.00     0.148 C 
BRANCH  12  13
HETATM   13  N1  UNL     1      26.537   2.610  52.270  1.00  0.00    -0.388 N 
HETATM   14  H6  UNL     1      26.816   3.552  52.632  1.00  0.00     0.159 HD
BRANCH  13  15
HETATM   15  C4  UNL     1      27.393   1.577  52.796  1.00  0.00     0.028 A 
HETATM   16  C5  UNL     1      27.156   0.226  52.653  1.00  0.00     0.029 A 
HETATM   17  C6  UNL     1      27.955  -0.787  53.145  1.00  0.00     0.002 A 
HETATM   18  C7  UNL     1      29.086  -0.418  53.841  1.00  0.00     0.000 A 
HETATM   19  C8  UNL     1      29.413   0.905  54.038  1.00  0.00     0.002 A 
HETATM   20  C9  UNL     1      28.553   1.838  53.508  1.00  0.00     0.029 A 
ENDBRANCH  13  15
ENDBRANCH  12  13
ENDBRANCH   2  12
BRANCH   9  21
HETATM   21  O1  UNL     1      21.493  -0.091  51.362  1.00  0.00    -0.282 OA
HETATM   22  H16 UNL     1      22.149  -0.482  51.982  1.00  0.00     0.245 HD
ENDBRANCH   9  21
TORSDOF 4
ENDMDL
MODEL 5
REMARK VINA RESULT:      -6.6      2.681      5.569
REMARK  4 active torsions:
REMARK  status: ('A' for Active; 'I' for Inactive)
REMARK    1  A    between atoms: C2_2  and  C3_3 
REMARK    2  A    between atoms: C3_3  and  N1_4 
REMARK    3  A    between atoms: N1_4  and  C4_5 
REMARK    4  A    between atoms: N2_17  and  O1_18 
ROOT
HETATM    1  C1  UNL     1      23.209   4.070  52.671  1.00  0.00     0.037 C 
HETATM    2  C2  UNL     1      23.666   3.012  51.685  1.00  0.00     0.080 C 
HETATM    3  C10 UNL     1      23.932   1.765  52.378  1.00  0.00    -0.151 C 
HETATM    4  C11 UNL     1      24.152   0.754  52.918  1.00  0.00     0.044 A 
HETATM    5  C12 UNL     1      24.417  -0.454  53.535  1.00  0.00     0.023 A 
HETATM    6  C13 UNL     1      25.615  -0.220  53.058  1.00  0.00     0.037 A 
HETATM    7  C14 UNL     1      26.514   0.610  52.326  1.00  0.00    -0.000 C 
HETATM    8  C15 UNL     1      26.862   1.660  51.632  1.00  0.00     0.120 C 
HETATM    9  N2  UNL     1      26.257   2.847  51.142  1.00  0.00    -0.228 N 
HETATM   10  C16 UNL     1      24.965   3.496  51.111  1.00  0.00     0.127 C 
HETATM   11  S1  UNL     1      24.722   4.947  50.417  1.00  0.00    -0.061 SA
ENDROOT
BRANCH   2  12
HETATM   12  C3  UNL     1      22.626   2.705  50.660  1.00  0.00     0.148 C 
BRANCH  12  13
HETATM   13  N1  UNL     1      22.391   1.344  50.347  1.00  0.00    -0.388 N 
HETATM   14  H6  UNL     1      22.929   0.526  49.976  1.00  0.00     0.159 HD
BRANCH  13  15
HETATM   15  C4  UNL     1      21.019   0.988  50.608  1.00  0.00     0.028 A 
HETATM   16  C5  UNL     1      19.969   1.280  49.765  1.00  0.00     0.029 A 
HETATM   17  C6  UNL     1      18.645   0.954  49.985  1.00  0.00     0.002 A 
HETATM   18  C7  UNL     1      18.347   0.280  51.150  1.00  0.00     0.000 A 
HETATM   19  C8  UNL     1      19.324  -0.059  52.059  1.00  0.00     0.002 A 
HETATM   20  C9  UNL     1      20.612   0.310  51.746  1.00  0.00     0.029 A 
ENDBRANCH  13  15
ENDBRANCH  12  13
ENDBRANCH   2  12
BRANCH   9  21
HETATM   21  O1  UNL     1      27.121   3.676  50.487  1.00  0.00    -0.282 OA
HETATM   22  H16 UNL     1      26.647   4.532  50.381  1.00  0.00     0.245 HD
ENDBRANCH   9  21
TORSDOF 4
ENDMDL
MODEL 6
REMARK VINA RESULT:      -6.6      2.730      4.752
REMARK  4 active torsions:
REMARK  status: ('A' for Active; 'I' for Inactive)
REMARK    1  A    between atoms: C2_2  and  C3_3 
REMARK    2  A    between atoms: C3_3  and  N1_4 
REMARK    3  A    between atoms: N1_4  and  C4_5 
REMARK    4  A    between atoms: N2_17  and  O1_18 
ROOT
HETATM    1  C1  UNL     1      21.768   0.380  51.188  1.00  0.00     0.037 C 
HETATM    2  C2  UNL     1      22.485   0.973  52.387  1.00  0.00     0.080 C 
HETATM    3  C10 UNL     1      23.920   0.931  52.182  1.00  0.00    -0.151 C 
HETATM    4  C11 UNL     1      25.078   0.904  52.036  1.00  0.00     0.044 A 
HETATM    5  C12 UNL     1      26.452   0.885  51.885  1.00  0.00     0.023 A 
HETATM    6  C13 UNL     1      26.370   0.127  52.950  1.00  0.00     0.037 A 
HETATM    7  C14 UNL     1      25.586  -0.520  53.951  1.00  0.00    -0.000 C 
HETATM    8  C15 UNL     1      24.480  -0.861  54.556  1.00  0.00     0.120 C 
HETATM    9  N2  UNL     1      23.086  -0.641  54.404  1.00  0.00    -0.228 N 
HETATM   10  C16 UNL     1      22.168   0.085  53.555  1.00  0.00     0.127 C 
HETATM   11  S1  UNL     1      20.554   0.027  53.745  1.00  0.00    -0.061 SA
ENDROOT
BRANCH   2  12
HETATM   12  C3  UNL     1      22.137   2.407  52.604  1.00  0.00     0.148 C 
BRANCH  12  13
HETATM   13  N1  UNL     1      21.710   3.158  51.481  1.00  0.00    -0.388 N 
HETATM   14  H6  UNL     1      20.837   3.287  50.916  1.00  0.00     0.159 HD
BRANCH  13  15
HETATM   15  C4  UNL     1      22.785   3.969  50.967  1.00  0.00     0.028 A 
HETATM   16  C5  UNL     1      23.201   5.155  51.534  1.00  0.00     0.029 A 
HETATM   17  C6  UNL     1      24.225   5.955  51.067  1.00  0.00     0.002 A 
HETATM   18  C7  UNL     1      24.890   5.532  49.936  1.00  0.00     0.000 A 
HETATM   19  C8  UNL     1      24.551   4.362  49.294  1.00  0.00     0.002 A 
HETATM   20  C9  UNL     1      23.518   3.637  49.839  1.00  0.00     0.029 A 
ENDBRANCH  13  15
ENDBRANCH  12  13
ENDBRANCH   2  12
BRANCH   9  21
HETATM   21  O1  UNL     1      22.321  -1.300  55.324  1.00  0.00    -0.282 OA
HETATM   22  H16 UNL     1      22.506  -2.258  55.193  1.00  0.00     0.245 HD
ENDBRANCH   9  21
TORSDOF 4
ENDMDL
MODEL 7
REMARK VINA RESULT:      -6.6      2.832      4.249
REMARK  4 active torsions:
REMARK  status: ('A' for Active; 'I' for Inactive)
REMARK    1  A    between atoms: C2_2  and  C3_3 
REMARK    2  A    between atoms: C3_3  and  N1_4 
REMARK    3  A    between atoms: N1_4  and  C4_5 
REMARK    4  A    between atoms: N2_17  and  O1_18 
ROOT
HETATM    1  C1  UNL     1      22.910   2.092  49.850  1.00  0.00     0.037 C 
HETATM    2  C2  UNL     1      23.386   2.346  51.268  1.00  0.00     0.080 C 
HETATM    3  C10 UNL     1      24.510   1.484  51.580  1.00  0.00    -0.151 C 
HETATM    4  C11 UNL     1      25.415   0.797  51.850  1.00  0.00     0.044 A 
HETATM    5  C12 UNL     1      26.488  -0.004  52.193  1.00  0.00     0.023 A 
HETATM    6  C13 UNL     1      25.640  -0.430  53.096  1.00  0.00     0.037 A 
HETATM    7  C14 UNL     1      24.348  -0.384  53.700  1.00  0.00    -0.000 C 
HETATM    8  C15 UNL     1      23.121   0.037  53.846  1.00  0.00     0.120 C 
HETATM    9  N2  UNL     1      22.248   0.972  53.231  1.00  0.00    -0.228 N 
HETATM   10  C16 UNL     1      22.253   1.958  52.173  1.00  0.00     0.127 C 
HETATM   11  S1  UNL     1      20.942   2.835  51.777  1.00  0.00    -0.061 SA
ENDROOT
BRANCH   2  12
HETATM   12  C3  UNL     1      23.866   3.745  51.463  1.00  0.00     0.148 C 
BRANCH  12  13
HETATM   13  N1  UNL     1      23.678   4.660  50.399  1.00  0.00    -0.388 N 
HETATM   14  H6  UNL     1      22.886   5.163  49.935  1.00  0.00     0.159 HD
BRANCH  13  15
HETATM   15  C4  UNL     1      24.936   4.984  49.773  1.00  0.00     0.028 A 
HETATM   16  C5  UNL     1      25.233   6.210  49.218  1.00  0.00     0.029 A 
HETATM   17  C6  UNL     1      26.425   6.551  48.611  1.00  0.00     0.002 A 
HETATM   18  C7  UNL     1      27.404   5.582  48.553  1.00  0.00     0.000 A 
HETATM   19  C8  UNL     1      27.207   4.325  49.078  1.00  0.00     0.002 A 
HETATM   20  C9  UNL     1      25.985   4.085  49.662  1.00  0.00     0.029 A 
ENDBRANCH  13  15
ENDBRANCH  12  13
ENDBRANCH   2  12
BRANCH   9  21
HETATM   21  O1  UNL     1      20.991   0.986  53.765  1.00  0.00    -0.282 OA
HETATM   22  H16 UNL     1      20.567   1.811  53.436  1.00  0.00     0.245 HD
ENDBRANCH   9  21
TORSDOF 4
ENDMDL
MODEL 8
REMARK VINA RESULT:      -6.5      8.114      9.644
REMARK  4 active torsions:
REMARK  status: ('A' for Active; 'I' for Inactive)
REMARK    1  A    between atoms: C2_2  and  C3_3 
REMARK    2  A    between atoms: C3_3  and  N1_4 
REMARK    3  A    between atoms: N1_4  and  C4_5 
REMARK    4  A    between atoms: N2_17  and  O1_18 
ROOT
HETATM    1  C1  UNL     1      29.641   7.522  46.438  1.00  0.00     0.037 C 
HETATM    2  C2  UNL     1      29.532   7.253  47.926  1.00  0.00     0.080 C 
HETATM    3  C10 UNL     1      28.247   6.654  48.233  1.00  0.00    -0.151 C 
HETATM    4  C11 UNL     1      27.217   6.173  48.499  1.00  0.00     0.044 A 
HETATM    5  C12 UNL     1      26.005   5.602  48.839  1.00  0.00     0.023 A 
HETATM    6  C13 UNL     1      25.899   6.699  49.546  1.00  0.00     0.037 A 
HETATM    7  C14 UNL     1      26.436   7.947  49.982  1.00  0.00    -0.000 C 
HETATM    8  C15 UNL     1      27.325   8.900  50.039  1.00  0.00     0.120 C 
HETATM    9  N2  UNL     1      28.598   9.190  49.480  1.00  0.00    -0.228 N 
HETATM   10  C16 UNL     1      29.582   8.590  48.606  1.00  0.00     0.127 C 
HETATM   11  S1  UNL     1      30.969   9.333  48.197  1.00  0.00    -0.061 SA
ENDROOT
BRANCH   2  12
HETATM   12  C3  UNL     1      30.565   6.289  48.406  1.00  0.00     0.148 C 
BRANCH  12  13
HETATM   13  N1  UNL     1      30.609   5.012  47.794  1.00  0.00    -0.388 N 
HETATM   14  H6  UNL     1      29.934   4.305  47.420  1.00  0.00     0.159 HD
BRANCH  13  15
HETATM   15  C4  UNL     1      31.970   4.557  47.656  1.00  0.00     0.028 A 
HETATM   16  C5  UNL     1      32.340   3.417  46.975  1.00  0.00     0.029 A 
HETATM   17  C6  UNL     1      33.632   2.953  46.825  1.00  0.00     0.002 A 
HETATM   18  C7  UNL     1      34.639   3.691  47.408  1.00  0.00     0.000 A 
HETATM   19  C8  UNL     1      34.375   4.846  48.110  1.00  0.00     0.002 A 
HETATM   20  C9  UNL     1      33.055   5.223  48.201  1.00  0.00     0.029 A 
ENDBRANCH  13  15
ENDBRANCH  12  13
ENDBRANCH   2  12
BRANCH   9  21
HETATM   21  O1  UNL     1      29.098  10.406  49.846  1.00  0.00    -0.282 OA
HETATM   22  H16 UNL     1      29.129  10.945  49.023  1.00  0.00     0.245 HD
ENDBRANCH   9  21
TORSDOF 4
ENDMDL
MODEL 9
REMARK VINA RESULT:      -6.5      2.961      5.049
REMARK  4 active torsions:
REMARK  status: ('A' for Active; 'I' for Inactive)
REMARK    1  A    between atoms: C2_2  and  C3_3 
REMARK    2  A    between atoms: C3_3  and  N1_4 
REMARK    3  A    between atoms: N1_4  and  C4_5 
REMARK    4  A    between atoms: N2_17  and  O1_18 
ROOT
HETATM    1  C1  UNL     1      24.298   3.367  53.250  1.00  0.00     0.037 C 
HETATM    2  C2  UNL     1      24.292   2.002  52.589  1.00  0.00     0.080 C 
HETATM    3  C10 UNL     1      22.959   1.431  52.631  1.00  0.00    -0.151 C 
HETATM    4  C11 UNL     1      21.894   0.956  52.657  1.00  0.00     0.044 A 
HETATM    5  C12 UNL     1      20.641   0.372  52.673  1.00  0.00     0.023 A 
HETATM    6  C13 UNL     1      21.278  -0.532  53.374  1.00  0.00     0.037 A 
HETATM    7  C14 UNL     1      22.480  -1.013  53.974  1.00  0.00    -0.000 C 
HETATM    8  C15 UNL     1      23.746  -0.974  54.290  1.00  0.00     0.120 C 
HETATM    9  N2  UNL     1      24.856  -0.112  54.089  1.00  0.00    -0.228 N 
HETATM   10  C16 UNL     1      25.186   1.125  53.417  1.00  0.00     0.127 C 
HETATM   11  S1  UNL     1      26.667   1.795  53.477  1.00  0.00    -0.061 SA
ENDROOT
BRANCH   2  12
HETATM   12  C3  UNL     1      24.672   2.068  51.148  1.00  0.00     0.148 C 
BRANCH  12  13
HETATM   13  N1  UNL     1      24.848   3.350  50.571  1.00  0.00    -0.388 N 
HETATM   14  H6  UNL     1      25.455   4.191  50.713  1.00  0.00     0.159 HD
BRANCH  13  15
HETATM   15  C4  UNL     1      23.921   3.555  49.486  1.00  0.00     0.028 A 
HETATM   16  C5  UNL     1      23.708   4.769  48.868  1.00  0.00     0.029 A 
HETATM   17  C6  UNL     1      22.828   4.999  47.829  1.00  0.00     0.002 A 
HETATM   18  C7  UNL     1      22.099   3.923  47.369  1.00  0.00     0.000 A 
HETATM   19  C8  UNL     1      22.239   2.668  47.919  1.00  0.00     0.002 A 
HETATM   20  C9  UNL     1      23.141   2.543  48.949  1.00  0.00     0.029 A 
ENDBRANCH  13  15
ENDBRANCH  12  13
ENDBRANCH   2  12
BRANCH   9  21
HETATM   21  O1  UNL     1      26.000  -0.534  54.704  1.00  0.00    -0.282 OA
HETATM   22  H16 UNL     1      26.132  -1.467  54.420  1.00  0.00     0.245 HD
ENDBRANCH   9  21
TORSDOF 4
ENDMDL
