MODEL 1
REMARK VINA RESULT:      -8.2      0.000      0.000
REMARK  6 active torsions:
REMARK  status: ('A' for Active; 'I' for Inactive)
REMARK    1  A    between atoms: C4_6  and  C5_7 
REMARK    2  A    between atoms: C5_7  and  C6_8 
REMARK    3  A    between atoms: C6_8  and  O2_9 
REMARK    4  A    between atoms: O2_9  and  C7_10 
REMARK    5  A    between atoms: C10_13  and  N2_14 
REMARK    6  A    between atoms: N2_14  and  C11_15 
ROOT
HETATM    1  C7  UNL     1      23.712   1.077  52.312  1.00  0.00     0.081 C 
HETATM    2  C8  UNL     1      24.323   1.810  51.362  1.00  0.00     0.041 C 
HETATM    3  C9  UNL     1      23.772   2.734  50.379  1.00  0.00     0.053 C 
HETATM    4  C10 UNL     1      22.559   3.270  50.396  1.00  0.00     0.127 C 
HETATM    5  N3  UNL     1      21.506   3.097  51.335  1.00  0.00    -0.242 NA
HETATM    6  C17 UNL     1      21.344   2.184  52.258  1.00  0.00     0.133 C 
HETATM    7  C18 UNL     1      22.264   1.086  52.534  1.00  0.00     0.022 C 
HETATM    8  C19 UNL     1      21.681   0.006  53.038  1.00  0.00     0.071 C 
HETATM    9 BR1  UNL     1      19.892  -0.441  53.488  1.00  0.00    -0.063 Br
ENDROOT
BRANCH   4  10
HETATM   10  N2  UNL     1      22.461   4.097  49.255  1.00  0.00    -0.341 N 
HETATM   11  H15 UNL     1      21.833   3.950  48.451  1.00  0.00     0.167 HD
BRANCH  10  12
HETATM   12  C11 UNL     1      23.431   5.052  49.638  1.00  0.00     0.035 A 
HETATM   13  C12 UNL     1      23.237   5.997  50.643  1.00  0.00     0.032 A 
HETATM   14  C13 UNL     1      24.225   6.914  50.987  1.00  0.00     0.046 A 
HETATM   15  C14 UNL     1      25.423   6.871  50.307  1.00  0.00     0.138 A 
HETATM   16  F1  UNL     1      26.364   7.780  50.665  1.00  0.00    -0.204 F 
HETATM   17  C15 UNL     1      25.653   5.948  49.305  1.00  0.00     0.074 A 
HETATM   18 CL1  UNL     1      27.195   5.925  48.464  1.00  0.00    -0.081 Cl
HETATM   19  C16 UNL     1      24.651   5.042  48.977  1.00  0.00     0.056 A 
ENDBRANCH  10  12
ENDBRANCH   4  10
BRANCH   1  20
HETATM   20  O2  UNL     1      24.392   0.222  53.194  1.00  0.00    -0.350 OA
BRANCH  20  21
HETATM   21  C6  UNL     1      25.714  -0.151  52.777  1.00  0.00     0.177 C 
BRANCH  21  22
HETATM   22  C5  UNL     1      26.540  -0.407  53.997  1.00  0.00     0.049 C 
BRANCH  22  23
HETATM   23  C4  UNL     1      27.292   0.784  54.437  1.00  0.00     0.089 C 
HETATM   24  N1  UNL     1      28.632   0.629  54.853  1.00  0.00    -0.197 NA
HETATM   25  C1  UNL     1      29.404  -0.403  54.256  1.00  0.00     0.144 C 
HETATM   26  O1  UNL     1      29.208   1.850  54.754  1.00  0.00    -0.303 OA
HETATM   27  C2  UNL     1      28.659   2.496  53.654  1.00  0.00     0.195 C 
HETATM   28  C3  UNL     1      27.462   1.703  53.221  1.00  0.00     0.050 C 
ENDBRANCH  22  23
ENDBRANCH  21  22
ENDBRANCH  20  21
ENDBRANCH   1  20
TORSDOF 6
ENDMDL
MODEL 2
REMARK VINA RESULT:      -8.0      2.327      2.949
REMARK  6 active torsions:
REMARK  status: ('A' for Active; 'I' for Inactive)
REMARK    1  A    between atoms: C4_6  and  C5_7 
REMARK    2  A    between atoms: C5_7  and  C6_8 
REMARK    3  A    between atoms: C6_8  and  O2_9 
REMARK    4  A    between atoms: O2_9  and  C7_10 
REMARK    5  A    between atoms: C10_13  and  N2_14 
REMARK    6  A    between atoms: N2_14  and  C11_15 
ROOT
HETATM    1  C7  UNL     1      23.044   2.609  51.842  1.00  0.00     0.081 C 
HETATM    2  C8  UNL     1      23.607   3.449  52.729  1.00  0.00     0.041 C 
HETATM    3  C9  UNL     1      23.980   4.853  52.601  1.00  0.00     0.053 C 
HETATM    4  C10 UNL     1      23.580   5.688  51.653  1.00  0.00     0.127 C 
HETATM    5  N3  UNL     1      22.715   5.458  50.547  1.00  0.00    -0.242 NA
HETATM    6  C17 UNL     1      22.310   4.332  50.018  1.00  0.00     0.133 C 
HETATM    7  C18 UNL     1      22.681   2.998  50.477  1.00  0.00     0.022 C 
HETATM    8  C19 UNL     1      22.674   2.076  49.522  1.00  0.00     0.071 C 
HETATM    9 BR1  UNL     1      22.285   2.102  47.665  1.00  0.00    -0.063 Br
ENDROOT
BRANCH   4  10
HETATM   10  N2  UNL     1      24.186   6.935  51.923  1.00  0.00    -0.341 N 
HETATM   11  H15 UNL     1      24.217   7.410  52.838  1.00  0.00     0.167 HD
BRANCH  10  12
HETATM   12  C11 UNL     1      24.655   7.197  50.616  1.00  0.00     0.035 A 
HETATM   13  C12 UNL     1      24.107   8.161  49.771  1.00  0.00     0.032 A 
HETATM   14  C13 UNL     1      24.608   8.385  48.493  1.00  0.00     0.046 A 
HETATM   15  C14 UNL     1      25.676   7.626  48.066  1.00  0.00     0.138 A 
HETATM   16  F1  UNL     1      26.138   7.868  46.814  1.00  0.00    -0.204 F 
HETATM   17  C15 UNL     1      26.247   6.662  48.874  1.00  0.00     0.074 A 
HETATM   18 CL1  UNL     1      27.610   5.717  48.294  1.00  0.00    -0.081 Cl
HETATM   19  C16 UNL     1      25.731   6.454  50.148  1.00  0.00     0.056 A 
ENDBRANCH  10  12
ENDBRANCH   4  10
BRANCH   1  20
HETATM   20  O2  UNL     1      22.743   1.266  52.122  1.00  0.00    -0.350 OA
BRANCH  20  21
HETATM   21  C6  UNL     1      23.355   0.744  53.312  1.00  0.00     0.177 C 
BRANCH  21  22
HETATM   22  C5  UNL     1      24.549  -0.063  52.914  1.00  0.00     0.049 C 
BRANCH  22  23
HETATM   23  C4  UNL     1      25.627  -0.022  53.921  1.00  0.00     0.089 C 
HETATM   24  N1  UNL     1      26.582  -1.061  53.940  1.00  0.00    -0.197 NA
HETATM   25  C1  UNL     1      26.908  -1.694  52.711  1.00  0.00     0.144 C 
HETATM   26  O1  UNL     1      27.664  -0.575  54.593  1.00  0.00    -0.303 OA
HETATM   27  C2  UNL     1      27.783   0.773  54.282  1.00  0.00     0.195 C 
HETATM   28  C3  UNL     1      26.512   1.190  53.605  1.00  0.00     0.050 C 
ENDBRANCH  22  23
ENDBRANCH  21  22
ENDBRANCH  20  21
ENDBRANCH   1  20
TORSDOF 6
ENDMDL
MODEL 3
REMARK VINA RESULT:      -7.8      3.749      4.932
REMARK  6 active torsions:
REMARK  status: ('A' for Active; 'I' for Inactive)
REMARK    1  A    between atoms: C4_6  and  C5_7 
REMARK    2  A    between atoms: C5_7  and  C6_8 
REMARK    3  A    between atoms: C6_8  and  O2_9 
REMARK    4  A    between atoms: O2_9  and  C7_10 
REMARK    5  A    between atoms: C10_13  and  N2_14 
REMARK    6  A    between atoms: N2_14  and  C11_15 
ROOT
HETATM    1  C7  UNL     1      25.906   4.083  50.329  1.00  0.00     0.081 C 
HETATM    2  C8  UNL     1      26.932   4.085  49.459  1.00  0.00     0.041 C 
HETATM    3  C9  UNL     1      27.361   5.097  48.500  1.00  0.00     0.053 C 
HETATM    4  C10 UNL     1      26.986   6.369  48.480  1.00  0.00     0.127 C 
HETATM    5  N3  UNL     1      26.100   7.067  49.347  1.00  0.00    -0.242 NA
HETATM    6  C17 UNL     1      25.227   6.606  50.205  1.00  0.00     0.133 C 
HETATM    7  C18 UNL     1      24.962   5.195  50.469  1.00  0.00     0.022 C 
HETATM    8  C19 UNL     1      23.724   4.945  50.876  1.00  0.00     0.071 C 
HETATM    9 BR1  UNL     1      22.197   6.024  51.198  1.00  0.00    -0.063 Br
ENDROOT
BRANCH   4  10
HETATM   10  N2  UNL     1      27.644   6.972  47.385  1.00  0.00    -0.341 N 
HETATM   11  H15 UNL     1      27.277   7.052  46.425  1.00  0.00     0.167 HD
BRANCH  10  12
HETATM   12  C11 UNL     1      28.821   7.355  48.068  1.00  0.00     0.035 A 
HETATM   13  C12 UNL     1      28.998   8.596  48.677  1.00  0.00     0.032 A 
HETATM   14  C13 UNL     1      30.175   8.924  49.342  1.00  0.00     0.046 A 
HETATM   15  C14 UNL     1      31.182   7.985  49.393  1.00  0.00     0.138 A 
HETATM   16  F1  UNL     1      32.316   8.337  50.047  1.00  0.00    -0.204 F 
HETATM   17  C15 UNL     1      31.044   6.743  48.802  1.00  0.00     0.074 A 
HETATM   18 CL1  UNL     1      32.350   5.572  48.892  1.00  0.00    -0.081 Cl
HETATM   19  C16 UNL     1      29.859   6.437  48.143  1.00  0.00     0.056 A 
ENDBRANCH  10  12
ENDBRANCH   4  10
BRANCH   1  20
HETATM   20  O2  UNL     1      25.621   3.017  51.197  1.00  0.00    -0.350 OA
BRANCH  20  21
HETATM   21  C6  UNL     1      26.647   2.015  51.281  1.00  0.00     0.177 C 
BRANCH  21  22
HETATM   22  C5  UNL     1      26.095   0.834  52.014  1.00  0.00     0.049 C 
BRANCH  22  23
HETATM   23  C4  UNL     1      26.704   0.653  53.346  1.00  0.00     0.089 C 
HETATM   24  N1  UNL     1      26.934  -0.657  53.818  1.00  0.00    -0.197 NA
HETATM   25  C1  UNL     1      27.216  -1.672  52.866  1.00  0.00     0.144 C 
HETATM   26  O1  UNL     1      27.875  -0.557  54.785  1.00  0.00    -0.303 OA
HETATM   27  C2  UNL     1      28.756   0.454  54.423  1.00  0.00     0.195 C 
HETATM   28  C3  UNL     1      28.135   1.202  53.281  1.00  0.00     0.050 C 
ENDBRANCH  22  23
ENDBRANCH  21  22
ENDBRANCH  20  21
ENDBRANCH   1  20
TORSDOF 6
ENDMDL
MODEL 4
REMARK VINA RESULT:      -7.7      3.826      6.716
REMARK  6 active torsions:
REMARK  status: ('A' for Active; 'I' for Inactive)
REMARK    1  A    between atoms: C4_6  and  C5_7 
REMARK    2  A    between atoms: C5_7  and  C6_8 
REMARK    3  A    between atoms: C6_8  and  O2_9 
REMARK    4  A    between atoms: O2_9  and  C7_10 
REMARK    5  A    between atoms: C10_13  and  N2_14 
REMARK    6  A    between atoms: N2_14  and  C11_15 
ROOT
HETATM    1  C7  UNL     1      23.487   4.944  51.014  1.00  0.00     0.081 C 
HETATM    2  C8  UNL     1      23.657   4.616  52.307  1.00  0.00     0.041 C 
HETATM    3  C9  UNL     1      23.658   3.313  52.962  1.00  0.00     0.053 C 
HETATM    4  C10 UNL     1      23.769   2.134  52.365  1.00  0.00     0.127 C 
HETATM    5  N3  UNL     1      23.911   1.826  50.984  1.00  0.00    -0.242 NA
HETATM    6  C17 UNL     1      23.701   2.573  49.931  1.00  0.00     0.133 C 
HETATM    7  C18 UNL     1      23.251   3.961  49.953  1.00  0.00     0.022 C 
HETATM    8  C19 UNL     1      22.559   4.322  48.879  1.00  0.00     0.071 C 
HETATM    9 BR1  UNL     1      22.016   3.427  47.297  1.00  0.00    -0.063 Br
ENDROOT
BRANCH   4  10
HETATM   10  N2  UNL     1      23.720   1.155  53.383  1.00  0.00    -0.341 N 
HETATM   11  H15 UNL     1      22.895   0.912  53.952  1.00  0.00     0.167 HD
BRANCH  10  12
HETATM   12  C11 UNL     1      25.063   0.726  53.288  1.00  0.00     0.035 A 
HETATM   13  C12 UNL     1      25.443  -0.575  52.964  1.00  0.00     0.032 A 
HETATM   14  C13 UNL     1      26.781  -0.948  52.879  1.00  0.00     0.046 A 
HETATM   15  C14 UNL     1      27.744   0.008  53.124  1.00  0.00     0.138 A 
HETATM   16  F1  UNL     1      29.037  -0.388  53.035  1.00  0.00    -0.204 F 
HETATM   17  C15 UNL     1      27.406   1.308  53.448  1.00  0.00     0.074 A 
HETATM   18 CL1  UNL     1      28.663   2.497  53.749  1.00  0.00    -0.081 Cl
HETATM   19  C16 UNL     1      26.063   1.658  53.527  1.00  0.00     0.056 A 
ENDBRANCH  10  12
ENDBRANCH   4  10
BRANCH   1  20
HETATM   20  O2  UNL     1      23.514   6.264  50.534  1.00  0.00    -0.350 OA
BRANCH  20  21
HETATM   21  C6  UNL     1      24.823   6.848  50.444  1.00  0.00     0.177 C 
BRANCH  21  22
HETATM   22  C5  UNL     1      24.989   7.427  49.075  1.00  0.00     0.049 C 
BRANCH  22  23
HETATM   23  C4  UNL     1      26.034   6.744  48.289  1.00  0.00     0.089 C 
HETATM   24  N1  UNL     1      27.245   7.421  48.031  1.00  0.00    -0.197 NA
HETATM   25  C1  UNL     1      27.708   8.357  48.995  1.00  0.00     0.144 C 
HETATM   26  O1  UNL     1      28.160   6.471  47.728  1.00  0.00    -0.303 OA
HETATM   27  C2  UNL     1      27.884   5.349  48.499  1.00  0.00     0.195 C 
HETATM   28  C3  UNL     1      26.531   5.550  49.113  1.00  0.00     0.050 C 
ENDBRANCH  22  23
ENDBRANCH  21  22
ENDBRANCH  20  21
ENDBRANCH   1  20
TORSDOF 6
ENDMDL
MODEL 5
REMARK VINA RESULT:      -7.6      4.195      7.808
REMARK  6 active torsions:
REMARK  status: ('A' for Active; 'I' for Inactive)
REMARK    1  A    between atoms: C4_6  and  C5_7 
REMARK    2  A    between atoms: C5_7  and  C6_8 
REMARK    3  A    between atoms: C6_8  and  O2_9 
REMARK    4  A    between atoms: O2_9  and  C7_10 
REMARK    5  A    between atoms: C10_13  and  N2_14 
REMARK    6  A    between atoms: N2_14  and  C11_15 
ROOT
HETATM    1  C7  UNL     1      22.781   1.776  50.740  1.00  0.00     0.081 C 
HETATM    2  C8  UNL     1      22.425   0.749  51.532  1.00  0.00     0.041 C 
HETATM    3  C9  UNL     1      23.117   0.137  52.661  1.00  0.00     0.053 C 
HETATM    4  C10 UNL     1      24.136   0.656  53.332  1.00  0.00     0.127 C 
HETATM    5  N3  UNL     1      24.808   1.896  53.145  1.00  0.00    -0.242 NA
HETATM    6  C17 UNL     1      24.791   2.715  52.125  1.00  0.00     0.133 C 
HETATM    7  C18 UNL     1      24.036   2.518  50.892  1.00  0.00     0.022 C 
HETATM    8  C19 UNL     1      24.583   3.088  49.826  1.00  0.00     0.071 C 
HETATM    9 BR1  UNL     1      26.150   4.119  49.538  1.00  0.00    -0.063 Br
ENDROOT
BRANCH   4  10
HETATM   10  N2  UNL     1      24.483  -0.277  54.335  1.00  0.00    -0.341 N 
HETATM   11  H15 UNL     1      23.856  -0.640  55.069  1.00  0.00     0.167 HD
BRANCH  10  12
HETATM   12  C11 UNL     1      25.831  -0.463  53.952  1.00  0.00     0.035 A 
HETATM   13  C12 UNL     1      26.257  -1.443  53.059  1.00  0.00     0.032 A 
HETATM   14  C13 UNL     1      27.596  -1.584  52.709  1.00  0.00     0.046 A 
HETATM   15  C14 UNL     1      28.513  -0.721  53.270  1.00  0.00     0.138 A 
HETATM   16  F1  UNL     1      29.810  -0.887  52.911  1.00  0.00    -0.204 F 
HETATM   17  C15 UNL     1      28.129   0.264  54.160  1.00  0.00     0.074 A 
HETATM   18 CL1  UNL     1      29.328   1.346  54.851  1.00  0.00    -0.081 Cl
HETATM   19  C16 UNL     1      26.785   0.386  54.495  1.00  0.00     0.056 A 
ENDBRANCH  10  12
ENDBRANCH   4  10
BRANCH   1  20
HETATM   20  O2  UNL     1      21.995   2.253  49.679  1.00  0.00    -0.350 OA
BRANCH  20  21
HETATM   21  C6  UNL     1      21.154   1.268  49.059  1.00  0.00     0.177 C 
BRANCH  21  22
HETATM   22  C5  UNL     1      19.727   1.661  49.273  1.00  0.00     0.049 C 
BRANCH  22  23
HETATM   23  C4  UNL     1      19.048   0.820  50.278  1.00  0.00     0.089 C 
HETATM   24  N1  UNL     1      18.826   1.345  51.569  1.00  0.00    -0.197 NA
HETATM   25  C1  UNL     1      18.624   2.746  51.696  1.00  0.00     0.144 C 
HETATM   26  O1  UNL     1      17.828   0.611  52.116  1.00  0.00    -0.303 OA
HETATM   27  C2  UNL     1      16.944   0.267  51.102  1.00  0.00     0.195 C 
HETATM   28  C3  UNL     1      17.610   0.591  49.798  1.00  0.00     0.050 C 
ENDBRANCH  22  23
ENDBRANCH  21  22
ENDBRANCH  20  21
ENDBRANCH   1  20
TORSDOF 6
ENDMDL
MODEL 6
REMARK VINA RESULT:      -7.6      2.661      3.070
REMARK  6 active torsions:
REMARK  status: ('A' for Active; 'I' for Inactive)
REMARK    1  A    between atoms: C4_6  and  C5_7 
REMARK    2  A    between atoms: C5_7  and  C6_8 
REMARK    3  A    between atoms: C6_8  and  O2_9 
REMARK    4  A    between atoms: O2_9  and  C7_10 
REMARK    5  A    between atoms: C10_13  and  N2_14 
REMARK    6  A    between atoms: N2_14  and  C11_15 
ROOT
HETATM    1  C7  UNL     1      23.459   2.018  52.826  1.00  0.00     0.081 C 
HETATM    2  C8  UNL     1      24.187   3.139  52.674  1.00  0.00     0.041 C 
HETATM    3  C9  UNL     1      23.808   4.456  52.177  1.00  0.00     0.053 C 
HETATM    4  C10 UNL     1      22.573   4.913  52.027  1.00  0.00     0.127 C 
HETATM    5  N3  UNL     1      21.331   4.275  52.296  1.00  0.00    -0.242 NA
HETATM    6  C17 UNL     1      21.062   3.011  52.496  1.00  0.00     0.133 C 
HETATM    7  C18 UNL     1      22.037   1.925  52.484  1.00  0.00     0.022 C 
HETATM    8  C19 UNL     1      21.535   0.752  52.120  1.00  0.00     0.071 C 
HETATM    9 BR1  UNL     1      19.808   0.158  51.602  1.00  0.00    -0.063 Br
ENDROOT
BRANCH   4  10
HETATM   10  N2  UNL     1      22.682   6.228  51.520  1.00  0.00    -0.341 N 
HETATM   11  H15 UNL     1      23.001   7.056  52.044  1.00  0.00     0.167 HD
BRANCH  10  12
HETATM   12  C11 UNL     1      22.243   5.953  50.205  1.00  0.00     0.035 A 
HETATM   13  C12 UNL     1      23.035   5.348  49.231  1.00  0.00     0.032 A 
HETATM   14  C13 UNL     1      22.555   5.094  47.950  1.00  0.00     0.046 A 
HETATM   15  C14 UNL     1      21.258   5.454  47.653  1.00  0.00     0.138 A 
HETATM   16  F1  UNL     1      20.823   5.195  46.396  1.00  0.00    -0.204 F 
HETATM   17  C15 UNL     1      20.443   6.056  48.593  1.00  0.00     0.074 A 
HETATM   18 CL1  UNL     1      18.794   6.498  48.176  1.00  0.00    -0.081 Cl
HETATM   19  C16 UNL     1      20.943   6.301  49.866  1.00  0.00     0.056 A 
ENDBRANCH  10  12
ENDBRANCH   4  10
BRANCH   1  20
HETATM   20  O2  UNL     1      23.977   0.812  53.325  1.00  0.00    -0.350 OA
BRANCH  20  21
HETATM   21  C6  UNL     1      25.211   0.389  52.724  1.00  0.00     0.177 C 
BRANCH  21  22
HETATM   22  C5  UNL     1      26.148  -0.028  53.813  1.00  0.00     0.049 C 
BRANCH  22  23
HETATM   23  C4  UNL     1      27.014   1.074  54.273  1.00  0.00     0.089 C 
HETATM   24  N1  UNL     1      28.255   0.762  54.869  1.00  0.00    -0.197 NA
HETATM   25  C1  UNL     1      28.926  -0.415  54.442  1.00  0.00     0.144 C 
HETATM   26  O1  UNL     1      29.018   1.876  54.772  1.00  0.00    -0.303 OA
HETATM   27  C2  UNL     1      28.710   2.504  53.571  1.00  0.00     0.195 C 
HETATM   28  C3  UNL     1      27.466   1.859  53.036  1.00  0.00     0.050 C 
ENDBRANCH  22  23
ENDBRANCH  21  22
ENDBRANCH  20  21
ENDBRANCH   1  20
TORSDOF 6
ENDMDL
MODEL 7
REMARK VINA RESULT:      -7.5      4.025      7.473
REMARK  6 active torsions:
REMARK  status: ('A' for Active; 'I' for Inactive)
REMARK    1  A    between atoms: C4_6  and  C5_7 
REMARK    2  A    between atoms: C5_7  and  C6_8 
REMARK    3  A    between atoms: C6_8  and  O2_9 
REMARK    4  A    between atoms: O2_9  and  C7_10 
REMARK    5  A    between atoms: C10_13  and  N2_14 
REMARK    6  A    between atoms: N2_14  and  C11_15 
ROOT
HETATM    1  C7  UNL     1      22.824   1.962  50.514  1.00  0.00     0.081 C 
HETATM    2  C8  UNL     1      22.405   0.949  51.293  1.00  0.00     0.041 C 
HETATM    3  C9  UNL     1      23.023   0.333  52.461  1.00  0.00     0.053 C 
HETATM    4  C10 UNL     1      24.016   0.836  53.182  1.00  0.00     0.127 C 
HETATM    5  N3  UNL     1      24.722   2.060  53.022  1.00  0.00    -0.242 NA
HETATM    6  C17 UNL     1      24.777   2.871  51.997  1.00  0.00     0.133 C 
HETATM    7  C18 UNL     1      24.084   2.679  50.727  1.00  0.00     0.022 C 
HETATM    8  C19 UNL     1      24.698   3.230  49.688  1.00  0.00     0.071 C 
HETATM    9 BR1  UNL     1      26.300   4.226  49.477  1.00  0.00    -0.063 Br
ENDROOT
BRANCH   4  10
HETATM   10  N2  UNL     1      24.289  -0.096  54.208  1.00  0.00    -0.341 N 
HETATM   11  H15 UNL     1      23.629  -0.410  54.935  1.00  0.00     0.167 HD
BRANCH  10  12
HETATM   12  C11 UNL     1      25.632  -0.364  53.857  1.00  0.00     0.035 A 
HETATM   13  C12 UNL     1      26.017  -1.357  52.958  1.00  0.00     0.032 A 
HETATM   14  C13 UNL     1      27.354  -1.580  52.641  1.00  0.00     0.046 A 
HETATM   15  C14 UNL     1      28.309  -0.788  53.240  1.00  0.00     0.138 A 
HETATM   16  F1  UNL     1      29.602  -1.032  52.912  1.00  0.00    -0.204 F 
HETATM   17  C15 UNL     1      27.966   0.207  54.136  1.00  0.00     0.074 A 
HETATM   18 CL1  UNL     1      29.214   1.197  54.876  1.00  0.00    -0.081 Cl
HETATM   19  C16 UNL     1      26.625   0.412  54.438  1.00  0.00     0.056 A 
ENDBRANCH  10  12
ENDBRANCH   4  10
BRANCH   1  20
HETATM   20  O2  UNL     1      22.105   2.447  49.410  1.00  0.00    -0.350 OA
BRANCH  20  21
HETATM   21  C6  UNL     1      20.998   3.302  49.736  1.00  0.00     0.177 C 
BRANCH  21  22
HETATM   22  C5  UNL     1      21.210   4.624  49.071  1.00  0.00     0.049 C 
BRANCH  22  23
HETATM   23  C4  UNL     1      21.330   5.735  50.035  1.00  0.00     0.089 C 
HETATM   24  N1  UNL     1      22.536   6.465  50.088  1.00  0.00    -0.197 NA
HETATM   25  C1  UNL     1      23.290   6.601  48.891  1.00  0.00     0.144 C 
HETATM   26  O1  UNL     1      22.242   7.652  50.670  1.00  0.00    -0.303 OA
HETATM   27  C2  UNL     1      20.965   8.021  50.269  1.00  0.00     0.195 C 
HETATM   28  C3  UNL     1      20.339   6.827  49.612  1.00  0.00     0.050 C 
ENDBRANCH  22  23
ENDBRANCH  21  22
ENDBRANCH  20  21
ENDBRANCH   1  20
TORSDOF 6
ENDMDL
MODEL 8
REMARK VINA RESULT:      -7.5      4.141      5.553
REMARK  6 active torsions:
REMARK  status: ('A' for Active; 'I' for Inactive)
REMARK    1  A    between atoms: C4_6  and  C5_7 
REMARK    2  A    between atoms: C5_7  and  C6_8 
REMARK    3  A    between atoms: C6_8  and  O2_9 
REMARK    4  A    between atoms: O2_9  and  C7_10 
REMARK    5  A    between atoms: C10_13  and  N2_14 
REMARK    6  A    between atoms: N2_14  and  C11_15 
ROOT
HETATM    1  C7  UNL     1      26.196   4.547  49.937  1.00  0.00     0.081 C 
HETATM    2  C8  UNL     1      27.259   4.421  49.122  1.00  0.00     0.041 C 
HETATM    3  C9  UNL     1      27.874   5.381  48.213  1.00  0.00     0.053 C 
HETATM    4  C10 UNL     1      27.680   6.692  48.206  1.00  0.00     0.127 C 
HETATM    5  N3  UNL     1      26.854   7.491  49.043  1.00  0.00    -0.242 NA
HETATM    6  C17 UNL     1      25.880   7.141  49.843  1.00  0.00     0.133 C 
HETATM    7  C18 UNL     1      25.409   5.776  50.057  1.00  0.00     0.022 C 
HETATM    8  C19 UNL     1      24.127   5.694  50.393  1.00  0.00     0.071 C 
HETATM    9 BR1  UNL     1      22.748   6.969  50.663  1.00  0.00    -0.063 Br
ENDROOT
BRANCH   4  10
HETATM   10  N2  UNL     1      28.474   7.218  47.162  1.00  0.00    -0.341 N 
HETATM   11  H15 UNL     1      28.479   6.897  46.182  1.00  0.00     0.167 HD
BRANCH  10  12
HETATM   12  C11 UNL     1      29.140   8.208  47.920  1.00  0.00     0.035 A 
HETATM   13  C12 UNL     1      30.253   7.957  48.720  1.00  0.00     0.032 A 
HETATM   14  C13 UNL     1      30.877   8.968  49.444  1.00  0.00     0.046 A 
HETATM   15  C14 UNL     1      30.370  10.246  49.356  1.00  0.00     0.138 A 
HETATM   16  F1  UNL     1      30.999  11.207  50.076  1.00  0.00    -0.204 F 
HETATM   17  C15 UNL     1      29.268  10.534  48.573  1.00  0.00     0.074 A 
HETATM   18 CL1  UNL     1      28.653  12.177  48.484  1.00  0.00    -0.081 Cl
HETATM   19  C16 UNL     1      28.660   9.509  47.857  1.00  0.00     0.056 A 
ENDBRANCH  10  12
ENDBRANCH   4  10
BRANCH   1  20
HETATM   20  O2  UNL     1      25.720   3.515  50.762  1.00  0.00    -0.350 OA
BRANCH  20  21
HETATM   21  C6  UNL     1      26.556   2.349  50.816  1.00  0.00     0.177 C 
BRANCH  21  22
HETATM   22  C5  UNL     1      27.198   2.289  52.165  1.00  0.00     0.049 C 
BRANCH  22  23
HETATM   23  C4  UNL     1      26.932   1.020  52.869  1.00  0.00     0.089 C 
HETATM   24  N1  UNL     1      28.014   0.318  53.443  1.00  0.00    -0.197 NA
HETATM   25  C1  UNL     1      29.121   1.069  53.920  1.00  0.00     0.144 C 
HETATM   26  O1  UNL     1      27.485  -0.505  54.378  1.00  0.00    -0.303 OA
HETATM   27  C2  UNL     1      26.403   0.145  54.959  1.00  0.00     0.195 C 
HETATM   28  C3  UNL     1      26.094   1.343  54.112  1.00  0.00     0.050 C 
ENDBRANCH  22  23
ENDBRANCH  21  22
ENDBRANCH  20  21
ENDBRANCH   1  20
TORSDOF 6
ENDMDL
MODEL 9
REMARK VINA RESULT:      -7.5      4.301      5.378
REMARK  6 active torsions:
REMARK  status: ('A' for Active; 'I' for Inactive)
REMARK    1  A    between atoms: C4_6  and  C5_7 
REMARK    2  A    between atoms: C5_7  and  C6_8 
REMARK    3  A    between atoms: C6_8  and  O2_9 
REMARK    4  A    between atoms: O2_9  and  C7_10 
REMARK    5  A    between atoms: C10_13  and  N2_14 
REMARK    6  A    between atoms: N2_14  and  C11_15 
ROOT
HETATM    1  C7  UNL     1      23.225   1.264  51.934  1.00  0.00     0.081 C 
HETATM    2  C8  UNL     1      22.800   1.678  50.727  1.00  0.00     0.041 C 
HETATM    3  C9  UNL     1      21.519   1.488  50.057  1.00  0.00     0.053 C 
HETATM    4  C10 UNL     1      20.386   1.097  50.624  1.00  0.00     0.127 C 
HETATM    5  N3  UNL     1      20.118   0.768  51.981  1.00  0.00    -0.242 NA
HETATM    6  C17 UNL     1      20.944   0.501  52.960  1.00  0.00     0.133 C 
HETATM    7  C18 UNL     1      22.400   0.483  52.859  1.00  0.00     0.022 C 
HETATM    8  C19 UNL     1      22.991  -0.342  53.714  1.00  0.00     0.071 C 
HETATM    9 BR1  UNL     1      22.361  -1.522  55.060  1.00  0.00    -0.063 Br
ENDROOT
BRANCH   4  10
HETATM   10  N2  UNL     1      19.411   1.050  49.602  1.00  0.00    -0.341 N 
HETATM   11  H15 UNL     1      19.449   0.466  48.753  1.00  0.00     0.167 HD
BRANCH  10  12
HETATM   12  C11 UNL     1      18.516   1.991  50.160  1.00  0.00     0.035 A 
HETATM   13  C12 UNL     1      18.709   3.370  50.115  1.00  0.00     0.032 A 
HETATM   14  C13 UNL     1      17.795   4.257  50.676  1.00  0.00     0.046 A 
HETATM   15  C14 UNL     1      16.673   3.740  51.288  1.00  0.00     0.138 A 
HETATM   16  F1  UNL     1      15.804   4.631  51.826  1.00  0.00    -0.204 F 
HETATM   17  C15 UNL     1      16.447   2.379  51.352  1.00  0.00     0.074 A 
HETATM   18 CL1  UNL     1      15.002   1.760  52.137  1.00  0.00    -0.081 Cl
HETATM   19  C16 UNL     1      17.373   1.511  50.785  1.00  0.00     0.056 A 
ENDBRANCH  10  12
ENDBRANCH   4  10
BRANCH   1  20
HETATM   20  O2  UNL     1      24.506   1.532  52.444  1.00  0.00    -0.350 OA
BRANCH  20  21
HETATM   21  C6  UNL     1      25.474   1.939  51.464  1.00  0.00     0.177 C 
BRANCH  21  22
HETATM   22  C5  UNL     1      26.746   1.196  51.720  1.00  0.00     0.049 C 
BRANCH  22  23
HETATM   23  C4  UNL     1      26.973   0.930  53.154  1.00  0.00     0.089 C 
HETATM   24  N1  UNL     1      26.749  -0.372  53.650  1.00  0.00    -0.197 NA
HETATM   25  C1  UNL     1      26.969  -1.469  52.776  1.00  0.00     0.144 C 
HETATM   26  O1  UNL     1      27.442  -0.466  54.809  1.00  0.00    -0.303 OA
HETATM   27  C2  UNL     1      28.610   0.273  54.672  1.00  0.00     0.195 C 
HETATM   28  C3  UNL     1      28.473   1.098  53.427  1.00  0.00     0.050 C 
ENDBRANCH  22  23
ENDBRANCH  21  22
ENDBRANCH  20  21
ENDBRANCH   1  20
TORSDOF 6
ENDMDL
