MODEL 1
REMARK VINA RESULT:      -7.3      0.000      0.000
REMARK  4 active torsions:
REMARK  status: ('A' for Active; 'I' for Inactive)
REMARK    1  A    between atoms: C2_2  and  C3_3 
REMARK    2  A    between atoms: C8_9  and  N2_10 
REMARK       I    between atoms: N6_20  and  C15_21 
REMARK    3  A    between atoms: C15_21  and  C16_23 
REMARK    4  A    between atoms: C16_23  and  N7_24 
ROOT
HETATM    1  C3  UNL     1      21.052   0.996  51.051  1.00  0.00    -0.010 C 
HETATM    2  C4  UNL     1      21.857   0.886  52.109  1.00  0.00    -0.012 C 
HETATM    3  C5  UNL     1      21.463   0.139  53.300  1.00  0.00     0.188 C 
HETATM    4  N1  UNL     1      22.524  -0.076  54.231  1.00  0.00    -0.301 NA
HETATM    5  C6  UNL     1      23.758  -0.365  54.081  1.00  0.00     0.091 C 
HETATM    6  C7  UNL     1      24.877  -0.651  53.176  1.00  0.00     0.124 C 
HETATM    7  C8  UNL     1      25.179   0.449  52.207  1.00  0.00     0.103 C 
HETATM    8  N3  UNL     1      24.441   1.380  51.642  1.00  0.00    -0.235 NA
HETATM    9  C9  UNL     1      23.024   1.692  51.756  1.00  0.00     0.074 C 
HETATM   10  C10 UNL     1      22.791   2.988  51.546  1.00  0.00    -0.002 C 
HETATM   11  C11 UNL     1      21.535   3.696  51.635  1.00  0.00     0.148 C 
HETATM   12  N4  UNL     1      21.485   4.927  52.024  1.00  0.00    -0.191 NA
HETATM   13  N5  UNL     1      22.742   5.484  52.341  1.00  0.00    -0.309 N 
HETATM   14  C12 UNL     1      23.817   5.255  51.363  1.00  0.00     0.113 C 
HETATM   15  C13 UNL     1      23.452   6.103  50.192  1.00  0.00     0.047 C 
HETATM   16  C14 UNL     1      22.926   5.436  48.987  1.00  0.00     0.128 C 
HETATM   17  N6  UNL     1      23.209   4.056  48.811  1.00  0.00    -0.350 N 
HETATM   18  C15 UNL     1      22.499   3.234  47.895  1.00  0.00     0.248 C 
HETATM   19  O1  UNL     1      22.796   2.008  47.785  1.00  0.00    -0.271 OA
HETATM   20  C19 UNL     1      24.289   3.600  49.668  1.00  0.00     0.137 C 
HETATM   21  C20 UNL     1      23.935   3.802  51.134  1.00  0.00     0.065 C 
HETATM   22  H13 UNL     1      22.981   6.042  53.201  1.00  0.00     0.182 HD
ENDROOT
BRANCH   1  23
HETATM   23  C2  UNL     1      20.050   0.217  51.719  1.00  0.00     0.034 C 
HETATM   24  C1  UNL     1      18.942  -0.328  52.104  1.00  0.00    -0.008 C 
ENDBRANCH   1  23
BRANCH   7  25
HETATM   25  N2  UNL     1      26.501   0.586  51.758  1.00  0.00    -0.387 N 
HETATM   26  H10 UNL     1      26.811   1.583  51.937  1.00  0.00     0.157 HD
HETATM   27  H11 UNL     1      26.724  -0.378  51.391  1.00  0.00     0.157 HD
ENDBRANCH   7  25
BRANCH  18  28
HETATM   28  C16 UNL     1      21.428   3.858  47.100  1.00  0.00     0.373 C 
BRANCH  28  29
HETATM   29  N7  UNL     1      20.168   3.195  47.204  1.00  0.00     0.088 N 
HETATM   30  C17 UNL     1      19.252   3.422  46.130  1.00  0.00     0.310 C 
HETATM   31  C18 UNL     1      19.560   3.313  48.511  1.00  0.00     0.310 C 
ENDBRANCH  28  29
ENDBRANCH  18  28
TORSDOF 4
ENDMDL
MODEL 2
REMARK VINA RESULT:      -7.0      2.149      4.651
REMARK  4 active torsions:
REMARK  status: ('A' for Active; 'I' for Inactive)
REMARK    1  A    between atoms: C2_2  and  C3_3 
REMARK    2  A    between atoms: C8_9  and  N2_10 
REMARK       I    between atoms: N6_20  and  C15_21 
REMARK    3  A    between atoms: C15_21  and  C16_23 
REMARK    4  A    between atoms: C16_23  and  N7_24 
ROOT
HETATM    1  C3  UNL     1      24.530   2.616  52.200  1.00  0.00    -0.010 C 
HETATM    2  C4  UNL     1      24.167   1.353  52.429  1.00  0.00    -0.012 C 
HETATM    3  C5  UNL     1      25.152   0.307  52.690  1.00  0.00     0.188 C 
HETATM    4  N1  UNL     1      24.587  -0.924  53.146  1.00  0.00    -0.301 NA
HETATM    5  C6  UNL     1      23.634  -1.190  53.951  1.00  0.00     0.091 C 
HETATM    6  C7  UNL     1      22.584  -0.705  54.854  1.00  0.00     0.124 C 
HETATM    7  C8  UNL     1      21.572   0.181  54.197  1.00  0.00     0.103 C 
HETATM    8  N3  UNL     1      21.625   1.005  53.172  1.00  0.00    -0.235 NA
HETATM    9  C9  UNL     1      22.714   1.365  52.277  1.00  0.00     0.074 C 
HETATM   10  C10 UNL     1      22.260   1.713  51.072  1.00  0.00    -0.002 C 
HETATM   11  C11 UNL     1      23.024   2.069  49.898  1.00  0.00     0.148 C 
HETATM   12  N4  UNL     1      22.598   1.789  48.711  1.00  0.00    -0.191 NA
HETATM   13  N5  UNL     1      21.353   1.123  48.686  1.00  0.00    -0.309 N 
HETATM   14  C12 UNL     1      20.296   1.694  49.533  1.00  0.00     0.113 C 
HETATM   15  C13 UNL     1      19.915   2.969  48.859  1.00  0.00     0.047 C 
HETATM   16  C14 UNL     1      20.361   4.237  49.464  1.00  0.00     0.128 C 
HETATM   17  N6  UNL     1      20.713   4.233  50.839  1.00  0.00    -0.350 N 
HETATM   18  C15 UNL     1      21.462   5.277  51.448  1.00  0.00     0.248 C 
HETATM   19  O1  UNL     1      21.747   5.214  52.680  1.00  0.00    -0.271 OA
HETATM   20  C19 UNL     1      20.225   3.052  51.530  1.00  0.00     0.137 C 
HETATM   21  C20 UNL     1      20.807   1.789  50.915  1.00  0.00     0.065 C 
HETATM   22  H13 UNL     1      21.113   0.266  48.124  1.00  0.00     0.182 HD
ENDROOT
BRANCH   1  23
HETATM   23  C2  UNL     1      25.912   2.255  52.335  1.00  0.00     0.034 C 
HETATM   24  C1  UNL     1      27.204   2.230  52.312  1.00  0.00    -0.008 C 
ENDBRANCH   1  23
BRANCH   7  25
HETATM   25  N2  UNL     1      20.271   0.195  54.721  1.00  0.00    -0.387 N 
HETATM   26  H10 UNL     1      19.679  -0.479  54.159  1.00  0.00     0.157 HD
HETATM   27  H11 UNL     1      20.344   0.892  55.511  1.00  0.00     0.157 HD
ENDBRANCH   7  25
BRANCH  18  28
HETATM   28  C16 UNL     1      21.880   6.405  50.599  1.00  0.00     0.373 C 
BRANCH  28  29
HETATM   29  N7  UNL     1      23.271   6.711  50.688  1.00  0.00     0.088 N 
HETATM   30  C17 UNL     1      23.636   8.058  50.379  1.00  0.00     0.310 C 
HETATM   31  C18 UNL     1      24.120   5.727  50.054  1.00  0.00     0.310 C 
ENDBRANCH  28  29
ENDBRANCH  18  28
TORSDOF 4
ENDMDL
MODEL 3
REMARK VINA RESULT:      -6.8     10.155     12.970
REMARK  4 active torsions:
REMARK  status: ('A' for Active; 'I' for Inactive)
REMARK    1  A    between atoms: C2_2  and  C3_3 
REMARK    2  A    between atoms: C8_9  and  N2_10 
REMARK       I    between atoms: N6_20  and  C15_21 
REMARK    3  A    between atoms: C15_21  and  C16_23 
REMARK    4  A    between atoms: C16_23  and  N7_24 
ROOT
HETATM    1  C3  UNL     1      32.700   8.775  46.224  1.00  0.00    -0.010 C 
HETATM    2  C4  UNL     1      32.011   8.660  47.359  1.00  0.00    -0.012 C 
HETATM    3  C5  UNL     1      31.651   9.826  48.160  1.00  0.00     0.188 C 
HETATM    4  N1  UNL     1      30.719   9.550  49.207  1.00  0.00    -0.301 NA
HETATM    5  C6  UNL     1      29.685   8.804  49.266  1.00  0.00     0.091 C 
HETATM    6  C7  UNL     1      28.778   7.863  48.599  1.00  0.00     0.124 C 
HETATM    7  C8  UNL     1      29.447   6.627  48.086  1.00  0.00     0.103 C 
HETATM    8  N3  UNL     1      30.666   6.371  47.660  1.00  0.00    -0.235 NA
HETATM    9  C9  UNL     1      31.841   7.219  47.531  1.00  0.00     0.074 C 
HETATM   10  C10 UNL     1      32.967   6.514  47.657  1.00  0.00    -0.002 C 
HETATM   11  C11 UNL     1      34.329   6.997  47.657  1.00  0.00     0.148 C 
HETATM   12  N4  UNL     1      35.245   6.422  48.363  1.00  0.00    -0.191 NA
HETATM   13  N5  UNL     1      34.789   5.312  49.106  1.00  0.00    -0.309 N 
HETATM   14  C12 UNL     1      33.959   4.341  48.377  1.00  0.00     0.113 C 
HETATM   15  C13 UNL     1      34.904   3.654  47.450  1.00  0.00     0.047 C 
HETATM   16  C14 UNL     1      34.842   3.994  46.016  1.00  0.00     0.128 C 
HETATM   17  N6  UNL     1      33.646   4.574  45.519  1.00  0.00    -0.350 N 
HETATM   18  C15 UNL     1      33.576   5.244  44.267  1.00  0.00     0.248 C 
HETATM   19  O1  UNL     1      32.479   5.745  43.879  1.00  0.00    -0.271 OA
HETATM   20  C19 UNL     1      32.529   4.405  46.431  1.00  0.00     0.137 C 
HETATM   21  C20 UNL     1      32.823   5.062  47.771  1.00  0.00     0.065 C 
HETATM   22  H13 UNL     1      34.985   5.115  50.122  1.00  0.00     0.182 HD
ENDROOT
BRANCH   1  23
HETATM   23  C2  UNL     1      32.759  10.199  46.390  1.00  0.00     0.034 C 
HETATM   24  C1  UNL     1      32.895  11.472  46.214  1.00  0.00    -0.008 C 
ENDBRANCH   1  23
BRANCH   7  25
HETATM   25  N2  UNL     1      28.687   5.450  48.010  1.00  0.00    -0.387 N 
HETATM   26  H10 UNL     1      29.351   4.625  48.006  1.00  0.00     0.157 HD
HETATM   27  H11 UNL     1      27.697   5.813  47.983  1.00  0.00     0.157 HD
ENDBRANCH   7  25
BRANCH  18  28
HETATM   28  C16 UNL     1      34.807   5.327  43.463  1.00  0.00     0.373 C 
BRANCH  28  29
HETATM   29  N7  UNL     1      34.706   6.201  42.340  1.00  0.00     0.088 N 
HETATM   30  C17 UNL     1      34.818   5.584  41.056  1.00  0.00     0.310 C 
HETATM   31  C18 UNL     1      35.501   7.402  42.470  1.00  0.00     0.310 C 
ENDBRANCH  28  29
ENDBRANCH  18  28
TORSDOF 4
ENDMDL
MODEL 4
REMARK VINA RESULT:      -6.5      1.758      2.637
REMARK  4 active torsions:
REMARK  status: ('A' for Active; 'I' for Inactive)
REMARK    1  A    between atoms: C2_2  and  C3_3 
REMARK    2  A    between atoms: C8_9  and  N2_10 
REMARK       I    between atoms: N6_20  and  C15_21 
REMARK    3  A    between atoms: C15_21  and  C16_23 
REMARK    4  A    between atoms: C16_23  and  N7_24 
ROOT
HETATM    1  C3  UNL     1      22.171   2.149  50.087  1.00  0.00    -0.010 C 
HETATM    2  C4  UNL     1      23.204   2.464  50.869  1.00  0.00    -0.012 C 
HETATM    3  C5  UNL     1      23.531   1.686  52.060  1.00  0.00     0.188 C 
HETATM    4  N1  UNL     1      24.794   2.014  52.642  1.00  0.00    -0.301 NA
HETATM    5  C6  UNL     1      25.931   2.293  52.134  1.00  0.00     0.091 C 
HETATM    6  C7  UNL     1      26.756   2.483  50.936  1.00  0.00     0.124 C 
HETATM    7  C8  UNL     1      26.258   3.549  50.011  1.00  0.00     0.103 C 
HETATM    8  N3  UNL     1      25.059   4.025  49.746  1.00  0.00    -0.235 NA
HETATM    9  C9  UNL     1      23.747   3.683  50.271  1.00  0.00     0.074 C 
HETATM   10  C10 UNL     1      22.920   4.729  50.237  1.00  0.00    -0.002 C 
HETATM   11  C11 UNL     1      21.562   4.811  50.725  1.00  0.00     0.148 C 
HETATM   12  N4  UNL     1      21.089   5.912  51.208  1.00  0.00    -0.191 NA
HETATM   13  N5  UNL     1      22.007   6.984  51.208  1.00  0.00    -0.309 N 
HETATM   14  C12 UNL     1      22.748   7.202  49.956  1.00  0.00     0.113 C 
HETATM   15  C13 UNL     1      21.734   7.736  49.001  1.00  0.00     0.047 C 
HETATM   16  C14 UNL     1      21.238   6.841  47.940  1.00  0.00     0.128 C 
HETATM   17  N6  UNL     1      22.035   5.721  47.585  1.00  0.00    -0.350 N 
HETATM   18  C15 UNL     1      21.532   4.621  46.840  1.00  0.00     0.248 C 
HETATM   19  O1  UNL     1      22.293   3.648  46.557  1.00  0.00    -0.271 OA
HETATM   20  C19 UNL     1      23.398   5.837  48.072  1.00  0.00     0.137 C 
HETATM   21  C20 UNL     1      23.422   5.941  49.589  1.00  0.00     0.065 C 
HETATM   22  H13 UNL     1      22.208   7.636  52.009  1.00  0.00     0.182 HD
ENDROOT
BRANCH   1  23
HETATM   23  C2  UNL     1      21.846   1.045  50.943  1.00  0.00     0.034 C 
HETATM   24  C1  UNL     1      21.260   0.063  51.547  1.00  0.00    -0.008 C 
ENDBRANCH   1  23
BRANCH   7  25
HETATM   25  N2  UNL     1      27.198   4.231  49.226  1.00  0.00    -0.387 N 
HETATM   26  H10 UNL     1      26.676   4.796  48.498  1.00  0.00     0.157 HD
HETATM   27  H11 UNL     1      28.117   3.933  49.650  1.00  0.00     0.157 HD
ENDBRANCH   7  25
BRANCH  18  28
HETATM   28  C16 UNL     1      20.120   4.662  46.423  1.00  0.00     0.373 C 
BRANCH  28  29
HETATM   29  N7  UNL     1      19.397   3.465  46.708  1.00  0.00     0.088 N 
HETATM   30  C17 UNL     1      18.238   3.229  45.905  1.00  0.00     0.310 C 
HETATM   31  C18 UNL     1      19.170   3.250  48.120  1.00  0.00     0.310 C 
ENDBRANCH  28  29
ENDBRANCH  18  28
TORSDOF 4
ENDMDL
MODEL 5
REMARK VINA RESULT:      -6.5      9.679     12.238
REMARK  4 active torsions:
REMARK  status: ('A' for Active; 'I' for Inactive)
REMARK    1  A    between atoms: C2_2  and  C3_3 
REMARK    2  A    between atoms: C8_9  and  N2_10 
REMARK       I    between atoms: N6_20  and  C15_21 
REMARK    3  A    between atoms: C15_21  and  C16_23 
REMARK    4  A    between atoms: C16_23  and  N7_24 
ROOT
HETATM    1  C3  UNL     1      32.170   4.942  46.892  1.00  0.00    -0.010 C 
HETATM    2  C4  UNL     1      33.039   5.113  45.894  1.00  0.00    -0.012 C 
HETATM    3  C5  UNL     1      34.045   4.106  45.571  1.00  0.00     0.188 C 
HETATM    4  N1  UNL     1      34.729   4.339  44.339  1.00  0.00    -0.301 NA
HETATM    5  C6  UNL     1      34.336   4.758  43.200  1.00  0.00     0.091 C 
HETATM    6  C7  UNL     1      33.238   5.229  42.349  1.00  0.00     0.124 C 
HETATM    7  C8  UNL     1      32.547   6.454  42.862  1.00  0.00     0.103 C 
HETATM    8  N3  UNL     1      32.348   6.939  44.069  1.00  0.00    -0.235 NA
HETATM    9  C9  UNL     1      32.739   6.449  45.383  1.00  0.00     0.074 C 
HETATM   10  C10 UNL     1      32.901   7.451  46.248  1.00  0.00    -0.002 C 
HETATM   11  C11 UNL     1      33.346   7.382  47.622  1.00  0.00     0.148 C 
HETATM   12  N4  UNL     1      34.038   8.336  48.150  1.00  0.00    -0.191 NA
HETATM   13  N5  UNL     1      34.302   9.411  47.276  1.00  0.00    -0.309 N 
HETATM   14  C12 UNL     1      33.156   9.919  46.508  1.00  0.00     0.113 C 
HETATM   15  C13 UNL     1      32.302  10.615  47.514  1.00  0.00     0.047 C 
HETATM   16  C14 UNL     1      31.055   9.956  47.944  1.00  0.00     0.128 C 
HETATM   17  N6  UNL     1      30.496   8.966  47.094  1.00  0.00    -0.350 N 
HETATM   18  C15 UNL     1      29.513   8.039  47.533  1.00  0.00     0.248 C 
HETATM   19  O1  UNL     1      29.054   7.176  46.727  1.00  0.00    -0.271 OA
HETATM   20  C19 UNL     1      31.046   9.017  45.751  1.00  0.00     0.137 C 
HETATM   21  C20 UNL     1      32.550   8.790  45.775  1.00  0.00     0.065 C 
HETATM   22  H13 UNL     1      35.233   9.880  47.123  1.00  0.00     0.182 HD
ENDROOT
BRANCH   1  23
HETATM   23  C2  UNL     1      32.755   3.669  47.198  1.00  0.00     0.034 C 
HETATM   24  C1  UNL     1      33.034   2.512  47.702  1.00  0.00    -0.008 C 
ENDBRANCH   1  23
BRANCH   7  25
HETATM   25  N2  UNL     1      31.963   7.321  41.926  1.00  0.00    -0.387 N 
HETATM   26  H10 UNL     1      30.937   7.425  42.165  1.00  0.00     0.157 HD
HETATM   27  H11 UNL     1      32.774   7.569  41.299  1.00  0.00     0.157 HD
ENDBRANCH   7  25
BRANCH  18  28
HETATM   28  C16 UNL     1      29.064   8.125  48.933  1.00  0.00     0.373 C 
BRANCH  28  29
HETATM   29  N7  UNL     1      27.698   8.514  49.080  1.00  0.00     0.088 N 
HETATM   30  C17 UNL     1      27.442   9.546  50.035  1.00  0.00     0.310 C 
HETATM   31  C18 UNL     1      26.788   7.396  49.184  1.00  0.00     0.310 C 
ENDBRANCH  28  29
ENDBRANCH  18  28
TORSDOF 4
ENDMDL
MODEL 6
REMARK VINA RESULT:      -6.4      8.543     10.609
REMARK  4 active torsions:
REMARK  status: ('A' for Active; 'I' for Inactive)
REMARK    1  A    between atoms: C2_2  and  C3_3 
REMARK    2  A    between atoms: C8_9  and  N2_10 
REMARK       I    between atoms: N6_20  and  C15_21 
REMARK    3  A    between atoms: C15_21  and  C16_23 
REMARK    4  A    between atoms: C16_23  and  N7_24 
ROOT
HETATM    1  C3  UNL     1      29.064   6.959  47.455  1.00  0.00    -0.010 C 
HETATM    2  C4  UNL     1      30.259   6.773  48.017  1.00  0.00    -0.012 C 
HETATM    3  C5  UNL     1      30.518   5.656  48.920  1.00  0.00     0.188 C 
HETATM    4  N1  UNL     1      31.898   5.472  49.239  1.00  0.00    -0.301 NA
HETATM    5  C6  UNL     1      32.963   5.557  48.542  1.00  0.00     0.091 C 
HETATM    6  C7  UNL     1      33.594   5.821  47.244  1.00  0.00     0.124 C 
HETATM    7  C8  UNL     1      33.310   7.183  46.690  1.00  0.00     0.103 C 
HETATM    8  N3  UNL     1      32.298   8.014  46.815  1.00  0.00    -0.235 NA
HETATM    9  C9  UNL     1      31.051   7.913  47.558  1.00  0.00     0.074 C 
HETATM   10  C10 UNL     1      30.603   9.115  47.926  1.00  0.00    -0.002 C 
HETATM   11  C11 UNL     1      29.443   9.429  48.728  1.00  0.00     0.148 C 
HETATM   12  N4  UNL     1      29.430  10.453  49.515  1.00  0.00    -0.191 NA
HETATM   13  N5  UNL     1      30.626  11.203  49.508  1.00  0.00    -0.309 N 
HETATM   14  C12 UNL     1      31.178  11.529  48.185  1.00  0.00     0.113 C 
HETATM   15  C13 UNL     1      30.240  12.543  47.620  1.00  0.00     0.047 C 
HETATM   16  C14 UNL     1      29.317  12.118  46.552  1.00  0.00     0.128 C 
HETATM   17  N6  UNL     1      29.648  10.956  45.806  1.00  0.00    -0.350 N 
HETATM   18  C15 UNL     1      28.706  10.262  45.000  1.00  0.00     0.248 C 
HETATM   19  O1  UNL     1      29.062   9.229  44.360  1.00  0.00    -0.271 OA
HETATM   20  C19 UNL     1      31.039  10.573  45.970  1.00  0.00     0.137 C 
HETATM   21  C20 UNL     1      31.348  10.272  47.429  1.00  0.00     0.065 C 
HETATM   22  H13 UNL     1      31.154  11.547  50.351  1.00  0.00     0.182 HD
ENDROOT
BRANCH   1  23
HETATM   23  C2  UNL     1      28.554   5.800  48.130  1.00  0.00     0.034 C 
HETATM   24  C1  UNL     1      27.808   4.848  48.587  1.00  0.00    -0.008 C 
ENDBRANCH   1  23
BRANCH   7  25
HETATM   25  N2  UNL     1      34.274   7.767  45.855  1.00  0.00    -0.387 N 
HETATM   26  H10 UNL     1      34.130   8.817  45.865  1.00  0.00     0.157 HD
HETATM   27  H11 UNL     1      34.814   6.933  45.502  1.00  0.00     0.157 HD
ENDBRANCH   7  25
BRANCH  18  28
HETATM   28  C16 UNL     1      27.331  10.786  44.946  1.00  0.00     0.373 C 
BRANCH  28  29
HETATM   29  N7  UNL     1      26.345   9.877  45.435  1.00  0.00     0.088 N 
HETATM   30  C17 UNL     1      25.075   9.922  44.780  1.00  0.00     0.310 C 
HETATM   31  C18 UNL     1      26.247   9.854  46.877  1.00  0.00     0.310 C 
ENDBRANCH  28  29
ENDBRANCH  18  28
TORSDOF 4
ENDMDL
MODEL 7
REMARK VINA RESULT:      -6.4      9.120     12.009
REMARK  4 active torsions:
REMARK  status: ('A' for Active; 'I' for Inactive)
REMARK    1  A    between atoms: C2_2  and  C3_3 
REMARK    2  A    between atoms: C8_9  and  N2_10 
REMARK       I    between atoms: N6_20  and  C15_21 
REMARK    3  A    between atoms: C15_21  and  C16_23 
REMARK    4  A    between atoms: C16_23  and  N7_24 
ROOT
HETATM    1  C3  UNL     1      29.825   6.687  48.093  1.00  0.00    -0.010 C 
HETATM    2  C4  UNL     1      29.028   7.721  47.822  1.00  0.00    -0.012 C 
HETATM    3  C5  UNL     1      27.576   7.575  47.760  1.00  0.00     0.188 C 
HETATM    4  N1  UNL     1      26.868   8.814  47.696  1.00  0.00    -0.301 NA
HETATM    5  C6  UNL     1      27.040   9.937  48.277  1.00  0.00     0.091 C 
HETATM    6  C7  UNL     1      27.816  10.758  49.213  1.00  0.00     0.124 C 
HETATM    7  C8  UNL     1      29.260  10.904  48.847  1.00  0.00     0.103 C 
HETATM    8  N3  UNL     1      30.109  10.136  48.197  1.00  0.00    -0.235 NA
HETATM    9  C9  UNL     1      29.948   8.829  47.577  1.00  0.00     0.074 C 
HETATM   10  C10 UNL     1      30.784   8.671  46.550  1.00  0.00    -0.002 C 
HETATM   11  C11 UNL     1      30.886   7.550  45.644  1.00  0.00     0.148 C 
HETATM   12  N4  UNL     1      31.223   7.714  44.408  1.00  0.00    -0.191 NA
HETATM   13  N5  UNL     1      31.472   9.057  44.051  1.00  0.00    -0.309 N 
HETATM   14  C12 UNL     1      32.332   9.822  44.966  1.00  0.00     0.113 C 
HETATM   15  C13 UNL     1      33.697   9.251  44.772  1.00  0.00     0.047 C 
HETATM   16  C14 UNL     1      34.241   8.377  45.827  1.00  0.00     0.128 C 
HETATM   17  N6  UNL     1      33.686   8.477  47.130  1.00  0.00    -0.350 N 
HETATM   18  C15 UNL     1      33.878   7.484  48.129  1.00  0.00     0.248 C 
HETATM   19  O1  UNL     1      33.354   7.629  49.272  1.00  0.00    -0.271 OA
HETATM   20  C19 UNL     1      32.912   9.692  47.308  1.00  0.00     0.137 C 
HETATM   21  C20 UNL     1      31.754   9.743  46.323  1.00  0.00     0.065 C 
HETATM   22  H13 UNL     1      31.104   9.557  43.201  1.00  0.00     0.182 HD
ENDROOT
BRANCH   1  23
HETATM   23  C2  UNL     1      28.687   5.820  48.192  1.00  0.00     0.034 C 
HETATM   24  C1  UNL     1      27.845   4.897  48.525  1.00  0.00    -0.008 C 
ENDBRANCH   1  23
BRANCH   7  25
HETATM   25  N2  UNL     1      29.924  12.075  49.243  1.00  0.00    -0.387 N 
HETATM   26  H10 UNL     1      30.950  11.974  48.999  1.00  0.00     0.157 HD
HETATM   27  H11 UNL     1      29.146  12.657  49.654  1.00  0.00     0.157 HD
ENDBRANCH   7  25
BRANCH  18  28
HETATM   28  C16 UNL     1      34.694   6.309  47.780  1.00  0.00     0.373 C 
BRANCH  28  29
HETATM   29  N7  UNL     1      34.005   5.066  47.913  1.00  0.00     0.088 N 
HETATM   30  C17 UNL     1      34.829   3.904  48.029  1.00  0.00     0.310 C 
HETATM   31  C18 UNL     1      32.916   4.906  46.976  1.00  0.00     0.310 C 
ENDBRANCH  28  29
ENDBRANCH  18  28
TORSDOF 4
ENDMDL
MODEL 8
REMARK VINA RESULT:      -6.3      8.857     11.695
REMARK  4 active torsions:
REMARK  status: ('A' for Active; 'I' for Inactive)
REMARK    1  A    between atoms: C2_2  and  C3_3 
REMARK    2  A    between atoms: C8_9  and  N2_10 
REMARK       I    between atoms: N6_20  and  C15_21 
REMARK    3  A    between atoms: C15_21  and  C16_23 
REMARK    4  A    between atoms: C16_23  and  N7_24 
ROOT
HETATM    1  C3  UNL     1      28.106   8.559  45.528  1.00  0.00    -0.010 C 
HETATM    2  C4  UNL     1      27.494   9.434  46.328  1.00  0.00    -0.012 C 
HETATM    3  C5  UNL     1      26.169   9.962  46.017  1.00  0.00     0.188 C 
HETATM    4  N1  UNL     1      25.567  10.694  47.086  1.00  0.00    -0.301 NA
HETATM    5  C6  UNL     1      25.537  10.509  48.348  1.00  0.00     0.091 C 
HETATM    6  C7  UNL     1      25.926   9.695  49.505  1.00  0.00     0.124 C 
HETATM    7  C8  UNL     1      27.405   9.542  49.677  1.00  0.00     0.103 C 
HETATM    8  N3  UNL     1      28.415   9.539  48.834  1.00  0.00    -0.235 NA
HETATM    9  C9  UNL     1      28.467   9.692  47.388  1.00  0.00     0.074 C 
HETATM   10  C10 UNL     1      29.623  10.229  46.995  1.00  0.00    -0.002 C 
HETATM   11  C11 UNL     1      30.029  10.597  45.658  1.00  0.00     0.148 C 
HETATM   12  N4  UNL     1      30.809  11.605  45.448  1.00  0.00    -0.191 NA
HETATM   13  N5  UNL     1      31.207  12.282  46.620  1.00  0.00    -0.309 N 
HETATM   14  C12 UNL     1      31.680  11.437  47.727  1.00  0.00     0.113 C 
HETATM   15  C13 UNL     1      33.003  10.919  47.272  1.00  0.00     0.047 C 
HETATM   16  C14 UNL     1      33.090   9.509  46.850  1.00  0.00     0.128 C 
HETATM   17  N6  UNL     1      32.090   8.612  47.307  1.00  0.00    -0.350 N 
HETATM   18  C15 UNL     1      31.868   7.338  46.718  1.00  0.00     0.248 C 
HETATM   19  O1  UNL     1      30.957   6.583  47.169  1.00  0.00    -0.271 OA
HETATM   20  C19 UNL     1      31.335   9.150  48.425  1.00  0.00     0.137 C 
HETATM   21  C20 UNL     1      30.634  10.440  48.032  1.00  0.00     0.065 C 
HETATM   22  H13 UNL     1      31.197  13.323  46.776  1.00  0.00     0.182 HD
ENDROOT
BRANCH   1  23
HETATM   23  C2  UNL     1      26.992   8.589  44.625  1.00  0.00     0.034 C 
HETATM   24  C1  UNL     1      26.196   8.434  43.618  1.00  0.00    -0.008 C 
ENDBRANCH   1  23
BRANCH   7  25
HETATM   25  N2  UNL     1      27.900   9.357  50.976  1.00  0.00    -0.387 N 
HETATM   26  H10 UNL     1      28.686  10.050  51.134  1.00  0.00     0.157 HD
HETATM   27  H11 UNL     1      27.300   8.573  51.347  1.00  0.00     0.157 HD
ENDBRANCH   7  25
BRANCH  18  28
HETATM   28  C16 UNL     1      32.726   6.947  45.586  1.00  0.00     0.373 C 
BRANCH  28  29
HETATM   29  N7  UNL     1      33.071   5.561  45.573  1.00  0.00     0.088 N 
HETATM   30  C17 UNL     1      34.150   5.178  46.429  1.00  0.00     0.310 C 
HETATM   31  C18 UNL     1      33.167   5.003  44.243  1.00  0.00     0.310 C 
ENDBRANCH  28  29
ENDBRANCH  18  28
TORSDOF 4
ENDMDL
MODEL 9
REMARK VINA RESULT:      -6.3      7.034     10.125
REMARK  4 active torsions:
REMARK  status: ('A' for Active; 'I' for Inactive)
REMARK    1  A    between atoms: C2_2  and  C3_3 
REMARK    2  A    between atoms: C8_9  and  N2_10 
REMARK       I    between atoms: N6_20  and  C15_21 
REMARK    3  A    between atoms: C15_21  and  C16_23 
REMARK    4  A    between atoms: C16_23  and  N7_24 
ROOT
HETATM    1  C3  UNL     1      29.228   8.618  48.506  1.00  0.00    -0.010 C 
HETATM    2  C4  UNL     1      28.749   7.405  48.226  1.00  0.00    -0.012 C 
HETATM    3  C5  UNL     1      29.538   6.198  48.453  1.00  0.00     0.188 C 
HETATM    4  N1  UNL     1      28.796   4.984  48.326  1.00  0.00    -0.301 NA
HETATM    5  C6  UNL     1      27.616   4.653  48.682  1.00  0.00     0.091 C 
HETATM    6  C7  UNL     1      26.348   5.025  49.320  1.00  0.00     0.124 C 
HETATM    7  C8  UNL     1      25.659   6.189  48.678  1.00  0.00     0.103 C 
HETATM    8  N3  UNL     1      26.091   7.239  48.013  1.00  0.00    -0.235 NA
HETATM    9  C9  UNL     1      27.433   7.664  47.646  1.00  0.00     0.074 C 
HETATM   10  C10 UNL     1      27.427   8.381  46.521  1.00  0.00    -0.002 C 
HETATM   11  C11 UNL     1      28.556   8.922  45.800  1.00  0.00     0.148 C 
HETATM   12  N4  UNL     1      28.540   9.031  44.513  1.00  0.00    -0.191 NA
HETATM   13  N5  UNL     1      27.346   8.580  43.910  1.00  0.00    -0.309 N 
HETATM   14  C12 UNL     1      26.094   9.051  44.521  1.00  0.00     0.113 C 
HETATM   15  C13 UNL     1      26.023  10.500  44.173  1.00  0.00     0.047 C 
HETATM   16  C14 UNL     1      26.300  11.485  45.234  1.00  0.00     0.128 C 
HETATM   17  N6  UNL     1      26.169  11.066  46.584  1.00  0.00    -0.350 N 
HETATM   18  C15 UNL     1      26.719  11.793  47.675  1.00  0.00     0.248 C 
HETATM   19  O1  UNL     1      26.571  11.366  48.858  1.00  0.00    -0.271 OA
HETATM   20  C19 UNL     1      25.423   9.826  46.708  1.00  0.00     0.137 C 
HETATM   21  C20 UNL     1      26.116   8.702  45.955  1.00  0.00     0.065 C 
HETATM   22  H13 UNL     1      27.268   7.946  43.073  1.00  0.00     0.182 HD
ENDROOT
BRANCH   1  23
HETATM   23  C2  UNL     1      30.465   8.041  48.946  1.00  0.00     0.034 C 
HETATM   24  C1  UNL     1      31.644   7.838  49.437  1.00  0.00    -0.008 C 
ENDBRANCH   1  23
BRANCH   7  25
HETATM   25  N2  UNL     1      24.260   6.249  48.757  1.00  0.00    -0.387 N 
HETATM   26  H10 UNL     1      23.941   7.157  48.314  1.00  0.00     0.157 HD
HETATM   27  H11 UNL     1      24.013   5.346  49.243  1.00  0.00     0.157 HD
ENDBRANCH   7  25
BRANCH  18  28
HETATM   28  C16 UNL     1      27.451  13.035  47.372  1.00  0.00     0.373 C 
BRANCH  28  29
HETATM   29  N7  UNL     1      28.851  12.846  47.168  1.00  0.00     0.088 N 
HETATM   30  C17 UNL     1      29.659  12.843  48.346  1.00  0.00     0.310 C 
HETATM   31  C18 UNL     1      29.393  13.658  46.102  1.00  0.00     0.310 C 
ENDBRANCH  28  29
ENDBRANCH  18  28
TORSDOF 4
ENDMDL
