MODEL 1
REMARK VINA RESULT:      -7.4      0.000      0.000
REMARK  11 active torsions:
REMARK  status: ('A' for Active; 'I' for Inactive)
REMARK    1  A    between atoms: O1_2  and  C2_3 
REMARK    2  A    between atoms: C2_3  and  C3_4 
REMARK    3  A    between atoms: C3_4  and  O2_5 
REMARK    4  A    between atoms: O2_5  and  C4_6 
REMARK    5  A    between atoms: C6_8  and  O3_9 
REMARK    6  A    between atoms: O3_9  and  C7_10 
REMARK    7  A    between atoms: C7_10  and  C8_11 
REMARK    8  A    between atoms: C8_11  and  O4_12 
REMARK    9  A    between atoms: C10_14  and  N1_15 
REMARK   10  A    between atoms: N1_15  and  C11_16 
REMARK   11  A    between atoms: C15_20  and  O5_21 
ROOT
HETATM    1  C4  UNL     1      26.253  -0.658  53.345  1.00  0.00     0.073 A 
HETATM    2  C5  UNL     1      25.974   0.324  52.428  1.00  0.00     0.074 A 
HETATM    3  C6  UNL     1      24.758   0.925  52.225  1.00  0.00     0.087 A 
HETATM    4  C9  UNL     1      23.717   0.469  53.048  1.00  0.00     0.072 A 
HETATM    5  C10 UNL     1      22.391   0.895  53.049  1.00  0.00     0.144 A 
HETATM    6  N2  UNL     1      21.476   0.395  53.865  1.00  0.00    -0.223 NA
HETATM    7  C18 UNL     1      21.791  -0.570  54.754  1.00  0.00     0.236 A 
HETATM    8  N3  UNL     1      23.041  -1.049  54.833  1.00  0.00    -0.241 NA
HETATM    9  C19 UNL     1      23.963  -0.534  53.999  1.00  0.00     0.077 A 
HETATM   10  C20 UNL     1      25.229  -1.091  54.140  1.00  0.00     0.069 A 
ENDROOT
BRANCH   5  11
HETATM   11  N1  UNL     1      22.105   1.922  52.098  1.00  0.00    -0.340 N 
HETATM   12  H14 UNL     1      22.730   2.660  51.700  1.00  0.00     0.167 HD
BRANCH  11  13
HETATM   13  C11 UNL     1      20.751   1.950  51.610  1.00  0.00     0.036 A 
HETATM   14  C12 UNL     1      20.325   1.026  50.655  1.00  0.00     0.029 A 
HETATM   15  C13 UNL     1      19.045   1.004  50.149  1.00  0.00     0.005 A 
HETATM   16  C14 UNL     1      18.148   1.959  50.628  1.00  0.00     0.037 A 
HETATM   17  C15 UNL     1      18.510   2.899  51.574  1.00  0.00     0.070 A 
HETATM   18  C17 UNL     1      19.811   2.861  52.036  1.00  0.00     0.066 A 
BRANCH  17  19
HETATM   19  O5  UNL     1      17.631   3.849  52.054  1.00  0.00    -0.356 OA
HETATM   20  C16 UNL     1      16.289   3.865  51.615  1.00  0.00     0.210 C 
ENDBRANCH  17  19
ENDBRANCH  11  13
ENDBRANCH   5  11
BRANCH   3  21
HETATM   21  O3  UNL     1      24.273   1.884  51.406  1.00  0.00    -0.348 OA
BRANCH  21  22
HETATM   22  C7  UNL     1      24.820   3.129  51.151  1.00  0.00     0.201 C 
BRANCH  22  23
HETATM   23  C8  UNL     1      25.943   3.177  50.155  1.00  0.00     0.190 C 
BRANCH  23  24
HETATM   24  O4  UNL     1      27.160   3.468  50.822  1.00  0.00    -0.399 OA
HETATM   25  H13 UNL     1      27.498   2.612  51.175  1.00  0.00     0.209 HD
ENDBRANCH  23  24
ENDBRANCH  22  23
ENDBRANCH  21  22
ENDBRANCH   3  21
BRANCH   1  26
HETATM   26  O2  UNL     1      27.559  -1.141  53.394  1.00  0.00    -0.349 OA
BRANCH  26  27
HETATM   27  C3  UNL     1      28.661  -0.262  53.549  1.00  0.00     0.201 C 
BRANCH  27  28
HETATM   28  C2  UNL     1      28.632   0.395  54.886  1.00  0.00     0.193 C 
BRANCH  28  29
HETATM   29  O1  UNL     1      29.221   1.655  54.799  1.00  0.00    -0.394 OA
HETATM   30  C1  UNL     1      28.747   2.395  53.744  1.00  0.00     0.201 C 
ENDBRANCH  28  29
ENDBRANCH  27  28
ENDBRANCH  26  27
ENDBRANCH   1  26
TORSDOF 11
ENDMDL
MODEL 2
REMARK VINA RESULT:      -7.3      1.591      3.318
REMARK  11 active torsions:
REMARK  status: ('A' for Active; 'I' for Inactive)
REMARK    1  A    between atoms: O1_2  and  C2_3 
REMARK    2  A    between atoms: C2_3  and  C3_4 
REMARK    3  A    between atoms: C3_4  and  O2_5 
REMARK    4  A    between atoms: O2_5  and  C4_6 
REMARK    5  A    between atoms: C6_8  and  O3_9 
REMARK    6  A    between atoms: O3_9  and  C7_10 
REMARK    7  A    between atoms: C7_10  and  C8_11 
REMARK    8  A    between atoms: C8_11  and  O4_12 
REMARK    9  A    between atoms: C10_14  and  N1_15 
REMARK   10  A    between atoms: N1_15  and  C11_16 
REMARK   11  A    between atoms: C15_20  and  O5_21 
ROOT
HETATM    1  C4  UNL     1      26.654  -0.164  52.637  1.00  0.00     0.073 A 
HETATM    2  C5  UNL     1      25.503  -0.532  53.289  1.00  0.00     0.074 A 
HETATM    3  C6  UNL     1      24.284   0.088  53.199  1.00  0.00     0.087 A 
HETATM    4  C9  UNL     1      24.239   1.206  52.352  1.00  0.00     0.072 A 
HETATM    5  C10 UNL     1      23.141   2.021  52.084  1.00  0.00     0.144 A 
HETATM    6  N2  UNL     1      23.202   3.064  51.270  1.00  0.00    -0.223 NA
HETATM    7  C18 UNL     1      24.352   3.393  50.648  1.00  0.00     0.236 A 
HETATM    8  N3  UNL     1      25.467   2.671  50.838  1.00  0.00    -0.241 NA
HETATM    9  C19 UNL     1      25.394   1.614  51.667  1.00  0.00     0.077 A 
HETATM   10  C20 UNL     1      26.593   0.927  51.815  1.00  0.00     0.069 A 
ENDROOT
BRANCH   5  11
HETATM   11  N1  UNL     1      21.944   1.631  52.759  1.00  0.00    -0.340 N 
HETATM   12  H14 UNL     1      21.811   1.245  53.721  1.00  0.00     0.167 HD
BRANCH  11  13
HETATM   13  C11 UNL     1      20.730   1.792  52.001  1.00  0.00     0.036 A 
HETATM   14  C12 UNL     1      20.468   0.969  50.905  1.00  0.00     0.029 A 
HETATM   15  C13 UNL     1      19.327   1.076  50.141  1.00  0.00     0.005 A 
HETATM   16  C14 UNL     1      18.405   2.060  50.498  1.00  0.00     0.037 A 
HETATM   17  C15 UNL     1      18.609   2.904  51.573  1.00  0.00     0.070 A 
HETATM   18  C17 UNL     1      19.775   2.739  52.293  1.00  0.00     0.066 A 
BRANCH  17  19
HETATM   19  O5  UNL     1      17.703   3.881  51.933  1.00  0.00    -0.356 OA
HETATM   20  C16 UNL     1      16.374   3.833  51.458  1.00  0.00     0.210 C 
ENDBRANCH  17  19
ENDBRANCH  11  13
ENDBRANCH   5  11
BRANCH   3  21
HETATM   21  O3  UNL     1      23.057  -0.100  53.732  1.00  0.00    -0.348 OA
BRANCH  21  22
HETATM   22  C7  UNL     1      22.582  -1.229  54.374  1.00  0.00     0.201 C 
BRANCH  22  23
HETATM   23  C8  UNL     1      21.090  -1.401  54.414  1.00  0.00     0.190 C 
BRANCH  23  24
HETATM   24  O4  UNL     1      20.480  -0.187  54.816  1.00  0.00    -0.399 OA
HETATM   25  H13 UNL     1      21.127   0.531  54.623  1.00  0.00     0.209 HD
ENDBRANCH  23  24
ENDBRANCH  22  23
ENDBRANCH  21  22
ENDBRANCH   3  21
BRANCH   1  26
HETATM   26  O2  UNL     1      27.796  -0.928  52.864  1.00  0.00    -0.349 OA
BRANCH  26  27
HETATM   27  C3  UNL     1      28.951  -0.361  53.459  1.00  0.00     0.201 C 
BRANCH  27  28
HETATM   28  C2  UNL     1      28.696  -0.006  54.884  1.00  0.00     0.193 C 
BRANCH  28  29
HETATM   29  O1  UNL     1      28.540   1.374  54.999  1.00  0.00    -0.394 OA
HETATM   30  C1  UNL     1      29.243   2.072  54.050  1.00  0.00     0.201 C 
ENDBRANCH  28  29
ENDBRANCH  27  28
ENDBRANCH  26  27
ENDBRANCH   1  26
TORSDOF 11
ENDMDL
MODEL 3
REMARK VINA RESULT:      -7.0      1.757      7.615
REMARK  11 active torsions:
REMARK  status: ('A' for Active; 'I' for Inactive)
REMARK    1  A    between atoms: O1_2  and  C2_3 
REMARK    2  A    between atoms: C2_3  and  C3_4 
REMARK    3  A    between atoms: C3_4  and  O2_5 
REMARK    4  A    between atoms: O2_5  and  C4_6 
REMARK    5  A    between atoms: C6_8  and  O3_9 
REMARK    6  A    between atoms: O3_9  and  C7_10 
REMARK    7  A    between atoms: C7_10  and  C8_11 
REMARK    8  A    between atoms: C8_11  and  O4_12 
REMARK    9  A    between atoms: C10_14  and  N1_15 
REMARK   10  A    between atoms: N1_15  and  C11_16 
REMARK   11  A    between atoms: C15_20  and  O5_21 
ROOT
HETATM    1  C4  UNL     1      20.152  -0.166  52.917  1.00  0.00     0.073 A 
HETATM    2  C5  UNL     1      20.983   0.508  52.058  1.00  0.00     0.074 A 
HETATM    3  C6  UNL     1      22.346   0.616  52.163  1.00  0.00     0.087 A 
HETATM    4  C9  UNL     1      22.918  -0.035  53.267  1.00  0.00     0.072 A 
HETATM    5  C10 UNL     1      24.265  -0.080  53.618  1.00  0.00     0.144 A 
HETATM    6  N2  UNL     1      24.708  -0.719  54.690  1.00  0.00    -0.223 NA
HETATM    7  C18 UNL     1      23.858  -1.371  55.510  1.00  0.00     0.236 A 
HETATM    8  N3  UNL     1      22.540  -1.388  55.260  1.00  0.00    -0.241 NA
HETATM    9  C19 UNL     1      22.101  -0.736  54.169  1.00  0.00     0.077 A 
HETATM   10  C20 UNL     1      20.724  -0.796  53.988  1.00  0.00     0.069 A 
ENDROOT
BRANCH   5  11
HETATM   11  N1  UNL     1      25.128   0.616  52.717  1.00  0.00    -0.340 N 
HETATM   12  H14 UNL     1      24.909   1.098  51.816  1.00  0.00     0.167 HD
BRANCH  11  13
HETATM   13  C11 UNL     1      26.514   0.666  53.107  1.00  0.00     0.036 A 
HETATM   14  C12 UNL     1      27.119   1.887  53.407  1.00  0.00     0.029 A 
HETATM   15  C13 UNL     1      28.439   1.999  53.783  1.00  0.00     0.005 A 
HETATM   16  C14 UNL     1      29.187   0.823  53.861  1.00  0.00     0.037 A 
HETATM   17  C15 UNL     1      28.643  -0.415  53.577  1.00  0.00     0.070 A 
HETATM   18  C17 UNL     1      27.313  -0.450  53.207  1.00  0.00     0.066 A 
BRANCH  17  19
HETATM   19  O5  UNL     1      29.373  -1.583  53.650  1.00  0.00    -0.356 OA
HETATM   20  C16 UNL     1      28.830  -2.796  53.171  1.00  0.00     0.210 C 
ENDBRANCH  17  19
ENDBRANCH  11  13
ENDBRANCH   5  11
BRANCH   3  21
HETATM   21  O3  UNL     1      23.331   1.208  51.452  1.00  0.00    -0.348 OA
BRANCH  21  22
HETATM   22  C7  UNL     1      23.210   2.251  50.552  1.00  0.00     0.201 C 
BRANCH  22  23
HETATM   23  C8  UNL     1      24.150   3.408  50.734  1.00  0.00     0.190 C 
BRANCH  23  24
HETATM   24  O4  UNL     1      24.417   3.593  52.114  1.00  0.00    -0.399 OA
HETATM   25  H13 UNL     1      25.292   4.041  52.173  1.00  0.00     0.209 HD
ENDBRANCH  23  24
ENDBRANCH  22  23
ENDBRANCH  21  22
ENDBRANCH   3  21
BRANCH   1  26
HETATM   26  O2  UNL     1      18.788  -0.156  52.635  1.00  0.00    -0.349 OA
BRANCH  26  27
HETATM   27  C3  UNL     1      18.311   0.120  51.329  1.00  0.00     0.201 C 
BRANCH  27  28
HETATM   28  C2  UNL     1      17.465   1.347  51.320  1.00  0.00     0.193 C 
BRANCH  28  29
HETATM   29  O1  UNL     1      17.863   2.180  50.277  1.00  0.00    -0.394 OA
HETATM   30  C1  UNL     1      18.687   3.197  50.691  1.00  0.00     0.201 C 
ENDBRANCH  28  29
ENDBRANCH  27  28
ENDBRANCH  26  27
ENDBRANCH   1  26
TORSDOF 11
ENDMDL
MODEL 4
REMARK VINA RESULT:      -7.0      1.825      7.814
REMARK  11 active torsions:
REMARK  status: ('A' for Active; 'I' for Inactive)
REMARK    1  A    between atoms: O1_2  and  C2_3 
REMARK    2  A    between atoms: C2_3  and  C3_4 
REMARK    3  A    between atoms: C3_4  and  O2_5 
REMARK    4  A    between atoms: O2_5  and  C4_6 
REMARK    5  A    between atoms: C6_8  and  O3_9 
REMARK    6  A    between atoms: O3_9  and  C7_10 
REMARK    7  A    between atoms: C7_10  and  C8_11 
REMARK    8  A    between atoms: C8_11  and  O4_12 
REMARK    9  A    between atoms: C10_14  and  N1_15 
REMARK   10  A    between atoms: N1_15  and  C11_16 
REMARK   11  A    between atoms: C15_20  and  O5_21 
ROOT
HETATM    1  C4  UNL     1      19.932   0.248  52.492  1.00  0.00     0.073 A 
HETATM    2  C5  UNL     1      20.926   0.819  51.737  1.00  0.00     0.074 A 
HETATM    3  C6  UNL     1      22.274   0.752  51.982  1.00  0.00     0.087 A 
HETATM    4  C9  UNL     1      22.642   0.022  53.123  1.00  0.00     0.072 A 
HETATM    5  C10 UNL     1      23.930  -0.197  53.607  1.00  0.00     0.144 A 
HETATM    6  N2  UNL     1      24.175  -0.898  54.704  1.00  0.00    -0.223 NA
HETATM    7  C18 UNL     1      23.170  -1.444  55.418  1.00  0.00     0.236 A 
HETATM    8  N3  UNL     1      21.893  -1.291  55.036  1.00  0.00    -0.241 NA
HETATM    9  C19 UNL     1      21.655  -0.577  53.921  1.00  0.00     0.077 A 
HETATM   10  C20 UNL     1      20.307  -0.460  53.600  1.00  0.00     0.069 A 
ENDROOT
BRANCH   5  11
HETATM   11  N1  UNL     1      24.961   0.393  52.814  1.00  0.00    -0.340 N 
HETATM   12  H14 UNL     1      24.916   1.188  52.137  1.00  0.00     0.167 HD
BRANCH  11  13
HETATM   13  C11 UNL     1      26.267  -0.194  52.968  1.00  0.00     0.036 A 
HETATM   14  C12 UNL     1      26.494  -1.520  52.595  1.00  0.00     0.029 A 
HETATM   15  C13 UNL     1      27.719  -2.136  52.720  1.00  0.00     0.005 A 
HETATM   16  C14 UNL     1      28.767  -1.382  53.247  1.00  0.00     0.037 A 
HETATM   17  C15 UNL     1      28.604  -0.065  53.634  1.00  0.00     0.070 A 
HETATM   18  C17 UNL     1      27.349   0.487  53.480  1.00  0.00     0.066 A 
BRANCH  17  19
HETATM   19  O5  UNL     1      29.635   0.689  54.158  1.00  0.00    -0.356 OA
HETATM   20  C16 UNL     1      29.447   2.063  54.428  1.00  0.00     0.210 C 
ENDBRANCH  17  19
ENDBRANCH  11  13
ENDBRANCH   5  11
BRANCH   3  21
HETATM   21  O3  UNL     1      23.393   1.220  51.388  1.00  0.00    -0.348 OA
BRANCH  21  22
HETATM   22  C7  UNL     1      23.513   2.334  50.577  1.00  0.00     0.201 C 
BRANCH  22  23
HETATM   23  C8  UNL     1      24.011   3.591  51.231  1.00  0.00     0.190 C 
BRANCH  23  24
HETATM   24  O4  UNL     1      24.867   3.260  52.310  1.00  0.00    -0.399 OA
HETATM   25  H13 UNL     1      25.662   3.837  52.226  1.00  0.00     0.209 HD
ENDBRANCH  23  24
ENDBRANCH  22  23
ENDBRANCH  21  22
ENDBRANCH   3  21
BRANCH   1  26
HETATM   26  O2  UNL     1      18.617   0.435  52.074  1.00  0.00    -0.349 OA
BRANCH  26  27
HETATM   27  C3  UNL     1      18.241   0.232  50.722  1.00  0.00     0.201 C 
BRANCH  27  28
HETATM   28  C2  UNL     1      17.312   1.302  50.262  1.00  0.00     0.193 C 
BRANCH  28  29
HETATM   29  O1  UNL     1      16.487   0.803  49.257  1.00  0.00    -0.394 OA
HETATM   30  C1  UNL     1      16.253  -0.544  49.377  1.00  0.00     0.201 C 
ENDBRANCH  28  29
ENDBRANCH  27  28
ENDBRANCH  26  27
ENDBRANCH   1  26
TORSDOF 11
ENDMDL
MODEL 5
REMARK VINA RESULT:      -6.9      1.751      1.847
REMARK  11 active torsions:
REMARK  status: ('A' for Active; 'I' for Inactive)
REMARK    1  A    between atoms: O1_2  and  C2_3 
REMARK    2  A    between atoms: C2_3  and  C3_4 
REMARK    3  A    between atoms: C3_4  and  O2_5 
REMARK    4  A    between atoms: O2_5  and  C4_6 
REMARK    5  A    between atoms: C6_8  and  O3_9 
REMARK    6  A    between atoms: O3_9  and  C7_10 
REMARK    7  A    between atoms: C7_10  and  C8_11 
REMARK    8  A    between atoms: C8_11  and  O4_12 
REMARK    9  A    between atoms: C10_14  and  N1_15 
REMARK   10  A    between atoms: N1_15  and  C11_16 
REMARK   11  A    between atoms: C15_20  and  O5_21 
ROOT
HETATM    1  C4  UNL     1      26.484  -0.500  53.032  1.00  0.00     0.073 A 
HETATM    2  C5  UNL     1      26.485   0.578  52.183  1.00  0.00     0.074 A 
HETATM    3  C6  UNL     1      25.410   1.371  51.874  1.00  0.00     0.087 A 
HETATM    4  C9  UNL     1      24.204   1.020  52.501  1.00  0.00     0.072 A 
HETATM    5  C10 UNL     1      22.966   1.642  52.361  1.00  0.00     0.144 A 
HETATM    6  N2  UNL     1      21.878   1.228  52.993  1.00  0.00    -0.223 NA
HETATM    7  C18 UNL     1      21.919   0.163  53.820  1.00  0.00     0.236 A 
HETATM    8  N3  UNL     1      23.063  -0.505  54.024  1.00  0.00    -0.241 NA
HETATM    9  C19 UNL     1      24.162  -0.077  53.376  1.00  0.00     0.077 A 
HETATM   10  C20 UNL     1      25.302  -0.829  53.635  1.00  0.00     0.069 A 
ENDROOT
BRANCH   5  11
HETATM   11  N1  UNL     1      22.972   2.768  51.483  1.00  0.00    -0.340 N 
HETATM   12  H14 UNL     1      23.559   3.633  51.504  1.00  0.00     0.167 HD
BRANCH  11  13
HETATM   13  C11 UNL     1      22.027   2.709  50.398  1.00  0.00     0.036 A 
HETATM   14  C12 UNL     1      22.187   1.776  49.372  1.00  0.00     0.029 A 
HETATM   15  C13 UNL     1      21.319   1.672  48.309  1.00  0.00     0.005 A 
HETATM   16  C14 UNL     1      20.236   2.550  48.275  1.00  0.00     0.037 A 
HETATM   17  C15 UNL     1      20.024   3.495  49.262  1.00  0.00     0.070 A 
HETATM   18  C17 UNL     1      20.935   3.541  50.297  1.00  0.00     0.066 A 
BRANCH  17  19
HETATM   19  O5  UNL     1      18.956   4.368  49.238  1.00  0.00    -0.356 OA
HETATM   20  C16 UNL     1      19.107   5.665  48.700  1.00  0.00     0.210 C 
ENDBRANCH  17  19
ENDBRANCH  11  13
ENDBRANCH   5  11
BRANCH   3  21
HETATM   21  O3  UNL     1      25.192   2.451  51.093  1.00  0.00    -0.348 OA
BRANCH  21  22
HETATM   22  C7  UNL     1      26.110   3.115  50.299  1.00  0.00     0.201 C 
BRANCH  22  23
HETATM   23  C8  UNL     1      25.744   4.508  49.872  1.00  0.00     0.190 C 
BRANCH  23  24
HETATM   24  O4  UNL     1      25.018   5.149  50.906  1.00  0.00    -0.399 OA
HETATM   25  H13 UNL     1      24.063   5.039  50.689  1.00  0.00     0.209 HD
ENDBRANCH  23  24
ENDBRANCH  22  23
ENDBRANCH  21  22
ENDBRANCH   3  21
BRANCH   1  26
HETATM   26  O2  UNL     1      27.687  -1.179  53.214  1.00  0.00    -0.349 OA
BRANCH  26  27
HETATM   27  C3  UNL     1      28.861  -0.496  53.621  1.00  0.00     0.201 C 
BRANCH  27  28
HETATM   28  C2  UNL     1      28.723   0.012  55.015  1.00  0.00     0.193 C 
BRANCH  28  29
HETATM   29  O1  UNL     1      28.552   1.394  54.994  1.00  0.00    -0.394 OA
HETATM   30  C1  UNL     1      29.214   1.999  53.955  1.00  0.00     0.201 C 
ENDBRANCH  28  29
ENDBRANCH  27  28
ENDBRANCH  26  27
ENDBRANCH   1  26
TORSDOF 11
ENDMDL
MODEL 6
REMARK VINA RESULT:      -6.9      1.706      2.104
REMARK  11 active torsions:
REMARK  status: ('A' for Active; 'I' for Inactive)
REMARK    1  A    between atoms: O1_2  and  C2_3 
REMARK    2  A    between atoms: C2_3  and  C3_4 
REMARK    3  A    between atoms: C3_4  and  O2_5 
REMARK    4  A    between atoms: O2_5  and  C4_6 
REMARK    5  A    between atoms: C6_8  and  O3_9 
REMARK    6  A    between atoms: O3_9  and  C7_10 
REMARK    7  A    between atoms: C7_10  and  C8_11 
REMARK    8  A    between atoms: C8_11  and  O4_12 
REMARK    9  A    between atoms: C10_14  and  N1_15 
REMARK   10  A    between atoms: N1_15  and  C11_16 
REMARK   11  A    between atoms: C15_20  and  O5_21 
ROOT
HETATM    1  C4  UNL     1      26.162  -0.179  52.799  1.00  0.00     0.073 A 
HETATM    2  C5  UNL     1      25.542   0.779  52.037  1.00  0.00     0.074 A 
HETATM    3  C6  UNL     1      24.228   1.162  52.124  1.00  0.00     0.087 A 
HETATM    4  C9  UNL     1      23.468   0.491  53.094  1.00  0.00     0.072 A 
HETATM    5  C10 UNL     1      22.119   0.673  53.387  1.00  0.00     0.144 A 
HETATM    6  N2  UNL     1      21.487  -0.020  54.323  1.00  0.00    -0.223 NA
HETATM    7  C18 UNL     1      22.133  -0.952  55.052  1.00  0.00     0.236 A 
HETATM    8  N3  UNL     1      23.434  -1.204  54.847  1.00  0.00    -0.241 NA
HETATM    9  C19 UNL     1      24.067  -0.496  53.894  1.00  0.00     0.077 A 
HETATM   10  C20 UNL     1      25.409  -0.824  53.741  1.00  0.00     0.069 A 
ENDROOT
BRANCH   5  11
HETATM   11  N1  UNL     1      21.479   1.676  52.597  1.00  0.00    -0.340 N 
HETATM   12  H14 UNL     1      21.710   2.688  52.481  1.00  0.00     0.167 HD
BRANCH  11  13
HETATM   13  C11 UNL     1      20.338   1.228  51.841  1.00  0.00     0.036 A 
HETATM   14  C12 UNL     1      20.083   1.748  50.571  1.00  0.00     0.029 A 
HETATM   15  C13 UNL     1      19.009   1.362  49.802  1.00  0.00     0.005 A 
HETATM   16  C14 UNL     1      18.148   0.403  50.336  1.00  0.00     0.037 A 
HETATM   17  C15 UNL     1      18.348  -0.150  51.587  1.00  0.00     0.070 A 
HETATM   18  C17 UNL     1      19.446   0.286  52.301  1.00  0.00     0.066 A 
BRANCH  17  19
HETATM   19  O5  UNL     1      17.502  -1.098  52.125  1.00  0.00    -0.356 OA
HETATM   20  C16 UNL     1      17.761  -1.642  53.402  1.00  0.00     0.210 C 
ENDBRANCH  17  19
ENDBRANCH  11  13
ENDBRANCH   5  11
BRANCH   3  21
HETATM   21  O3  UNL     1      23.434   2.056  51.496  1.00  0.00    -0.348 OA
BRANCH  21  22
HETATM   22  C7  UNL     1      23.811   3.017  50.575  1.00  0.00     0.201 C 
BRANCH  22  23
HETATM   23  C8  UNL     1      23.178   4.371  50.721  1.00  0.00     0.190 C 
BRANCH  23  24
HETATM   24  O4  UNL     1      22.400   4.410  51.905  1.00  0.00    -0.399 OA
HETATM   25  H13 UNL     1      22.210   5.359  52.086  1.00  0.00     0.209 HD
ENDBRANCH  23  24
ENDBRANCH  22  23
ENDBRANCH  21  22
ENDBRANCH   3  21
BRANCH   1  26
HETATM   26  O2  UNL     1      27.511  -0.423  52.555  1.00  0.00    -0.349 OA
BRANCH  26  27
HETATM   27  C3  UNL     1      28.400  -0.753  53.609  1.00  0.00     0.201 C 
BRANCH  27  28
HETATM   28  C2  UNL     1      29.405   0.328  53.815  1.00  0.00     0.193 C 
BRANCH  28  29
HETATM   29  O1  UNL     1      28.808   1.397  54.481  1.00  0.00    -0.394 OA
HETATM   30  C1  UNL     1      28.679   2.512  53.691  1.00  0.00     0.201 C 
ENDBRANCH  28  29
ENDBRANCH  27  28
ENDBRANCH  26  27
ENDBRANCH   1  26
TORSDOF 11
ENDMDL
MODEL 7
REMARK VINA RESULT:      -6.8      2.423      5.138
REMARK  11 active torsions:
REMARK  status: ('A' for Active; 'I' for Inactive)
REMARK    1  A    between atoms: O1_2  and  C2_3 
REMARK    2  A    between atoms: C2_3  and  C3_4 
REMARK    3  A    between atoms: C3_4  and  O2_5 
REMARK    4  A    between atoms: O2_5  and  C4_6 
REMARK    5  A    between atoms: C6_8  and  O3_9 
REMARK    6  A    between atoms: O3_9  and  C7_10 
REMARK    7  A    between atoms: C7_10  and  C8_11 
REMARK    8  A    between atoms: C8_11  and  O4_12 
REMARK    9  A    between atoms: C10_14  and  N1_15 
REMARK   10  A    between atoms: N1_15  and  C11_16 
REMARK   11  A    between atoms: C15_20  and  O5_21 
ROOT
HETATM    1  C4  UNL     1      26.529   3.951  49.768  1.00  0.00     0.073 A 
HETATM    2  C5  UNL     1      26.658   2.712  50.345  1.00  0.00     0.074 A 
HETATM    3  C6  UNL     1      25.784   2.132  51.228  1.00  0.00     0.087 A 
HETATM    4  C9  UNL     1      24.658   2.903  51.556  1.00  0.00     0.072 A 
HETATM    5  C10 UNL     1      23.625   2.564  52.426  1.00  0.00     0.144 A 
HETATM    6  N2  UNL     1      22.604   3.369  52.676  1.00  0.00    -0.223 NA
HETATM    7  C18 UNL     1      22.513   4.579  52.088  1.00  0.00     0.236 A 
HETATM    8  N3  UNL     1      23.456   5.000  51.232  1.00  0.00    -0.241 NA
HETATM    9  C19 UNL     1      24.490   4.175  50.986  1.00  0.00     0.077 A 
HETATM   10  C20 UNL     1      25.426   4.690  50.096  1.00  0.00     0.069 A 
ENDROOT
BRANCH   5  11
HETATM   11  N1  UNL     1      23.760   1.272  53.019  1.00  0.00    -0.340 N 
HETATM   12  H14 UNL     1      24.618   0.760  53.325  1.00  0.00     0.167 HD
BRANCH  11  13
HETATM   13  C11 UNL     1      22.526   0.561  53.233  1.00  0.00     0.036 A 
HETATM   14  C12 UNL     1      22.456  -0.465  54.176  1.00  0.00     0.029 A 
HETATM   15  C13 UNL     1      21.306  -1.182  54.423  1.00  0.00     0.005 A 
HETATM   16  C14 UNL     1      20.170  -0.849  53.684  1.00  0.00     0.037 A 
HETATM   17  C15 UNL     1      20.177   0.158  52.738  1.00  0.00     0.070 A 
HETATM   18  C17 UNL     1      21.366   0.833  52.544  1.00  0.00     0.066 A 
BRANCH  17  19
HETATM   19  O5  UNL     1      19.060   0.495  52.001  1.00  0.00    -0.356 OA
HETATM   20  C16 UNL     1      18.031  -0.450  51.793  1.00  0.00     0.210 C 
ENDBRANCH  17  19
ENDBRANCH  11  13
ENDBRANCH   5  11
BRANCH   3  21
HETATM   21  O3  UNL     1      25.715   0.960  51.896  1.00  0.00    -0.348 OA
BRANCH  21  22
HETATM   22  C7  UNL     1      26.746   0.076  52.158  1.00  0.00     0.201 C 
BRANCH  22  23
HETATM   23  C8  UNL     1      26.370  -1.217  52.823  1.00  0.00     0.190 C 
BRANCH  23  24
HETATM   24  O4  UNL     1      25.933  -0.963  54.147  1.00  0.00    -0.399 OA
HETATM   25  H13 UNL     1      25.581  -0.042  54.155  1.00  0.00     0.209 HD
ENDBRANCH  23  24
ENDBRANCH  22  23
ENDBRANCH  21  22
ENDBRANCH   3  21
BRANCH   1  26
HETATM   26  O2  UNL     1      27.531   4.362  48.893  1.00  0.00    -0.349 OA
BRANCH  26  27
HETATM   27  C3  UNL     1      27.571   5.689  48.394  1.00  0.00     0.201 C 
BRANCH  27  28
HETATM   28  C2  UNL     1      28.978   6.159  48.248  1.00  0.00     0.193 C 
BRANCH  28  29
HETATM   29  O1  UNL     1      29.852   5.119  48.557  1.00  0.00    -0.394 OA
HETATM   30  C1  UNL     1      30.903   5.025  47.679  1.00  0.00     0.201 C 
ENDBRANCH  28  29
ENDBRANCH  27  28
ENDBRANCH  26  27
ENDBRANCH   1  26
TORSDOF 11
ENDMDL
MODEL 8
REMARK VINA RESULT:      -6.7      2.306      8.113
REMARK  11 active torsions:
REMARK  status: ('A' for Active; 'I' for Inactive)
REMARK    1  A    between atoms: O1_2  and  C2_3 
REMARK    2  A    between atoms: C2_3  and  C3_4 
REMARK    3  A    between atoms: C3_4  and  O2_5 
REMARK    4  A    between atoms: O2_5  and  C4_6 
REMARK    5  A    between atoms: C6_8  and  O3_9 
REMARK    6  A    between atoms: O3_9  and  C7_10 
REMARK    7  A    between atoms: C7_10  and  C8_11 
REMARK    8  A    between atoms: C8_11  and  O4_12 
REMARK    9  A    between atoms: C10_14  and  N1_15 
REMARK   10  A    between atoms: N1_15  and  C11_16 
REMARK   11  A    between atoms: C15_20  and  O5_21 
ROOT
HETATM    1  C4  UNL     1      18.900  -0.250  52.015  1.00  0.00     0.073 A 
HETATM    2  C5  UNL     1      19.813   0.357  51.189  1.00  0.00     0.074 A 
HETATM    3  C6  UNL     1      21.158   0.489  51.422  1.00  0.00     0.087 A 
HETATM    4  C9  UNL     1      21.616  -0.059  52.630  1.00  0.00     0.072 A 
HETATM    5  C10 UNL     1      22.921  -0.059  53.118  1.00  0.00     0.144 A 
HETATM    6  N2  UNL     1      23.253  -0.598  54.281  1.00  0.00    -0.223 NA
HETATM    7  C18 UNL     1      22.326  -1.187  55.064  1.00  0.00     0.236 A 
HETATM    8  N3  UNL     1      21.040  -1.240  54.684  1.00  0.00    -0.241 NA
HETATM    9  C19 UNL     1      20.714  -0.689  53.502  1.00  0.00     0.077 A 
HETATM   10  C20 UNL     1      19.362  -0.779  53.188  1.00  0.00     0.069 A 
ENDROOT
BRANCH   5  11
HETATM   11  N1  UNL     1      23.869   0.568  52.253  1.00  0.00    -0.340 N 
HETATM   12  H14 UNL     1      23.739   0.981  51.302  1.00  0.00     0.167 HD
BRANCH  11  13
HETATM   13  C11 UNL     1      25.213   0.644  52.765  1.00  0.00     0.036 A 
HETATM   14  C12 UNL     1      25.704   1.843  53.283  1.00  0.00     0.029 A 
HETATM   15  C13 UNL     1      26.979   1.979  53.785  1.00  0.00     0.005 A 
HETATM   16  C14 UNL     1      27.801   0.852  53.764  1.00  0.00     0.037 A 
HETATM   17  C15 UNL     1      27.371  -0.363  53.265  1.00  0.00     0.070 A 
HETATM   18  C17 UNL     1      26.081  -0.424  52.779  1.00  0.00     0.066 A 
BRANCH  17  19
HETATM   19  O5  UNL     1      28.176  -1.483  53.239  1.00  0.00    -0.356 OA
HETATM   20  C16 UNL     1      29.549  -1.383  53.558  1.00  0.00     0.210 C 
ENDBRANCH  17  19
ENDBRANCH  11  13
ENDBRANCH   5  11
BRANCH   3  21
HETATM   21  O3  UNL     1      22.209   1.028  50.766  1.00  0.00    -0.348 OA
BRANCH  21  22
HETATM   22  C7  UNL     1      22.174   1.926  49.714  1.00  0.00     0.201 C 
BRANCH  22  23
HETATM   23  C8  UNL     1      22.800   3.270  49.957  1.00  0.00     0.190 C 
BRANCH  23  24
HETATM   24  O4  UNL     1      23.117   3.406  51.332  1.00  0.00    -0.399 OA
HETATM   25  H13 UNL     1      23.843   4.070  51.388  1.00  0.00     0.209 HD
ENDBRANCH  23  24
ENDBRANCH  22  23
ENDBRANCH  21  22
ENDBRANCH   3  21
BRANCH   1  26
HETATM   26  O2  UNL     1      17.572  -0.279  51.596  1.00  0.00    -0.349 OA
BRANCH  26  27
HETATM   27  C3  UNL     1      16.507  -0.259  52.532  1.00  0.00     0.201 C 
BRANCH  27  28
HETATM   28  C2  UNL     1      15.570   0.863  52.247  1.00  0.00     0.193 C 
BRANCH  28  29
HETATM   29  O1  UNL     1      14.263   0.382  52.214  1.00  0.00    -0.394 OA
HETATM   30  C1  UNL     1      13.710   0.248  53.463  1.00  0.00     0.201 C 
ENDBRANCH  28  29
ENDBRANCH  27  28
ENDBRANCH  26  27
ENDBRANCH   1  26
TORSDOF 11
ENDMDL
MODEL 9
REMARK VINA RESULT:      -6.7      1.995      8.265
REMARK  11 active torsions:
REMARK  status: ('A' for Active; 'I' for Inactive)
REMARK    1  A    between atoms: O1_2  and  C2_3 
REMARK    2  A    between atoms: C2_3  and  C3_4 
REMARK    3  A    between atoms: C3_4  and  O2_5 
REMARK    4  A    between atoms: O2_5  and  C4_6 
REMARK    5  A    between atoms: C6_8  and  O3_9 
REMARK    6  A    between atoms: O3_9  and  C7_10 
REMARK    7  A    between atoms: C7_10  and  C8_11 
REMARK    8  A    between atoms: C8_11  and  O4_12 
REMARK    9  A    between atoms: C10_14  and  N1_15 
REMARK   10  A    between atoms: N1_15  and  C11_16 
REMARK   11  A    between atoms: C15_20  and  O5_21 
ROOT
HETATM    1  C4  UNL     1      20.274   1.078  50.337  1.00  0.00     0.073 A 
HETATM    2  C5  UNL     1      20.571   0.468  51.530  1.00  0.00     0.074 A 
HETATM    3  C6  UNL     1      21.763   0.536  52.204  1.00  0.00     0.087 A 
HETATM    4  C9  UNL     1      22.758   1.311  51.588  1.00  0.00     0.072 A 
HETATM    5  C10 UNL     1      24.054   1.542  52.045  1.00  0.00     0.144 A 
HETATM    6  N2  UNL     1      24.927   2.287  51.383  1.00  0.00    -0.223 NA
HETATM    7  C18 UNL     1      24.595   2.870  50.213  1.00  0.00     0.236 A 
HETATM    8  N3  UNL     1      23.372   2.710  49.688  1.00  0.00    -0.241 NA
HETATM    9  C19 UNL     1      22.493   1.951  50.367  1.00  0.00     0.077 A 
HETATM   10  C20 UNL     1      21.253   1.830  49.750  1.00  0.00     0.069 A 
ENDROOT
BRANCH   5  11
HETATM   11  N1  UNL     1      24.357   0.912  53.290  1.00  0.00    -0.340 N 
HETATM   12  H14 UNL     1      23.763   0.786  54.141  1.00  0.00     0.167 HD
BRANCH  11  13
HETATM   13  C11 UNL     1      25.684   0.362  53.395  1.00  0.00     0.036 A 
HETATM   14  C12 UNL     1      26.020  -0.807  52.711  1.00  0.00     0.029 A 
HETATM   15  C13 UNL     1      27.270  -1.381  52.773  1.00  0.00     0.005 A 
HETATM   16  C14 UNL     1      28.229  -0.747  53.564  1.00  0.00     0.037 A 
HETATM   17  C15 UNL     1      27.956   0.412  54.265  1.00  0.00     0.070 A 
HETATM   18  C17 UNL     1      26.681   0.930  54.154  1.00  0.00     0.066 A 
BRANCH  17  19
HETATM   19  O5  UNL     1      28.897   1.046  55.050  1.00  0.00    -0.356 OA
HETATM   20  C16 UNL     1      29.643   2.129  54.535  1.00  0.00     0.210 C 
ENDBRANCH  17  19
ENDBRANCH  11  13
ENDBRANCH   5  11
BRANCH   3  21
HETATM   21  O3  UNL     1      22.258   0.035  53.357  1.00  0.00    -0.348 OA
BRANCH  21  22
HETATM   22  C7  UNL     1      21.555  -0.574  54.381  1.00  0.00     0.201 C 
BRANCH  22  23
HETATM   23  C8  UNL     1      22.025  -1.937  54.801  1.00  0.00     0.190 C 
BRANCH  23  24
HETATM   24  O4  UNL     1      22.949  -1.815  55.868  1.00  0.00    -0.399 OA
HETATM   25  H13 UNL     1      22.950  -2.680  56.340  1.00  0.00     0.209 HD
ENDBRANCH  23  24
ENDBRANCH  22  23
ENDBRANCH  21  22
ENDBRANCH   3  21
BRANCH   1  26
HETATM   26  O2  UNL     1      18.998   0.883  49.814  1.00  0.00    -0.349 OA
BRANCH  26  27
HETATM   27  C3  UNL     1      17.839   1.200  50.567  1.00  0.00     0.201 C 
BRANCH  27  28
HETATM   28  C2  UNL     1      16.962   2.144  49.820  1.00  0.00     0.193 C 
BRANCH  28  29
HETATM   29  O1  UNL     1      17.194   3.445  50.262  1.00  0.00    -0.394 OA
HETATM   30  C1  UNL     1      16.725   3.671  51.532  1.00  0.00     0.201 C 
ENDBRANCH  28  29
ENDBRANCH  27  28
ENDBRANCH  26  27
ENDBRANCH   1  26
TORSDOF 11
ENDMDL
