MODEL 1
REMARK VINA RESULT:      -7.4      0.000      0.000
REMARK  6 active torsions:
REMARK  status: ('A' for Active; 'I' for Inactive)
REMARK    1  A    between atoms: N1_2  and  C2_3 
REMARK    2  A    between atoms: C2_3  and  O1_24 
REMARK    3  A    between atoms: C3_4  and  C4_5 
REMARK    4  A    between atoms: C8_11  and  N4_12 
REMARK    5  A    between atoms: N4_12  and  C10_14 
REMARK    6  A    between atoms: C14_18  and  C15_19 
ROOT
HETATM    1  C4  UNL     1      23.473   2.359  50.143  1.00  0.00     0.038 A 
HETATM    2  C5  UNL     1      22.526   1.918  49.240  1.00  0.00     0.046 A 
HETATM    3  C6  UNL     1      22.526   2.287  47.819  1.00  0.00     0.071 C 
HETATM    4  N2  UNL     1      21.536   1.098  49.615  1.00  0.00    -0.246 NA
HETATM    5  C7  UNL     1      21.418   0.671  50.871  1.00  0.00     0.235 A 
HETATM    6  N3  UNL     1      22.307   1.070  51.770  1.00  0.00    -0.223 NA
HETATM    7  C8  UNL     1      23.343   1.904  51.463  1.00  0.00     0.143 A 
ENDROOT
BRANCH   7   8
HETATM    8  N4  UNL     1      24.278   2.286  52.494  1.00  0.00    -0.335 N 
HETATM    9  C9  UNL     1      24.296   3.459  53.366  1.00  0.00     0.158 C 
BRANCH   8  10
HETATM   10  C10 UNL     1      25.371   1.375  52.723  1.00  0.00     0.036 A 
HETATM   11  C11 UNL     1      25.238   0.030  52.508  1.00  0.00     0.029 A 
HETATM   12  C12 UNL     1      26.233  -0.913  52.704  1.00  0.00     0.003 A 
HETATM   13  C13 UNL     1      27.467  -0.437  53.158  1.00  0.00     0.016 A 
HETATM   14  C14 UNL     1      27.644   0.909  53.387  1.00  0.00     0.050 A 
HETATM   15  C16 UNL     1      26.615   1.806  53.174  1.00  0.00     0.045 A 
BRANCH  14  16
HETATM   16  C15 UNL     1      28.981   1.370  53.870  1.00  0.00     0.417 C 
HETATM   17  F1  UNL     1      29.997   0.664  53.276  1.00  0.00    -0.166 F 
HETATM   18  F2  UNL     1      29.081   1.106  55.238  1.00  0.00    -0.166 F 
HETATM   19  F3  UNL     1      29.065   2.733  53.690  1.00  0.00    -0.166 F 
ENDBRANCH  14  16
ENDBRANCH   8  10
ENDBRANCH   7   8
BRANCH   1  20
HETATM   20  C3  UNL     1      24.522   3.260  49.771  1.00  0.00     0.073 C 
HETATM   21  C2  UNL     1      24.720   4.551  49.778  1.00  0.00     0.138 C 
BRANCH  21  22
HETATM   22  N1  UNL     1      23.821   5.560  50.218  1.00  0.00    -0.375 N 
HETATM   23  C1  UNL     1      24.233   6.646  51.117  1.00  0.00     0.148 C 
HETATM   24  H4  UNL     1      22.814   5.592  49.932  1.00  0.00     0.161 HD
ENDBRANCH  21  22
BRANCH  21  25
HETATM   25  O1  UNL     1      25.902   5.080  49.325  1.00  0.00    -0.341 OA
HETATM   26  C17 UNL     1      27.087   4.412  49.046  1.00  0.00     0.211 C 
ENDBRANCH  21  25
ENDBRANCH   1  20
TORSDOF 6
ENDMDL
MODEL 2
REMARK VINA RESULT:      -7.1      1.936      2.799
REMARK  6 active torsions:
REMARK  status: ('A' for Active; 'I' for Inactive)
REMARK    1  A    between atoms: N1_2  and  C2_3 
REMARK    2  A    between atoms: C2_3  and  O1_24 
REMARK    3  A    between atoms: C3_4  and  C4_5 
REMARK    4  A    between atoms: C8_11  and  N4_12 
REMARK    5  A    between atoms: N4_12  and  C10_14 
REMARK    6  A    between atoms: C14_18  and  C15_19 
ROOT
HETATM    1  C4  UNL     1      22.457   0.722  52.326  1.00  0.00     0.038 A 
HETATM    2  C5  UNL     1      21.240   0.079  52.434  1.00  0.00     0.046 A 
HETATM    3  C6  UNL     1      20.154   0.229  51.457  1.00  0.00     0.071 C 
HETATM    4  N2  UNL     1      20.978  -0.748  53.454  1.00  0.00    -0.246 NA
HETATM    5  C7  UNL     1      21.875  -0.989  54.409  1.00  0.00     0.235 A 
HETATM    6  N3  UNL     1      23.057  -0.392  54.343  1.00  0.00    -0.223 NA
HETATM    7  C8  UNL     1      23.396   0.462  53.335  1.00  0.00     0.143 A 
ENDROOT
BRANCH   7   8
HETATM    8  N4  UNL     1      24.708   1.066  53.325  1.00  0.00    -0.335 N 
HETATM    9  C9  UNL     1      25.104   2.467  53.454  1.00  0.00     0.158 C 
BRANCH   8  10
HETATM   10  C10 UNL     1      25.818   0.160  53.174  1.00  0.00     0.036 A 
HETATM   11  C11 UNL     1      25.672  -1.054  52.559  1.00  0.00     0.029 A 
HETATM   12  C12 UNL     1      26.681  -1.984  52.374  1.00  0.00     0.003 A 
HETATM   13  C13 UNL     1      27.947  -1.640  52.861  1.00  0.00     0.016 A 
HETATM   14  C14 UNL     1      28.138  -0.428  53.486  1.00  0.00     0.050 A 
HETATM   15  C16 UNL     1      27.093   0.462  53.643  1.00  0.00     0.045 A 
BRANCH  14  16
HETATM   16  C15 UNL     1      29.508  -0.104  53.988  1.00  0.00     0.417 C 
HETATM   17  F1  UNL     1      29.458   0.775  55.041  1.00  0.00    -0.166 F 
HETATM   18  F2  UNL     1      30.214   0.552  52.977  1.00  0.00    -0.166 F 
HETATM   19  F3  UNL     1      30.161  -1.283  54.271  1.00  0.00    -0.166 F 
ENDBRANCH  14  16
ENDBRANCH   8  10
ENDBRANCH   7   8
BRANCH   1  20
HETATM   20  C3  UNL     1      22.748   1.634  51.261  1.00  0.00     0.073 C 
HETATM   21  C2  UNL     1      22.485   2.880  50.972  1.00  0.00     0.138 C 
BRANCH  21  22
HETATM   22  N1  UNL     1      21.731   3.805  51.744  1.00  0.00    -0.375 N 
HETATM   23  C1  UNL     1      21.947   5.256  51.669  1.00  0.00     0.148 C 
HETATM   24  H4  UNL     1      20.978   3.512  52.411  1.00  0.00     0.161 HD
ENDBRANCH  21  22
BRANCH  21  25
HETATM   25  O1  UNL     1      22.950   3.442  49.810  1.00  0.00    -0.341 OA
HETATM   26  C17 UNL     1      24.252   3.459  49.329  1.00  0.00     0.211 C 
ENDBRANCH  21  25
ENDBRANCH   1  20
TORSDOF 6
ENDMDL
MODEL 3
REMARK VINA RESULT:      -7.1      4.338      6.440
REMARK  6 active torsions:
REMARK  status: ('A' for Active; 'I' for Inactive)
REMARK    1  A    between atoms: N1_2  and  C2_3 
REMARK    2  A    between atoms: C2_3  and  O1_24 
REMARK    3  A    between atoms: C3_4  and  C4_5 
REMARK    4  A    between atoms: C8_11  and  N4_12 
REMARK    5  A    between atoms: N4_12  and  C10_14 
REMARK    6  A    between atoms: C14_18  and  C15_19 
ROOT
HETATM    1  C4  UNL     1      25.375   0.422  52.731  1.00  0.00     0.038 A 
HETATM    2  C5  UNL     1      26.017  -0.648  53.324  1.00  0.00     0.046 A 
HETATM    3  C6  UNL     1      27.386  -1.059  52.989  1.00  0.00     0.071 C 
HETATM    4  N2  UNL     1      25.418  -1.382  54.271  1.00  0.00    -0.246 NA
HETATM    5  C7  UNL     1      24.180  -1.116  54.684  1.00  0.00     0.235 A 
HETATM    6  N3  UNL     1      23.528  -0.097  54.142  1.00  0.00    -0.223 NA
HETATM    7  C8  UNL     1      24.073   0.696  53.174  1.00  0.00     0.143 A 
ENDROOT
BRANCH   7   8
HETATM    8  N4  UNL     1      23.305   1.795  52.638  1.00  0.00    -0.335 N 
HETATM    9  C9  UNL     1      23.413   3.231  52.884  1.00  0.00     0.158 C 
BRANCH   8  10
HETATM   10  C10 UNL     1      22.268   1.443  51.702  1.00  0.00     0.036 A 
HETATM   11  C11 UNL     1      22.479   1.489  50.350  1.00  0.00     0.029 A 
HETATM   12  C12 UNL     1      21.540   1.171  49.383  1.00  0.00     0.003 A 
HETATM   13  C13 UNL     1      20.280   0.771  49.840  1.00  0.00     0.016 A 
HETATM   14  C14 UNL     1      20.025   0.711  51.192  1.00  0.00     0.050 A 
HETATM   15  C16 UNL     1      21.001   1.040  52.114  1.00  0.00     0.045 A 
BRANCH  14  16
HETATM   16  C15 UNL     1      18.665   0.277  51.633  1.00  0.00     0.417 C 
HETATM   17  F1  UNL     1      18.739  -0.603  52.684  1.00  0.00    -0.166 F 
HETATM   18  F2  UNL     1      18.056  -0.424  50.589  1.00  0.00    -0.166 F 
HETATM   19  F3  UNL     1      17.910   1.400  51.892  1.00  0.00    -0.166 F 
ENDBRANCH  14  16
ENDBRANCH   8  10
ENDBRANCH   7   8
BRANCH   1  20
HETATM   20  C3  UNL     1      25.985   1.201  51.697  1.00  0.00     0.073 C 
HETATM   21  C2  UNL     1      26.824   2.200  51.621  1.00  0.00     0.138 C 
BRANCH  21  22
HETATM   22  N1  UNL     1      27.449   2.885  52.698  1.00  0.00    -0.375 N 
HETATM   23  C1  UNL     1      28.549   2.296  53.475  1.00  0.00     0.148 C 
HETATM   24  H4  UNL     1      27.168   3.846  53.004  1.00  0.00     0.161 HD
ENDBRANCH  21  22
BRANCH  21  25
HETATM   25  O1  UNL     1      27.197   2.709  50.404  1.00  0.00    -0.341 OA
HETATM   26  C17 UNL     1      26.449   3.498  49.541  1.00  0.00     0.211 C 
ENDBRANCH  21  25
ENDBRANCH   1  20
TORSDOF 6
ENDMDL
MODEL 4
REMARK VINA RESULT:      -7.1      3.109      3.738
REMARK  6 active torsions:
REMARK  status: ('A' for Active; 'I' for Inactive)
REMARK    1  A    between atoms: N1_2  and  C2_3 
REMARK    2  A    between atoms: C2_3  and  O1_24 
REMARK    3  A    between atoms: C3_4  and  C4_5 
REMARK    4  A    between atoms: C8_11  and  N4_12 
REMARK    5  A    between atoms: N4_12  and  C10_14 
REMARK    6  A    between atoms: C14_18  and  C15_19 
ROOT
HETATM    1  C4  UNL     1      22.772   2.973  49.493  1.00  0.00     0.038 A 
HETATM    2  C5  UNL     1      21.914   2.833  48.421  1.00  0.00     0.046 A 
HETATM    3  C6  UNL     1      22.355   2.850  47.020  1.00  0.00     0.071 C 
HETATM    4  N2  UNL     1      20.598   2.656  48.600  1.00  0.00    -0.246 NA
HETATM    5  C7  UNL     1      20.058   2.607  49.817  1.00  0.00     0.235 A 
HETATM    6  N3  UNL     1      20.847   2.737  50.874  1.00  0.00    -0.223 NA
HETATM    7  C8  UNL     1      22.195   2.919  50.770  1.00  0.00     0.143 A 
ENDROOT
BRANCH   7   8
HETATM    8  N4  UNL     1      22.992   3.041  51.968  1.00  0.00    -0.335 N 
HETATM    9  C9  UNL     1      23.396   4.229  52.718  1.00  0.00     0.158 C 
BRANCH   8  10
HETATM   10  C10 UNL     1      23.466   1.805  52.539  1.00  0.00     0.036 A 
HETATM   11  C11 UNL     1      24.762   1.395  52.378  1.00  0.00     0.029 A 
HETATM   12  C12 UNL     1      25.299   0.225  52.888  1.00  0.00     0.003 A 
HETATM   13  C13 UNL     1      24.435  -0.592  53.625  1.00  0.00     0.016 A 
HETATM   14  C14 UNL     1      23.123  -0.217  53.811  1.00  0.00     0.050 A 
HETATM   15  C16 UNL     1      22.641   0.964  53.278  1.00  0.00     0.045 A 
BRANCH  14  16
HETATM   16  C15 UNL     1      22.239  -1.121  54.606  1.00  0.00     0.417 C 
HETATM   17  F1  UNL     1      21.639  -2.061  53.806  1.00  0.00    -0.166 F 
HETATM   18  F2  UNL     1      21.199  -0.365  55.154  1.00  0.00    -0.166 F 
HETATM   19  F3  UNL     1      22.974  -1.652  55.643  1.00  0.00    -0.166 F 
ENDBRANCH  14  16
ENDBRANCH   8  10
ENDBRANCH   7   8
BRANCH   1  20
HETATM   20  C3  UNL     1      24.177   3.193  49.323  1.00  0.00     0.073 C 
HETATM   21  C2  UNL     1      24.987   4.218  49.297  1.00  0.00     0.138 C 
BRANCH  21  22
HETATM   22  N1  UNL     1      24.649   5.590  49.451  1.00  0.00    -0.375 N 
HETATM   23  C1  UNL     1      23.838   6.318  48.465  1.00  0.00     0.148 C 
HETATM   24  H4  UNL     1      24.954   6.165  50.271  1.00  0.00     0.161 HD
ENDBRANCH  21  22
BRANCH  21  25
HETATM   25  O1  UNL     1      26.333   4.041  49.103  1.00  0.00    -0.341 OA
HETATM   26  C17 UNL     1      27.276   4.989  48.731  1.00  0.00     0.211 C 
ENDBRANCH  21  25
ENDBRANCH   1  20
TORSDOF 6
ENDMDL
MODEL 5
REMARK VINA RESULT:      -7.1      2.242      3.637
REMARK  6 active torsions:
REMARK  status: ('A' for Active; 'I' for Inactive)
REMARK    1  A    between atoms: N1_2  and  C2_3 
REMARK    2  A    between atoms: C2_3  and  O1_24 
REMARK    3  A    between atoms: C3_4  and  C4_5 
REMARK    4  A    between atoms: C8_11  and  N4_12 
REMARK    5  A    between atoms: N4_12  and  C10_14 
REMARK    6  A    between atoms: C14_18  and  C15_19 
ROOT
HETATM    1  C4  UNL     1      22.853   1.725  50.835  1.00  0.00     0.038 A 
HETATM    2  C5  UNL     1      22.335   1.801  49.557  1.00  0.00     0.046 A 
HETATM    3  C6  UNL     1      21.117   1.099  49.133  1.00  0.00     0.071 C 
HETATM    4  N2  UNL     1      22.921   2.547  48.612  1.00  0.00    -0.246 NA
HETATM    5  C7  UNL     1      24.027   3.248  48.858  1.00  0.00     0.235 A 
HETATM    6  N3  UNL     1      24.556   3.204  50.073  1.00  0.00    -0.223 NA
HETATM    7  C8  UNL     1      24.016   2.467  51.087  1.00  0.00     0.143 A 
ENDROOT
BRANCH   7   8
HETATM    8  N4  UNL     1      24.644   2.477  52.387  1.00  0.00    -0.335 N 
HETATM    9  C9  UNL     1      24.380   3.312  53.557  1.00  0.00     0.158 C 
BRANCH   8  10
HETATM   10  C10 UNL     1      25.694   1.511  52.588  1.00  0.00     0.036 A 
HETATM   11  C11 UNL     1      25.583   0.228  52.125  1.00  0.00     0.029 A 
HETATM   12  C12 UNL     1      26.540  -0.762  52.275  1.00  0.00     0.003 A 
HETATM   13  C13 UNL     1      27.708  -0.406  52.957  1.00  0.00     0.016 A 
HETATM   14  C14 UNL     1      27.861   0.875  53.439  1.00  0.00     0.050 A 
HETATM   15  C16 UNL     1      26.872   1.823  53.259  1.00  0.00     0.045 A 
BRANCH  14  16
HETATM   16  C15 UNL     1      29.127   1.209  54.159  1.00  0.00     0.417 C 
HETATM   17  F1  UNL     1      29.056   0.854  55.483  1.00  0.00    -0.166 F 
HETATM   18  F2  UNL     1      29.301   2.595  54.143  1.00  0.00    -0.166 F 
HETATM   19  F3  UNL     1      30.180   0.637  53.480  1.00  0.00    -0.166 F 
ENDBRANCH  14  16
ENDBRANCH   8  10
ENDBRANCH   7   8
BRANCH   1  20
HETATM   20  C3  UNL     1      22.260   0.910  51.853  1.00  0.00     0.073 C 
HETATM   21  C2  UNL     1      21.283   1.017  52.713  1.00  0.00     0.138 C 
BRANCH  21  22
HETATM   22  N1  UNL     1      20.418   2.128  52.903  1.00  0.00    -0.375 N 
HETATM   23  C1  UNL     1      19.327   2.446  51.972  1.00  0.00     0.148 C 
HETATM   24  H4  UNL     1      20.503   2.786  53.713  1.00  0.00     0.161 HD
ENDBRANCH  21  22
BRANCH  21  25
HETATM   25  O1  UNL     1      20.990  -0.013  53.570  1.00  0.00    -0.341 OA
HETATM   26  C17 UNL     1      21.675  -1.210  53.735  1.00  0.00     0.211 C 
ENDBRANCH  21  25
ENDBRANCH   1  20
TORSDOF 6
ENDMDL
MODEL 6
REMARK VINA RESULT:      -6.9      3.978      5.524
REMARK  6 active torsions:
REMARK  status: ('A' for Active; 'I' for Inactive)
REMARK    1  A    between atoms: N1_2  and  C2_3 
REMARK    2  A    between atoms: C2_3  and  O1_24 
REMARK    3  A    between atoms: C3_4  and  C4_5 
REMARK    4  A    between atoms: C8_11  and  N4_12 
REMARK    5  A    between atoms: N4_12  and  C10_14 
REMARK    6  A    between atoms: C14_18  and  C15_19 
ROOT
HETATM    1  C4  UNL     1      22.061   4.314  50.743  1.00  0.00     0.038 A 
HETATM    2  C5  UNL     1      22.534   5.593  50.529  1.00  0.00     0.046 A 
HETATM    3  C6  UNL     1      21.826   6.803  50.966  1.00  0.00     0.071 C 
HETATM    4  N2  UNL     1      23.698   5.809  49.904  1.00  0.00    -0.246 NA
HETATM    5  C7  UNL     1      24.453   4.805  49.463  1.00  0.00     0.235 A 
HETATM    6  N3  UNL     1      24.037   3.560  49.650  1.00  0.00    -0.223 NA
HETATM    7  C8  UNL     1      22.862   3.262  50.277  1.00  0.00     0.143 A 
ENDROOT
BRANCH   7   8
HETATM    8  N4  UNL     1      22.480   1.880  50.454  1.00  0.00    -0.335 N 
HETATM    9  C9  UNL     1      21.610   1.030  49.644  1.00  0.00     0.158 C 
BRANCH   8  10
HETATM   10  C10 UNL     1      23.044   1.212  51.599  1.00  0.00     0.036 A 
HETATM   11  C11 UNL     1      24.391   1.219  51.839  1.00  0.00     0.029 A 
HETATM   12  C12 UNL     1      25.015   0.603  52.911  1.00  0.00     0.003 A 
HETATM   13  C13 UNL     1      24.188  -0.078  53.812  1.00  0.00     0.016 A 
HETATM   14  C14 UNL     1      22.827  -0.110  53.607  1.00  0.00     0.050 A 
HETATM   15  C16 UNL     1      22.258   0.524  52.518  1.00  0.00     0.045 A 
BRANCH  14  16
HETATM   16  C15 UNL     1      21.984  -0.847  54.596  1.00  0.00     0.417 C 
HETATM   17  F1  UNL     1      22.760  -1.522  55.506  1.00  0.00    -0.166 F 
HETATM   18  F2  UNL     1      21.250  -1.824  53.921  1.00  0.00    -0.166 F 
HETATM   19  F3  UNL     1      21.097   0.041  55.164  1.00  0.00    -0.166 F 
ENDBRANCH  14  16
ENDBRANCH   8  10
ENDBRANCH   7   8
BRANCH   1  20
HETATM   20  C3  UNL     1      20.804   4.060  51.382  1.00  0.00     0.073 C 
HETATM   21  C2  UNL     1      19.551   3.974  51.023  1.00  0.00     0.138 C 
BRANCH  21  22
HETATM   22  N1  UNL     1      19.014   4.129  49.716  1.00  0.00    -0.375 N 
HETATM   23  C1  UNL     1      18.884   5.441  49.068  1.00  0.00     0.148 C 
HETATM   24  H4  UNL     1      18.680   3.324  49.137  1.00  0.00     0.161 HD
ENDBRANCH  21  22
BRANCH  21  25
HETATM   25  O1  UNL     1      18.575   3.706  51.949  1.00  0.00    -0.341 OA
HETATM   26  C17 UNL     1      17.234   3.427  51.722  1.00  0.00     0.211 C 
ENDBRANCH  21  25
ENDBRANCH   1  20
TORSDOF 6
ENDMDL
MODEL 7
REMARK VINA RESULT:      -6.8      2.031      2.924
REMARK  6 active torsions:
REMARK  status: ('A' for Active; 'I' for Inactive)
REMARK    1  A    between atoms: N1_2  and  C2_3 
REMARK    2  A    between atoms: C2_3  and  O1_24 
REMARK    3  A    between atoms: C3_4  and  C4_5 
REMARK    4  A    between atoms: C8_11  and  N4_12 
REMARK    5  A    between atoms: N4_12  and  C10_14 
REMARK    6  A    between atoms: C14_18  and  C15_19 
ROOT
HETATM    1  C4  UNL     1      22.329   3.653  49.584  1.00  0.00     0.038 A 
HETATM    2  C5  UNL     1      22.287   3.614  48.204  1.00  0.00     0.046 A 
HETATM    3  C6  UNL     1      22.656   4.749  47.348  1.00  0.00     0.071 C 
HETATM    4  N2  UNL     1      21.909   2.507  47.550  1.00  0.00    -0.246 NA
HETATM    5  C7  UNL     1      21.558   1.397  48.197  1.00  0.00     0.235 A 
HETATM    6  N3  UNL     1      21.586   1.392  49.522  1.00  0.00    -0.223 NA
HETATM    7  C8  UNL     1      21.960   2.480  50.257  1.00  0.00     0.143 A 
ENDROOT
BRANCH   7   8
HETATM    8  N4  UNL     1      21.976   2.394  51.698  1.00  0.00    -0.335 N 
HETATM    9  C9  UNL     1      21.163   3.087  52.695  1.00  0.00     0.158 C 
BRANCH   8  10
HETATM   10  C10 UNL     1      22.933   1.477  52.265  1.00  0.00     0.036 A 
HETATM   11  C11 UNL     1      22.558   0.523  53.171  1.00  0.00     0.029 A 
HETATM   12  C12 UNL     1      23.410  -0.394  53.765  1.00  0.00     0.003 A 
HETATM   13  C13 UNL     1      24.758  -0.326  53.398  1.00  0.00     0.016 A 
HETATM   14  C14 UNL     1      25.178   0.619  52.489  1.00  0.00     0.050 A 
HETATM   15  C16 UNL     1      24.282   1.510  51.927  1.00  0.00     0.045 A 
BRANCH  14  16
HETATM   16  C15 UNL     1      26.627   0.652  52.127  1.00  0.00     0.417 C 
HETATM   17  F1  UNL     1      27.375   1.236  53.119  1.00  0.00    -0.166 F 
HETATM   18  F2  UNL     1      26.790   1.459  50.999  1.00  0.00    -0.166 F 
HETATM   19  F3  UNL     1      27.026  -0.626  51.801  1.00  0.00    -0.166 F 
ENDBRANCH  14  16
ENDBRANCH   8  10
ENDBRANCH   7   8
BRANCH   1  20
HETATM   20  C3  UNL     1      22.701   4.834  50.303  1.00  0.00     0.073 C 
HETATM   21  C2  UNL     1      23.793   5.337  50.814  1.00  0.00     0.138 C 
BRANCH  21  22
HETATM   22  N1  UNL     1      25.096   4.771  50.794  1.00  0.00    -0.375 N 
HETATM   23  C1  UNL     1      25.898   4.681  49.567  1.00  0.00     0.148 C 
HETATM   24  H4  UNL     1      25.564   4.384  51.647  1.00  0.00     0.161 HD
ENDBRANCH  21  22
BRANCH  21  25
HETATM   25  O1  UNL     1      23.769   6.545  51.463  1.00  0.00    -0.341 OA
HETATM   26  C17 UNL     1      23.890   7.814  50.912  1.00  0.00     0.211 C 
ENDBRANCH  21  25
ENDBRANCH   1  20
TORSDOF 6
ENDMDL
MODEL 8
REMARK VINA RESULT:      -6.7      3.477      5.334
REMARK  6 active torsions:
REMARK  status: ('A' for Active; 'I' for Inactive)
REMARK    1  A    between atoms: N1_2  and  C2_3 
REMARK    2  A    between atoms: C2_3  and  O1_24 
REMARK    3  A    between atoms: C3_4  and  C4_5 
REMARK    4  A    between atoms: C8_11  and  N4_12 
REMARK    5  A    between atoms: N4_12  and  C10_14 
REMARK    6  A    between atoms: C14_18  and  C15_19 
ROOT
HETATM    1  C4  UNL     1      24.937   3.792  50.563  1.00  0.00     0.038 A 
HETATM    2  C5  UNL     1      26.268   3.532  50.301  1.00  0.00     0.046 A 
HETATM    3  C6  UNL     1      26.988   4.074  49.141  1.00  0.00     0.071 C 
HETATM    4  N2  UNL     1      27.000   2.760  51.115  1.00  0.00    -0.246 NA
HETATM    5  C7  UNL     1      26.482   2.211  52.212  1.00  0.00     0.235 A 
HETATM    6  N3  UNL     1      25.208   2.436  52.501  1.00  0.00    -0.223 NA
HETATM    7  C8  UNL     1      24.400   3.211  51.720  1.00  0.00     0.143 A 
ENDROOT
BRANCH   7   8
HETATM    8  N4  UNL     1      23.025   3.420  52.107  1.00  0.00    -0.335 N 
HETATM    9  C9  UNL     1      22.355   4.620  52.603  1.00  0.00     0.158 C 
BRANCH   8  10
HETATM   10  C10 UNL     1      22.154   2.279  51.981  1.00  0.00     0.036 A 
HETATM   11  C11 UNL     1      21.348   2.112  50.888  1.00  0.00     0.029 A 
HETATM   12  C12 UNL     1      20.482   1.049  50.687  1.00  0.00     0.003 A 
HETATM   13  C13 UNL     1      20.439   0.077  51.693  1.00  0.00     0.016 A 
HETATM   14  C14 UNL     1      21.234   0.207  52.810  1.00  0.00     0.050 A 
HETATM   15  C16 UNL     1      22.081   1.290  52.957  1.00  0.00     0.045 A 
BRANCH  14  16
HETATM   16  C15 UNL     1      21.155  -0.857  53.856  1.00  0.00     0.417 C 
HETATM   17  F1  UNL     1      19.909  -1.431  53.889  1.00  0.00    -0.166 F 
HETATM   18  F2  UNL     1      21.339  -0.269  55.110  1.00  0.00    -0.166 F 
HETATM   19  F3  UNL     1      22.181  -1.752  53.647  1.00  0.00    -0.166 F 
ENDBRANCH  14  16
ENDBRANCH   8  10
ENDBRANCH   7   8
BRANCH   1  20
HETATM   20  C3  UNL     1      24.128   4.588  49.690  1.00  0.00     0.073 C 
HETATM   21  C2  UNL     1      23.330   4.384  48.676  1.00  0.00     0.138 C 
BRANCH  21  22
HETATM   22  N1  UNL     1      22.999   3.140  48.076  1.00  0.00    -0.375 N 
HETATM   23  C1  UNL     1      21.806   2.962  47.236  1.00  0.00     0.148 C 
HETATM   24  H4  UNL     1      23.579   2.276  48.193  1.00  0.00     0.161 HD
ENDBRANCH  21  22
BRANCH  21  25
HETATM   25  O1  UNL     1      22.698   5.435  48.061  1.00  0.00    -0.341 OA
HETATM   26  C17 UNL     1      23.026   6.783  48.119  1.00  0.00     0.211 C 
ENDBRANCH  21  25
ENDBRANCH   1  20
TORSDOF 6
ENDMDL
MODEL 9
REMARK VINA RESULT:      -6.6      6.239      8.534
REMARK  6 active torsions:
REMARK  status: ('A' for Active; 'I' for Inactive)
REMARK    1  A    between atoms: N1_2  and  C2_3 
REMARK    2  A    between atoms: C2_3  and  O1_24 
REMARK    3  A    between atoms: C3_4  and  C4_5 
REMARK    4  A    between atoms: C8_11  and  N4_12 
REMARK    5  A    between atoms: N4_12  and  C10_14 
REMARK    6  A    between atoms: C14_18  and  C15_19 
ROOT
HETATM    1  C4  UNL     1      28.682   7.271  48.109  1.00  0.00     0.038 A 
HETATM    2  C5  UNL     1      27.343   6.944  48.015  1.00  0.00     0.046 A 
HETATM    3  C6  UNL     1      26.298   7.903  47.637  1.00  0.00     0.071 C 
HETATM    4  N2  UNL     1      26.913   5.699  48.258  1.00  0.00    -0.246 NA
HETATM    5  C7  UNL     1      27.751   4.722  48.600  1.00  0.00     0.235 A 
HETATM    6  N3  UNL     1      29.044   4.994  48.700  1.00  0.00    -0.223 NA
HETATM    7  C8  UNL     1      29.558   6.237  48.468  1.00  0.00     0.143 A 
ENDROOT
BRANCH   7   8
HETATM    8  N4  UNL     1      30.980   6.453  48.586  1.00  0.00    -0.335 N 
HETATM    9  C9  UNL     1      31.749   7.138  49.623  1.00  0.00     0.158 C 
BRANCH   8  10
HETATM   10  C10 UNL     1      31.792   5.906  47.528  1.00  0.00     0.036 A 
HETATM   11  C11 UNL     1      31.886   6.520  46.309  1.00  0.00     0.029 A 
HETATM   12  C12 UNL     1      32.638   6.063  45.239  1.00  0.00     0.003 A 
HETATM   13  C13 UNL     1      33.353   4.877  45.437  1.00  0.00     0.016 A 
HETATM   14  C14 UNL     1      33.286   4.226  46.649  1.00  0.00     0.050 A 
HETATM   15  C16 UNL     1      32.518   4.729  47.683  1.00  0.00     0.045 A 
BRANCH  14  16
HETATM   16  C15 UNL     1      34.068   2.964  46.814  1.00  0.00     0.417 C 
HETATM   17  F1  UNL     1      34.782   2.970  47.987  1.00  0.00    -0.166 F 
HETATM   18  F2  UNL     1      35.015   2.884  45.790  1.00  0.00    -0.166 F 
HETATM   19  F3  UNL     1      33.207   1.896  46.686  1.00  0.00    -0.166 F 
ENDBRANCH  14  16
ENDBRANCH   8  10
ENDBRANCH   7   8
BRANCH   1  20
HETATM   20  C3  UNL     1      29.160   8.602  47.884  1.00  0.00     0.073 C 
HETATM   21  C2  UNL     1      29.303   9.697  48.582  1.00  0.00     0.138 C 
BRANCH  21  22
HETATM   22  N1  UNL     1      28.975   9.897  49.950  1.00  0.00    -0.375 N 
HETATM   23  C1  UNL     1      27.637   9.617  50.490  1.00  0.00     0.148 C 
HETATM   24  H4  UNL     1      29.661  10.255  50.655  1.00  0.00     0.161 HD
ENDBRANCH  21  22
BRANCH  21  25
HETATM   25  O1  UNL     1      29.819  10.830  48.007  1.00  0.00    -0.341 OA
HETATM   26  C17 UNL     1      30.227  11.999  48.637  1.00  0.00     0.211 C 
ENDBRANCH  21  25
ENDBRANCH   1  20
TORSDOF 6
ENDMDL
