MODEL 1
REMARK VINA RESULT:      -7.4      0.000      0.000
REMARK  5 active torsions:
REMARK  status: ('A' for Active; 'I' for Inactive)
REMARK    1  A    between atoms: C2_2  and  C3_3 
REMARK    2  A    between atoms: N1_6  and  C6_7 
REMARK    3  A    between atoms: C15_19  and  O1_20 
REMARK    4  A    between atoms: O1_20  and  C16_21 
REMARK    5  A    between atoms: C16_21  and  O2_22 
ROOT
HETATM    1  C3  UNL     1      26.742   0.864  54.117  1.00  0.00    -0.052 C 
HETATM    2  C4  UNL     1      26.151   1.959  53.674  1.00  0.00    -0.002 C 
HETATM    3  C5  UNL     1      24.891   2.082  52.890  1.00  0.00     0.152 C 
HETATM    4  N1  UNL     1      24.200   0.783  52.840  1.00  0.00    -0.359 N 
HETATM    5  C14 UNL     1      25.193  -0.267  52.559  1.00  0.00     0.161 C 
HETATM    6  C15 UNL     1      26.048  -0.409  53.781  1.00  0.00     0.171 C 
ENDROOT
BRANCH   4   7
HETATM    7  C6  UNL     1      22.821   0.480  53.019  1.00  0.00     0.140 A 
HETATM    8  N2  UNL     1      22.566   0.056  54.290  1.00  0.00    -0.224 NA
HETATM    9  C7  UNL     1      21.301  -0.283  54.652  1.00  0.00     0.236 A 
HETATM   10  N3  UNL     1      20.303  -0.200  53.755  1.00  0.00    -0.241 NA
HETATM   11  C8  UNL     1      20.505   0.215  52.488  1.00  0.00     0.072 A 
HETATM   12  C9  UNL     1      19.541   0.330  51.511  1.00  0.00     0.034 A 
HETATM   13  C13 UNL     1      21.785   0.561  52.112  1.00  0.00     0.040 A 
HETATM   14  C10 UNL     1      19.876   0.769  50.242  1.00  0.00     0.026 A 
HETATM   15  C11 UNL     1      21.182   1.113  49.892  1.00  0.00     0.035 A 
HETATM   16 CL1  UNL     1      21.569   1.665  48.277  1.00  0.00    -0.084 Cl
HETATM   17  C12 UNL     1      22.163   1.003  50.862  1.00  0.00     0.041 A 
ENDBRANCH   4   7
BRANCH   6  18
HETATM   18  O1  UNL     1      26.940  -1.442  53.736  1.00  0.00    -0.356 OA
BRANCH  18  19
HETATM   19  C16 UNL     1      27.006  -2.164  52.578  1.00  0.00     0.338 C 
BRANCH  19  20
HETATM   20  O2  UNL     1      28.107  -3.039  52.725  1.00  0.00    -0.372 OA
HETATM   21  C17 UNL     1      29.213  -2.376  53.234  1.00  0.00     0.204 C 
ENDBRANCH  19  20
ENDBRANCH  18  19
ENDBRANCH   6  18
BRANCH   1  22
HETATM   22  C2  UNL     1      27.993   0.792  54.893  1.00  0.00     0.032 C 
HETATM   23  C1  UNL     1      29.180   1.331  54.170  1.00  0.00     0.010 C 
ENDBRANCH   1  22
TORSDOF 5
ENDMDL
MODEL 2
REMARK VINA RESULT:      -7.0      3.074      4.737
REMARK  5 active torsions:
REMARK  status: ('A' for Active; 'I' for Inactive)
REMARK    1  A    between atoms: C2_2  and  C3_3 
REMARK    2  A    between atoms: N1_6  and  C6_7 
REMARK    3  A    between atoms: C15_19  and  O1_20 
REMARK    4  A    between atoms: O1_20  and  C16_21 
REMARK    5  A    between atoms: C16_21  and  O2_22 
ROOT
HETATM    1  C3  UNL     1      25.542   2.510  50.894  1.00  0.00    -0.052 C 
HETATM    2  C4  UNL     1      26.281   1.430  51.068  1.00  0.00    -0.002 C 
HETATM    3  C5  UNL     1      26.365   0.544  52.262  1.00  0.00     0.152 C 
HETATM    4  N1  UNL     1      25.300   0.887  53.219  1.00  0.00    -0.359 N 
HETATM    5  C14 UNL     1      25.232   2.352  53.341  1.00  0.00     0.161 C 
HETATM    6  C15 UNL     1      24.682   2.881  52.052  1.00  0.00     0.171 C 
ENDROOT
BRANCH   4   7
HETATM    7  C6  UNL     1      24.429   0.034  53.953  1.00  0.00     0.140 A 
HETATM    8  N2  UNL     1      25.060  -0.506  55.036  1.00  0.00    -0.224 NA
HETATM    9  C7  UNL     1      24.389  -1.352  55.861  1.00  0.00     0.236 A 
HETATM   10  N3  UNL     1      23.104  -1.655  55.607  1.00  0.00    -0.241 NA
HETATM   11  C8  UNL     1      22.438  -1.145  54.551  1.00  0.00     0.072 A 
HETATM   12  C9  UNL     1      21.125  -1.401  54.223  1.00  0.00     0.034 A 
HETATM   13  C13 UNL     1      23.110  -0.286  53.709  1.00  0.00     0.040 A 
HETATM   14  C10 UNL     1      20.553  -0.815  53.108  1.00  0.00     0.026 A 
HETATM   15  C11 UNL     1      21.261   0.052  52.274  1.00  0.00     0.035 A 
HETATM   16 CL1  UNL     1      20.504   0.777  50.872  1.00  0.00    -0.084 Cl
HETATM   17  C12 UNL     1      22.581   0.320  52.591  1.00  0.00     0.041 A 
ENDBRANCH   4   7
BRANCH   6  18
HETATM   18  O1  UNL     1      24.427   4.222  52.047  1.00  0.00    -0.356 OA
BRANCH  18  19
HETATM   19  C16 UNL     1      23.173   4.624  52.411  1.00  0.00     0.338 C 
BRANCH  19  20
HETATM   20  O2  UNL     1      22.275   3.829  51.662  1.00  0.00    -0.372 OA
HETATM   21  C17 UNL     1      20.965   4.027  52.070  1.00  0.00     0.204 C 
ENDBRANCH  19  20
ENDBRANCH  18  19
ENDBRANCH   6  18
BRANCH   1  22
HETATM   22  C2  UNL     1      25.493   3.359  49.690  1.00  0.00     0.032 C 
HETATM   23  C1  UNL     1      26.802   3.976  49.336  1.00  0.00     0.010 C 
ENDBRANCH   1  22
TORSDOF 5
ENDMDL
MODEL 3
REMARK VINA RESULT:      -6.9      2.341      2.991
REMARK  5 active torsions:
REMARK  status: ('A' for Active; 'I' for Inactive)
REMARK    1  A    between atoms: C2_2  and  C3_3 
REMARK    2  A    between atoms: N1_6  and  C6_7 
REMARK    3  A    between atoms: C15_19  and  O1_20 
REMARK    4  A    between atoms: O1_20  and  C16_21 
REMARK    5  A    between atoms: C16_21  and  O2_22 
ROOT
HETATM    1  C3  UNL     1      27.654   1.089  53.537  1.00  0.00    -0.052 C 
HETATM    2  C4  UNL     1      27.497   2.181  52.811  1.00  0.00    -0.002 C 
HETATM    3  C5  UNL     1      26.493   2.451  51.744  1.00  0.00     0.152 C 
HETATM    4  N1  UNL     1      25.477   1.386  51.727  1.00  0.00    -0.359 N 
HETATM    5  C14 UNL     1      26.157   0.086  51.844  1.00  0.00     0.161 C 
HETATM    6  C15 UNL     1      26.695  -0.010  53.240  1.00  0.00     0.171 C 
ENDROOT
BRANCH   4   7
HETATM    7  C6  UNL     1      24.061   1.483  51.621  1.00  0.00     0.140 A 
HETATM    8  N2  UNL     1      23.695   2.273  50.571  1.00  0.00    -0.224 NA
HETATM    9  C7  UNL     1      22.379   2.487  50.309  1.00  0.00     0.236 A 
HETATM   10  N3  UNL     1      21.441   1.920  51.087  1.00  0.00    -0.241 NA
HETATM   11  C8  UNL     1      21.754   1.131  52.135  1.00  0.00     0.072 A 
HETATM   12  C9  UNL     1      20.857   0.512  52.978  1.00  0.00     0.034 A 
HETATM   13  C13 UNL     1      23.086   0.908  52.408  1.00  0.00     0.040 A 
HETATM   14  C10 UNL     1      21.304  -0.276  54.023  1.00  0.00     0.026 A 
HETATM   15  C11 UNL     1      22.661  -0.483  54.274  1.00  0.00     0.035 A 
HETATM   16 CL1  UNL     1      23.191  -1.488  55.605  1.00  0.00    -0.084 Cl
HETATM   17  C12 UNL     1      23.575   0.131  53.435  1.00  0.00     0.041 A 
ENDBRANCH   4   7
BRANCH   6  18
HETATM   18  O1  UNL     1      27.242  -1.220  53.558  1.00  0.00    -0.356 OA
BRANCH  18  19
HETATM   19  C16 UNL     1      27.159  -2.213  52.623  1.00  0.00     0.338 C 
BRANCH  19  20
HETATM   20  O2  UNL     1      28.245  -3.082  52.877  1.00  0.00    -0.372 OA
HETATM   21  C17 UNL     1      29.366  -2.380  53.292  1.00  0.00     0.204 C 
ENDBRANCH  19  20
ENDBRANCH  18  19
ENDBRANCH   6  18
BRANCH   1  22
HETATM   22  C2  UNL     1      28.666   0.867  54.586  1.00  0.00     0.032 C 
HETATM   23  C1  UNL     1      29.655   1.975  54.710  1.00  0.00     0.010 C 
ENDBRANCH   1  22
TORSDOF 5
ENDMDL
MODEL 4
REMARK VINA RESULT:      -6.7      4.506      6.123
REMARK  5 active torsions:
REMARK  status: ('A' for Active; 'I' for Inactive)
REMARK    1  A    between atoms: C2_2  and  C3_3 
REMARK    2  A    between atoms: N1_6  and  C6_7 
REMARK    3  A    between atoms: C15_19  and  O1_20 
REMARK    4  A    between atoms: O1_20  and  C16_21 
REMARK    5  A    between atoms: C16_21  and  O2_22 
ROOT
HETATM    1  C3  UNL     1      25.919   4.285  49.835  1.00  0.00    -0.052 C 
HETATM    2  C4  UNL     1      26.416   3.079  50.039  1.00  0.00    -0.002 C 
HETATM    3  C5  UNL     1      25.898   1.996  50.921  1.00  0.00     0.152 C 
HETATM    4  N1  UNL     1      24.556   2.347  51.412  1.00  0.00    -0.359 N 
HETATM    5  C14 UNL     1      24.562   3.757  51.833  1.00  0.00     0.161 C 
HETATM    6  C15 UNL     1      24.674   4.591  50.593  1.00  0.00     0.171 C 
ENDROOT
BRANCH   4   7
HETATM    7  C6  UNL     1      23.385   1.543  51.507  1.00  0.00     0.140 A 
HETATM    8  N2  UNL     1      22.500   1.835  50.510  1.00  0.00    -0.224 NA
HETATM    9  C7  UNL     1      21.317   1.170  50.435  1.00  0.00     0.236 A 
HETATM   10  N3  UNL     1      21.022   0.226  51.345  1.00  0.00    -0.241 NA
HETATM   11  C8  UNL     1      21.864  -0.099  52.346  1.00  0.00     0.072 A 
HETATM   12  C9  UNL     1      21.640  -1.053  53.315  1.00  0.00     0.034 A 
HETATM   13  C13 UNL     1      23.066   0.570  52.430  1.00  0.00     0.040 A 
HETATM   14  C10 UNL     1      22.586  -1.294  54.295  1.00  0.00     0.026 A 
HETATM   15  C11 UNL     1      23.795  -0.599  54.353  1.00  0.00     0.035 A 
HETATM   16 CL1  UNL     1      24.969  -0.932  55.608  1.00  0.00    -0.084 Cl
HETATM   17  C12 UNL     1      24.036   0.362  53.387  1.00  0.00     0.041 A 
ENDBRANCH   4   7
BRANCH   6  18
HETATM   18  O1  UNL     1      24.558   5.936  50.798  1.00  0.00    -0.356 OA
BRANCH  18  19
HETATM   19  C16 UNL     1      23.306   6.478  50.715  1.00  0.00     0.338 C 
BRANCH  19  20
HETATM   20  O2  UNL     1      23.477   7.876  50.837  1.00  0.00    -0.372 OA
HETATM   21  C17 UNL     1      24.695   8.283  50.315  1.00  0.00     0.204 C 
ENDBRANCH  19  20
ENDBRANCH  18  19
ENDBRANCH   6  18
BRANCH   1  22
HETATM   22  C2  UNL     1      26.469   5.326  48.949  1.00  0.00     0.032 C 
HETATM   23  C1  UNL     1      27.897   5.111  48.584  1.00  0.00     0.010 C 
ENDBRANCH   1  22
TORSDOF 5
ENDMDL
MODEL 5
REMARK VINA RESULT:      -6.7      3.972      5.826
REMARK  5 active torsions:
REMARK  status: ('A' for Active; 'I' for Inactive)
REMARK    1  A    between atoms: C2_2  and  C3_3 
REMARK    2  A    between atoms: N1_6  and  C6_7 
REMARK    3  A    between atoms: C15_19  and  O1_20 
REMARK    4  A    between atoms: O1_20  and  C16_21 
REMARK    5  A    between atoms: C16_21  and  O2_22 
ROOT
HETATM    1  C3  UNL     1      23.934   5.300  51.275  1.00  0.00    -0.052 C 
HETATM    2  C4  UNL     1      22.773   5.135  51.884  1.00  0.00    -0.002 C 
HETATM    3  C5  UNL     1      22.006   3.876  52.098  1.00  0.00     0.152 C 
HETATM    4  N1  UNL     1      22.833   2.715  51.731  1.00  0.00    -0.359 N 
HETATM    5  C14 UNL     1      23.513   3.005  50.458  1.00  0.00     0.161 C 
HETATM    6  C15 UNL     1      24.546   4.055  50.736  1.00  0.00     0.171 C 
ENDROOT
BRANCH   4   7
HETATM    7  C6  UNL     1      23.016   1.479  52.413  1.00  0.00     0.140 A 
HETATM    8  N2  UNL     1      21.885   0.719  52.375  1.00  0.00    -0.224 NA
HETATM    9  C7  UNL     1      21.865  -0.500  52.976  1.00  0.00     0.236 A 
HETATM   10  N3  UNL     1      22.962  -0.953  53.607  1.00  0.00    -0.241 NA
HETATM   11  C8  UNL     1      24.104  -0.238  53.670  1.00  0.00     0.072 A 
HETATM   12  C9  UNL     1      25.269  -0.628  54.294  1.00  0.00     0.034 A 
HETATM   13  C13 UNL     1      24.133   0.999  53.064  1.00  0.00     0.040 A 
HETATM   14  C10 UNL     1      26.378   0.199  54.290  1.00  0.00     0.026 A 
HETATM   15  C11 UNL     1      26.377   1.447  53.666  1.00  0.00     0.035 A 
HETATM   16 CL1  UNL     1      27.799   2.466  53.680  1.00  0.00    -0.084 Cl
HETATM   17  C12 UNL     1      25.214   1.853  53.035  1.00  0.00     0.041 A 
ENDBRANCH   4   7
BRANCH   6  18
HETATM   18  O1  UNL     1      25.363   4.343  49.680  1.00  0.00    -0.356 OA
BRANCH  18  19
HETATM   19  C16 UNL     1      26.404   3.490  49.441  1.00  0.00     0.338 C 
BRANCH  19  20
HETATM   20  O2  UNL     1      27.542   4.307  49.247  1.00  0.00    -0.372 OA
HETATM   21  C17 UNL     1      27.212   5.482  48.590  1.00  0.00     0.204 C 
ENDBRANCH  19  20
ENDBRANCH  18  19
ENDBRANCH   6  18
BRANCH   1  22
HETATM   22  C2  UNL     1      24.657   6.570  51.087  1.00  0.00     0.032 C 
HETATM   23  C1  UNL     1      23.767   7.733  50.811  1.00  0.00     0.010 C 
ENDBRANCH   1  22
TORSDOF 5
ENDMDL
MODEL 6
REMARK VINA RESULT:      -6.7      3.549      5.479
REMARK  5 active torsions:
REMARK  status: ('A' for Active; 'I' for Inactive)
REMARK    1  A    between atoms: C2_2  and  C3_3 
REMARK    2  A    between atoms: N1_6  and  C6_7 
REMARK    3  A    between atoms: C15_19  and  O1_20 
REMARK    4  A    between atoms: O1_20  and  C16_21 
REMARK    5  A    between atoms: C16_21  and  O2_22 
ROOT
HETATM    1  C3  UNL     1      23.156   0.438  53.129  1.00  0.00    -0.052 C 
HETATM    2  C4  UNL     1      22.311   1.374  52.737  1.00  0.00    -0.002 C 
HETATM    3  C5  UNL     1      22.604   2.766  52.298  1.00  0.00     0.152 C 
HETATM    4  N1  UNL     1      24.054   2.942  52.120  1.00  0.00    -0.359 N 
HETATM    5  C14 UNL     1      24.748   2.324  53.262  1.00  0.00     0.161 C 
HETATM    6  C15 UNL     1      24.589   0.840  53.128  1.00  0.00     0.171 C 
ENDROOT
BRANCH   4   7
HETATM    7  C6  UNL     1      24.769   3.580  51.067  1.00  0.00     0.140 A 
HETATM    8  N2  UNL     1      25.855   2.847  50.689  1.00  0.00    -0.224 NA
HETATM    9  C7  UNL     1      26.666   3.296  49.695  1.00  0.00     0.236 A 
HETATM   10  N3  UNL     1      26.395   4.464  49.088  1.00  0.00    -0.241 NA
HETATM   11  C8  UNL     1      25.333   5.223  49.425  1.00  0.00     0.072 A 
HETATM   12  C9  UNL     1      24.984   6.428  48.854  1.00  0.00     0.034 A 
HETATM   13  C13 UNL     1      24.505   4.775  50.432  1.00  0.00     0.040 A 
HETATM   14  C10 UNL     1      23.866   7.115  49.291  1.00  0.00     0.026 A 
HETATM   15  C11 UNL     1      23.047   6.634  50.313  1.00  0.00     0.035 A 
HETATM   16 CL1  UNL     1      21.639   7.531  50.840  1.00  0.00    -0.084 Cl
HETATM   17  C12 UNL     1      23.383   5.426  50.898  1.00  0.00     0.041 A 
ENDBRANCH   4   7
BRANCH   6  18
HETATM   18  O1  UNL     1      25.292   0.107  54.040  1.00  0.00    -0.356 OA
BRANCH  18  19
HETATM   19  C16 UNL     1      26.369   0.705  54.631  1.00  0.00     0.338 C 
BRANCH  19  20
HETATM   20  O2  UNL     1      27.310  -0.324  54.863  1.00  0.00    -0.372 OA
HETATM   21  C17 UNL     1      28.608   0.161  54.819  1.00  0.00     0.204 C 
ENDBRANCH  19  20
ENDBRANCH  18  19
ENDBRANCH   6  18
BRANCH   1  22
HETATM   22  C2  UNL     1      22.817  -0.932  53.556  1.00  0.00     0.032 C 
HETATM   23  C1  UNL     1      21.969  -0.987  54.780  1.00  0.00     0.010 C 
ENDBRANCH   1  22
TORSDOF 5
ENDMDL
MODEL 7
REMARK VINA RESULT:      -6.7      5.348      6.919
REMARK  5 active torsions:
REMARK  status: ('A' for Active; 'I' for Inactive)
REMARK    1  A    between atoms: C2_2  and  C3_3 
REMARK    2  A    between atoms: N1_6  and  C6_7 
REMARK    3  A    between atoms: C15_19  and  O1_20 
REMARK    4  A    between atoms: O1_20  and  C16_21 
REMARK    5  A    between atoms: C16_21  and  O2_22 
ROOT
HETATM    1  C3  UNL     1      26.761   5.594  48.841  1.00  0.00    -0.052 C 
HETATM    2  C4  UNL     1      27.073   4.319  48.986  1.00  0.00    -0.002 C 
HETATM    3  C5  UNL     1      26.255   3.223  49.576  1.00  0.00     0.152 C 
HETATM    4  N1  UNL     1      24.877   3.688  49.798  1.00  0.00    -0.359 N 
HETATM    5  C14 UNL     1      24.924   5.032  50.397  1.00  0.00     0.161 C 
HETATM    6  C15 UNL     1      25.409   5.973  49.337  1.00  0.00     0.171 C 
ENDROOT
BRANCH   4   7
HETATM    7  C6  UNL     1      23.642   3.036  49.521  1.00  0.00     0.140 A 
HETATM    8  N2  UNL     1      23.095   3.484  48.354  1.00  0.00    -0.224 NA
HETATM    9  C7  UNL     1      21.910   2.979  47.922  1.00  0.00     0.236 A 
HETATM   10  N3  UNL     1      21.279   2.038  48.645  1.00  0.00    -0.241 NA
HETATM   11  C8  UNL     1      21.781   1.563  49.803  1.00  0.00     0.072 A 
HETATM   12  C9  UNL     1      21.201   0.602  50.602  1.00  0.00     0.034 A 
HETATM   13  C13 UNL     1      22.982   2.069  50.250  1.00  0.00     0.040 A 
HETATM   14  C10 UNL     1      21.817   0.197  51.773  1.00  0.00     0.026 A 
HETATM   15  C11 UNL     1      23.034   0.729  52.199  1.00  0.00     0.035 A 
HETATM   16 CL1  UNL     1      23.785   0.192  53.686  1.00  0.00    -0.084 Cl
HETATM   17  C12 UNL     1      23.630   1.695  51.407  1.00  0.00     0.041 A 
ENDBRANCH   4   7
BRANCH   6  18
HETATM   18  O1  UNL     1      25.383   7.292  49.690  1.00  0.00    -0.356 OA
BRANCH  18  19
HETATM   19  C16 UNL     1      24.492   7.666  50.656  1.00  0.00     0.338 C 
BRANCH  19  20
HETATM   20  O2  UNL     1      23.531   8.477  50.008  1.00  0.00    -0.372 OA
HETATM   21  C17 UNL     1      22.290   7.861  49.977  1.00  0.00     0.204 C 
ENDBRANCH  19  20
ENDBRANCH  18  19
ENDBRANCH   6  18
BRANCH   1  22
HETATM   22  C2  UNL     1      27.606   6.645  48.248  1.00  0.00     0.032 C 
HETATM   23  C1  UNL     1      29.043   6.267  48.134  1.00  0.00     0.010 C 
ENDBRANCH   1  22
TORSDOF 5
ENDMDL
MODEL 8
REMARK VINA RESULT:      -6.5      3.627      5.979
REMARK  5 active torsions:
REMARK  status: ('A' for Active; 'I' for Inactive)
REMARK    1  A    between atoms: C2_2  and  C3_3 
REMARK    2  A    between atoms: N1_6  and  C6_7 
REMARK    3  A    between atoms: C15_19  and  O1_20 
REMARK    4  A    between atoms: O1_20  and  C16_21 
REMARK    5  A    between atoms: C16_21  and  O2_22 
ROOT
HETATM    1  C3  UNL     1      24.146   3.231  49.964  1.00  0.00    -0.052 C 
HETATM    2  C4  UNL     1      25.408   2.852  50.042  1.00  0.00    -0.002 C 
HETATM    3  C5  UNL     1      26.175   2.415  51.243  1.00  0.00     0.152 C 
HETATM    4  N1  UNL     1      25.261   2.221  52.380  1.00  0.00    -0.359 N 
HETATM    5  C14 UNL     1      24.321   3.353  52.427  1.00  0.00     0.161 C 
HETATM    6  C15 UNL     1      23.400   3.215  51.252  1.00  0.00     0.171 C 
ENDROOT
BRANCH   4   7
HETATM    7  C6  UNL     1      25.206   1.163  53.330  1.00  0.00     0.140 A 
HETATM    8  N2  UNL     1      26.391   1.027  53.991  1.00  0.00    -0.224 NA
HETATM    9  C7  UNL     1      26.533   0.065  54.940  1.00  0.00     0.236 A 
HETATM   10  N3  UNL     1      25.504  -0.752  55.224  1.00  0.00    -0.241 NA
HETATM   11  C8  UNL     1      24.313  -0.655  54.599  1.00  0.00     0.072 A 
HETATM   12  C9  UNL     1      23.211  -1.448  54.832  1.00  0.00     0.034 A 
HETATM   13  C13 UNL     1      24.160   0.318  53.636  1.00  0.00     0.040 A 
HETATM   14  C10 UNL     1      22.040  -1.249  54.121  1.00  0.00     0.026 A 
HETATM   15  C11 UNL     1      21.916  -0.254  53.151  1.00  0.00     0.035 A 
HETATM   16 CL1  UNL     1      20.419  -0.031  52.272  1.00  0.00    -0.084 Cl
HETATM   17  C12 UNL     1      23.014   0.551  52.906  1.00  0.00     0.041 A 
ENDBRANCH   4   7
BRANCH   6  18
HETATM   18  O1  UNL     1      22.375   4.116  51.222  1.00  0.00    -0.356 OA
BRANCH  18  19
HETATM   19  C16 UNL     1      22.494   5.229  52.007  1.00  0.00     0.338 C 
BRANCH  19  20
HETATM   20  O2  UNL     1      22.227   6.332  51.164  1.00  0.00    -0.372 OA
HETATM   21  C17 UNL     1      23.395   6.986  50.805  1.00  0.00     0.204 C 
ENDBRANCH  19  20
ENDBRANCH  18  19
ENDBRANCH   6  18
BRANCH   1  22
HETATM   22  C2  UNL     1      23.428   3.656  48.749  1.00  0.00     0.032 C 
HETATM   23  C1  UNL     1      22.694   2.553  48.068  1.00  0.00     0.010 C 
ENDBRANCH   1  22
TORSDOF 5
ENDMDL
MODEL 9
REMARK VINA RESULT:      -6.5      4.107      6.336
REMARK  5 active torsions:
REMARK  status: ('A' for Active; 'I' for Inactive)
REMARK    1  A    between atoms: C2_2  and  C3_3 
REMARK    2  A    between atoms: N1_6  and  C6_7 
REMARK    3  A    between atoms: C15_19  and  O1_20 
REMARK    4  A    between atoms: O1_20  and  C16_21 
REMARK    5  A    between atoms: C16_21  and  O2_22 
ROOT
HETATM    1  C3  UNL     1      24.181   4.742  50.098  1.00  0.00    -0.052 C 
HETATM    2  C4  UNL     1      23.907   5.039  51.355  1.00  0.00    -0.002 C 
HETATM    3  C5  UNL     1      23.185   4.219  52.368  1.00  0.00     0.152 C 
HETATM    4  N1  UNL     1      22.984   2.853  51.858  1.00  0.00    -0.359 N 
HETATM    5  C14 UNL     1      22.534   2.935  50.459  1.00  0.00     0.161 C 
HETATM    6  C15 UNL     1      23.699   3.409  49.644  1.00  0.00     0.171 C 
ENDROOT
BRANCH   4   7
HETATM    7  C6  UNL     1      23.163   1.603  52.514  1.00  0.00     0.140 A 
HETATM    8  N2  UNL     1      21.998   0.894  52.558  1.00  0.00    -0.224 NA
HETATM    9  C7  UNL     1      21.969  -0.329  53.149  1.00  0.00     0.236 A 
HETATM   10  N3  UNL     1      23.090  -0.837  53.691  1.00  0.00    -0.241 NA
HETATM   11  C8  UNL     1      24.264  -0.175  53.671  1.00  0.00     0.072 A 
HETATM   12  C9  UNL     1      25.455  -0.624  54.200  1.00  0.00     0.034 A 
HETATM   13  C13 UNL     1      24.303   1.066  53.073  1.00  0.00     0.040 A 
HETATM   14  C10 UNL     1      26.597   0.153  54.117  1.00  0.00     0.026 A 
HETATM   15  C11 UNL     1      26.604   1.407  53.504  1.00  0.00     0.035 A 
HETATM   16 CL1  UNL     1      28.069   2.361  53.416  1.00  0.00    -0.084 Cl
HETATM   17  C12 UNL     1      25.416   1.872  52.967  1.00  0.00     0.041 A 
ENDBRANCH   4   7
BRANCH   6  18
HETATM   18  O1  UNL     1      23.488   3.411  48.295  1.00  0.00    -0.356 OA
BRANCH  18  19
HETATM   19  C16 UNL     1      22.197   3.515  47.861  1.00  0.00     0.338 C 
BRANCH  19  20
HETATM   20  O2  UNL     1      22.175   2.961  46.561  1.00  0.00    -0.372 OA
HETATM   21  C17 UNL     1      21.670   3.862  45.637  1.00  0.00     0.204 C 
ENDBRANCH  19  20
ENDBRANCH  18  19
ENDBRANCH   6  18
BRANCH   1  22
HETATM   22  C2  UNL     1      24.901   5.589  49.130  1.00  0.00     0.032 C 
HETATM   23  C1  UNL     1      26.348   5.257  49.001  1.00  0.00     0.010 C 
ENDBRANCH   1  22
TORSDOF 5
ENDMDL
