MODEL 1
REMARK VINA RESULT:      -9.3      0.000      0.000
REMARK  3 active torsions:
REMARK  status: ('A' for Active; 'I' for Inactive)
REMARK    1  A    between atoms: C5_5  and  C6_6 
REMARK    2  A    between atoms: N2_16  and  C15_17 
REMARK    3  A    between atoms: C16_19  and  O1_20 
ROOT
HETATM    1  C6  UNL     1      24.804   1.729  51.132  1.00  0.00     0.151 C 
HETATM    2  C7  UNL     1      23.470   2.059  51.822  1.00  0.00     0.094 C 
HETATM    3  C8  UNL     1      23.356   0.772  52.602  1.00  0.00     0.067 C 
HETATM    4  C9  UNL     1      22.114   0.152  53.001  1.00  0.00    -0.010 A 
HETATM    5  C10 UNL     1      22.123  -1.021  53.712  1.00  0.00     0.013 A 
HETATM    6  C11 UNL     1      20.960  -1.652  54.117  1.00  0.00     0.001 A 
HETATM    7  C12 UNL     1      19.743  -1.080  53.793  1.00  0.00     0.000 A 
HETATM    8  C13 UNL     1      19.728   0.101  53.078  1.00  0.00     0.001 A 
HETATM    9  C14 UNL     1      20.899   0.714  52.685  1.00  0.00     0.013 A 
HETATM   10  N1  UNL     1      24.555   0.354  52.832  1.00  0.00    -0.173 NA
HETATM   11  N2  UNL     1      25.511   1.246  52.274  1.00  0.00    -0.236 N 
ENDROOT
BRANCH   1  12
HETATM   12  C5  UNL     1      25.311   2.932  50.494  1.00  0.00    -0.033 A 
HETATM   13  C4  UNL     1      26.411   3.015  49.682  1.00  0.00     0.010 A 
HETATM   14  C3  UNL     1      26.801   4.196  49.130  1.00  0.00     0.007 A 
HETATM   15  C2  UNL     1      26.126   5.399  49.344  1.00  0.00    -0.062 A 
HETATM   16  C1  UNL     1      26.572   6.662  48.735  1.00  0.00     0.048 C 
HETATM   17  C19 UNL     1      25.013   5.353  50.158  1.00  0.00     0.007 A 
HETATM   18  C18 UNL     1      24.641   4.140  50.703  1.00  0.00     0.010 A 
ENDBRANCH   1  12
BRANCH  11  19
HETATM   19  C15 UNL     1      26.779   1.389  52.945  1.00  0.00     0.192 A 
HETATM   20  N3  UNL     1      27.788   2.365  52.757  1.00  0.00    -0.198 NA
HETATM   21  C16 UNL     1      28.793   2.128  53.577  1.00  0.00     0.171 A 
HETATM   22  C17 UNL     1      28.974   1.071  54.570  1.00  0.00     0.111 A 
HETATM   23  S1  UNL     1      27.366   0.191  54.308  1.00  0.00    -0.058 SA
BRANCH  21  24
HETATM   24  O1  UNL     1      29.722   3.158  53.294  1.00  0.00    -0.344 OA
HETATM   25  H14 UNL     1      30.636   2.985  52.926  1.00  0.00     0.219 HD
ENDBRANCH  21  24
ENDBRANCH  11  19
TORSDOF 3
ENDMDL
MODEL 2
REMARK VINA RESULT:      -9.1      2.995      6.121
REMARK  3 active torsions:
REMARK  status: ('A' for Active; 'I' for Inactive)
REMARK    1  A    between atoms: C5_5  and  C6_6 
REMARK    2  A    between atoms: N2_16  and  C15_17 
REMARK    3  A    between atoms: C16_19  and  O1_20 
ROOT
HETATM    1  C6  UNL     1      24.876   1.497  51.802  1.00  0.00     0.151 C 
HETATM    2  C7  UNL     1      24.986   2.978  52.201  1.00  0.00     0.094 C 
HETATM    3  C8  UNL     1      23.568   3.358  51.848  1.00  0.00     0.067 C 
HETATM    4  C9  UNL     1      23.144   4.671  51.422  1.00  0.00    -0.010 A 
HETATM    5  C10 UNL     1      21.826   4.911  51.126  1.00  0.00     0.013 A 
HETATM    6  C11 UNL     1      21.372   6.151  50.714  1.00  0.00     0.001 A 
HETATM    7  C12 UNL     1      22.279   7.189  50.595  1.00  0.00     0.000 A 
HETATM    8  C13 UNL     1      23.607   6.953  50.893  1.00  0.00     0.001 A 
HETATM    9  C14 UNL     1      24.039   5.709  51.302  1.00  0.00     0.013 A 
HETATM   10  N1  UNL     1      22.838   2.305  52.001  1.00  0.00    -0.173 NA
HETATM   11  N2  UNL     1      23.630   1.207  52.436  1.00  0.00    -0.236 N 
ENDROOT
BRANCH   1  12
HETATM   12  C5  UNL     1      26.050   0.792  52.287  1.00  0.00    -0.033 A 
HETATM   13  C4  UNL     1      26.267  -0.558  52.222  1.00  0.00     0.010 A 
HETATM   14  C3  UNL     1      27.409  -1.120  52.707  1.00  0.00     0.007 A 
HETATM   15  C2  UNL     1      28.432  -0.378  53.301  1.00  0.00    -0.062 A 
HETATM   16  C1  UNL     1      29.654  -1.014  53.817  1.00  0.00     0.048 C 
HETATM   17  C19 UNL     1      28.246   0.986  53.384  1.00  0.00     0.007 A 
HETATM   18  C18 UNL     1      27.078   1.527  52.883  1.00  0.00     0.010 A 
ENDBRANCH   1  12
BRANCH  11  19
HETATM   19  C15 UNL     1      23.015   0.223  53.292  1.00  0.00     0.192 A 
HETATM   20  N3  UNL     1      23.566  -0.475  54.394  1.00  0.00    -0.198 NA
HETATM   21  C16 UNL     1      22.660  -1.289  54.901  1.00  0.00     0.171 A 
HETATM   22  C17 UNL     1      21.278  -1.535  54.497  1.00  0.00     0.111 A 
HETATM   23  S1  UNL     1      21.211  -0.355  53.071  1.00  0.00    -0.058 SA
BRANCH  21  24
HETATM   24  O1  UNL     1      23.326  -1.920  55.979  1.00  0.00    -0.344 OA
HETATM   25  H14 UNL     1      24.026  -2.624  55.855  1.00  0.00     0.219 HD
ENDBRANCH  21  24
ENDBRANCH  11  19
TORSDOF 3
ENDMDL
MODEL 3
REMARK VINA RESULT:      -8.7      2.154      4.727
REMARK  3 active torsions:
REMARK  status: ('A' for Active; 'I' for Inactive)
REMARK    1  A    between atoms: C5_5  and  C6_6 
REMARK    2  A    between atoms: N2_16  and  C15_17 
REMARK    3  A    between atoms: C16_19  and  O1_20 
ROOT
HETATM    1  C6  UNL     1      24.342   0.724  53.541  1.00  0.00     0.151 C 
HETATM    2  C7  UNL     1      23.498  -0.521  53.218  1.00  0.00     0.094 C 
HETATM    3  C8  UNL     1      22.222   0.215  52.887  1.00  0.00     0.067 C 
HETATM    4  C9  UNL     1      20.891  -0.315  53.061  1.00  0.00    -0.010 A 
HETATM    5  C10 UNL     1      19.796   0.440  52.726  1.00  0.00     0.013 A 
HETATM    6  C11 UNL     1      18.500  -0.024  52.874  1.00  0.00     0.001 A 
HETATM    7  C12 UNL     1      18.301  -1.296  53.379  1.00  0.00     0.000 A 
HETATM    8  C13 UNL     1      19.400  -2.062  53.717  1.00  0.00     0.001 A 
HETATM    9  C14 UNL     1      20.683  -1.579  53.561  1.00  0.00     0.013 A 
HETATM   10  N1  UNL     1      22.556   1.377  52.432  1.00  0.00    -0.173 NA
HETATM   11  N2  UNL     1      23.970   1.520  52.415  1.00  0.00    -0.236 N 
ENDROOT
BRANCH   1  12
HETATM   12  C5  UNL     1      25.736   0.330  53.647  1.00  0.00    -0.033 A 
HETATM   13  C4  UNL     1      26.664   0.861  54.503  1.00  0.00     0.010 A 
HETATM   14  C3  UNL     1      27.950   0.416  54.524  1.00  0.00     0.007 A 
HETATM   15  C2  UNL     1      28.421  -0.599  53.688  1.00  0.00    -0.062 A 
HETATM   16  C1  UNL     1      29.818  -1.058  53.733  1.00  0.00     0.048 C 
HETATM   17  C19 UNL     1      27.513  -1.157  52.812  1.00  0.00     0.007 A 
HETATM   18  C18 UNL     1      26.215  -0.685  52.814  1.00  0.00     0.010 A 
ENDBRANCH   1  12
BRANCH  11  19
HETATM   19  C15 UNL     1      24.557   2.339  51.384  1.00  0.00     0.192 A 
HETATM   20  N3  UNL     1      25.894   2.785  51.247  1.00  0.00    -0.198 NA
HETATM   21  C16 UNL     1      26.007   3.518  50.156  1.00  0.00     0.171 A 
HETATM   22  C17 UNL     1      25.005   3.893  49.160  1.00  0.00     0.111 A 
HETATM   23  S1  UNL     1      23.555   3.020  49.912  1.00  0.00    -0.058 SA
BRANCH  21  24
HETATM   24  O1  UNL     1      27.371   3.897  50.134  1.00  0.00    -0.344 OA
HETATM   25  H14 UNL     1      28.057   3.440  49.567  1.00  0.00     0.219 HD
ENDBRANCH  21  24
ENDBRANCH  11  19
TORSDOF 3
ENDMDL
MODEL 4
REMARK VINA RESULT:      -8.7      3.873      5.424
REMARK  3 active torsions:
REMARK  status: ('A' for Active; 'I' for Inactive)
REMARK    1  A    between atoms: C5_5  and  C6_6 
REMARK    2  A    between atoms: N2_16  and  C15_17 
REMARK    3  A    between atoms: C16_19  and  O1_20 
ROOT
HETATM    1  C6  UNL     1      24.717   4.192  50.449  1.00  0.00     0.151 C 
HETATM    2  C7  UNL     1      25.263   2.809  50.844  1.00  0.00     0.094 C 
HETATM    3  C8  UNL     1      23.940   2.213  51.260  1.00  0.00     0.067 C 
HETATM    4  C9  UNL     1      23.773   1.182  52.256  1.00  0.00    -0.010 A 
HETATM    5  C10 UNL     1      22.522   0.708  52.559  1.00  0.00     0.013 A 
HETATM    6  C11 UNL     1      22.311  -0.279  53.506  1.00  0.00     0.001 A 
HETATM    7  C12 UNL     1      23.402  -0.808  54.173  1.00  0.00     0.000 A 
HETATM    8  C13 UNL     1      24.664  -0.335  53.872  1.00  0.00     0.001 A 
HETATM    9  C14 UNL     1      24.851   0.649  52.925  1.00  0.00     0.013 A 
HETATM   10  N1  UNL     1      23.020   2.794  50.565  1.00  0.00    -0.173 NA
HETATM   11  N2  UNL     1      23.590   3.757  49.687  1.00  0.00    -0.236 N 
ENDROOT
BRANCH   1  12
HETATM   12  C5  UNL     1      25.756   4.922  49.744  1.00  0.00    -0.033 A 
HETATM   13  C4  UNL     1      25.780   6.271  49.510  1.00  0.00     0.010 A 
HETATM   14  C3  UNL     1      26.807   6.859  48.837  1.00  0.00     0.007 A 
HETATM   15  C2  UNL     1      27.901   6.147  48.339  1.00  0.00    -0.062 A 
HETATM   16  C1  UNL     1      28.996   6.810  47.615  1.00  0.00     0.048 C 
HETATM   17  C19 UNL     1      27.909   4.785  48.556  1.00  0.00     0.007 A 
HETATM   18  C18 UNL     1      26.853   4.217  49.242  1.00  0.00     0.010 A 
ENDBRANCH   1  12
BRANCH  11  19
HETATM   19  C15 UNL     1      22.938   3.994  48.424  1.00  0.00     0.192 A 
HETATM   20  N3  UNL     1      22.780   5.207  47.711  1.00  0.00    -0.198 NA
HETATM   21  C16 UNL     1      22.116   4.982  46.593  1.00  0.00     0.171 A 
HETATM   22  C17 UNL     1      21.573   3.738  46.051  1.00  0.00     0.111 A 
HETATM   23  S1  UNL     1      22.109   2.605  47.414  1.00  0.00    -0.058 SA
BRANCH  21  24
HETATM   24  O1  UNL     1      22.025   6.255  45.982  1.00  0.00    -0.344 OA
HETATM   25  H14 UNL     1      22.406   7.086  46.387  1.00  0.00     0.219 HD
ENDBRANCH  21  24
ENDBRANCH  11  19
TORSDOF 3
ENDMDL
MODEL 5
REMARK VINA RESULT:      -8.7      3.336      6.991
REMARK  3 active torsions:
REMARK  status: ('A' for Active; 'I' for Inactive)
REMARK    1  A    between atoms: C5_5  and  C6_6 
REMARK    2  A    between atoms: N2_16  and  C15_17 
REMARK    3  A    between atoms: C16_19  and  O1_20 
ROOT
HETATM    1  C6  UNL     1      23.227   1.007  51.717  1.00  0.00     0.151 C 
HETATM    2  C7  UNL     1      23.888   0.901  53.102  1.00  0.00     0.094 C 
HETATM    3  C8  UNL     1      25.173   1.603  52.735  1.00  0.00     0.067 C 
HETATM    4  C9  UNL     1      26.455   1.360  53.352  1.00  0.00    -0.010 A 
HETATM    5  C10 UNL     1      27.564   2.056  52.944  1.00  0.00     0.013 A 
HETATM    6  C11 UNL     1      28.813   1.858  53.504  1.00  0.00     0.001 A 
HETATM    7  C12 UNL     1      28.951   0.924  54.515  1.00  0.00     0.000 A 
HETATM    8  C13 UNL     1      27.838   0.220  54.932  1.00  0.00     0.001 A 
HETATM    9  C14 UNL     1      26.602   0.433  54.359  1.00  0.00     0.013 A 
HETATM   10  N1  UNL     1      24.899   2.438  51.789  1.00  0.00    -0.173 NA
HETATM   11  N2  UNL     1      23.518   2.381  51.457  1.00  0.00    -0.236 N 
ENDROOT
BRANCH   1  12
HETATM   12  C5  UNL     1      21.829   0.633  51.835  1.00  0.00    -0.033 A 
HETATM   13  C4  UNL     1      20.901   0.643  50.828  1.00  0.00     0.010 A 
HETATM   14  C3  UNL     1      19.610   0.270  51.045  1.00  0.00     0.007 A 
HETATM   15  C2  UNL     1      19.134  -0.146  52.291  1.00  0.00    -0.062 A 
HETATM   16  C1  UNL     1      17.733  -0.543  52.496  1.00  0.00     0.048 C 
HETATM   17  C19 UNL     1      20.042  -0.168  53.329  1.00  0.00     0.007 A 
HETATM   18  C18 UNL     1      21.345   0.216  53.078  1.00  0.00     0.010 A 
ENDBRANCH   1  12
BRANCH  11  19
HETATM   19  C15 UNL     1      22.879   3.590  51.001  1.00  0.00     0.192 A 
HETATM   20  N3  UNL     1      22.654   4.803  51.696  1.00  0.00    -0.198 NA
HETATM   21  C16 UNL     1      22.032   5.658  50.908  1.00  0.00     0.171 A 
HETATM   22  C17 UNL     1      21.585   5.515  49.523  1.00  0.00     0.111 A 
HETATM   23  S1  UNL     1      22.167   3.779  49.242  1.00  0.00    -0.058 SA
BRANCH  21  24
HETATM   24  O1  UNL     1      21.869   6.812  51.709  1.00  0.00    -0.344 OA
HETATM   25  H14 UNL     1      22.529   7.564  51.729  1.00  0.00     0.219 HD
ENDBRANCH  21  24
ENDBRANCH  11  19
TORSDOF 3
ENDMDL
MODEL 6
REMARK VINA RESULT:      -8.5      1.910      6.374
REMARK  3 active torsions:
REMARK  status: ('A' for Active; 'I' for Inactive)
REMARK    1  A    between atoms: C5_5  and  C6_6 
REMARK    2  A    between atoms: N2_16  and  C15_17 
REMARK    3  A    between atoms: C16_19  and  O1_20 
ROOT
HETATM    1  C6  UNL     1      24.404   1.971  52.547  1.00  0.00     0.151 C 
HETATM    2  C7  UNL     1      23.996   2.354  51.114  1.00  0.00     0.094 C 
HETATM    3  C8  UNL     1      25.227   3.167  50.795  1.00  0.00     0.067 C 
HETATM    4  C9  UNL     1      25.270   4.278  49.874  1.00  0.00    -0.010 A 
HETATM    5  C10 UNL     1      26.445   4.951  49.654  1.00  0.00     0.013 A 
HETATM    6  C11 UNL     1      26.536   6.021  48.781  1.00  0.00     0.001 A 
HETATM    7  C12 UNL     1      25.401   6.427  48.103  1.00  0.00     0.000 A 
HETATM    8  C13 UNL     1      24.215   5.753  48.319  1.00  0.00     0.001 A 
HETATM    9  C14 UNL     1      24.146   4.689  49.194  1.00  0.00     0.013 A 
HETATM   10  N1  UNL     1      26.200   2.683  51.491  1.00  0.00    -0.173 NA
HETATM   11  N2  UNL     1      25.752   1.587  52.280  1.00  0.00    -0.236 N 
ENDROOT
BRANCH   1  12
HETATM   12  C5  UNL     1      23.501   0.941  53.031  1.00  0.00    -0.033 A 
HETATM   13  C4  UNL     1      23.772   0.025  54.012  1.00  0.00     0.010 A 
HETATM   14  C3  UNL     1      22.851  -0.902  54.395  1.00  0.00     0.007 A 
HETATM   15  C2  UNL     1      21.578  -0.992  53.829  1.00  0.00    -0.062 A 
HETATM   16  C1  UNL     1      20.603  -2.005  54.263  1.00  0.00     0.048 C 
HETATM   17  C19 UNL     1      21.270  -0.084  52.837  1.00  0.00     0.007 A 
HETATM   18  C18 UNL     1      22.225   0.844  52.470  1.00  0.00     0.010 A 
ENDBRANCH   1  12
BRANCH  11  19
HETATM   19  C15 UNL     1      26.686   0.524  52.556  1.00  0.00     0.192 A 
HETATM   20  N3  UNL     1      26.566  -0.864  52.298  1.00  0.00    -0.198 NA
HETATM   21  C16 UNL     1      27.652  -1.487  52.712  1.00  0.00     0.171 A 
HETATM   22  C17 UNL     1      28.859  -0.963  53.348  1.00  0.00     0.111 A 
HETATM   23  S1  UNL     1      28.377   0.824  53.384  1.00  0.00    -0.058 SA
BRANCH  21  24
HETATM   24  O1  UNL     1      27.410  -2.847  52.402  1.00  0.00    -0.344 OA
HETATM   25  H14 UNL     1      27.408  -3.573  53.089  1.00  0.00     0.219 HD
ENDBRANCH  21  24
ENDBRANCH  11  19
TORSDOF 3
ENDMDL
MODEL 7
REMARK VINA RESULT:      -7.9      3.532      5.440
REMARK  3 active torsions:
REMARK  status: ('A' for Active; 'I' for Inactive)
REMARK    1  A    between atoms: C5_5  and  C6_6 
REMARK    2  A    between atoms: N2_16  and  C15_17 
REMARK    3  A    between atoms: C16_19  and  O1_20 
ROOT
HETATM    1  C6  UNL     1      21.983   1.278  52.762  1.00  0.00     0.151 C 
HETATM    2  C7  UNL     1      21.485  -0.176  52.821  1.00  0.00     0.094 C 
HETATM    3  C8  UNL     1      20.110   0.088  52.256  1.00  0.00     0.067 C 
HETATM    4  C9  UNL     1      18.928  -0.682  52.559  1.00  0.00    -0.010 A 
HETATM    5  C10 UNL     1      17.724  -0.358  51.988  1.00  0.00     0.013 A 
HETATM    6  C11 UNL     1      16.564  -1.066  52.247  1.00  0.00     0.001 A 
HETATM    7  C12 UNL     1      16.619  -2.142  53.114  1.00  0.00     0.000 A 
HETATM    8  C13 UNL     1      17.828  -2.475  53.691  1.00  0.00     0.001 A 
HETATM    9  C14 UNL     1      18.973  -1.755  53.420  1.00  0.00     0.013 A 
HETATM   10  N1  UNL     1      20.206   1.110  51.473  1.00  0.00    -0.173 NA
HETATM   11  N2  UNL     1      21.544   1.590  51.439  1.00  0.00    -0.236 N 
ENDROOT
BRANCH   1  12
HETATM   12  C5  UNL     1      23.414   1.294  53.010  1.00  0.00    -0.033 A 
HETATM   13  C4  UNL     1      24.191   2.407  53.192  1.00  0.00     0.010 A 
HETATM   14  C3  UNL     1      25.530   2.311  53.421  1.00  0.00     0.007 A 
HETATM   15  C2  UNL     1      26.207   1.092  53.488  1.00  0.00    -0.062 A 
HETATM   16  C1  UNL     1      27.655   1.020  53.737  1.00  0.00     0.048 C 
HETATM   17  C19 UNL     1      25.455  -0.051  53.310  1.00  0.00     0.007 A 
HETATM   18  C18 UNL     1      24.100   0.078  53.078  1.00  0.00     0.010 A 
ENDBRANCH   1  12
BRANCH  11  19
HETATM   19  C15 UNL     1      22.020   2.191  50.218  1.00  0.00     0.192 A 
HETATM   20  N3  UNL     1      22.821   3.344  50.039  1.00  0.00    -0.198 NA
HETATM   21  C16 UNL     1      23.025   3.548  48.752  1.00  0.00     0.171 A 
HETATM   22  C17 UNL     1      22.562   2.791  47.590  1.00  0.00     0.111 A 
HETATM   23  S1  UNL     1      21.618   1.480  48.494  1.00  0.00    -0.058 SA
BRANCH  21  24
HETATM   24  O1  UNL     1      23.827   4.713  48.708  1.00  0.00    -0.344 OA
HETATM   25  H14 UNL     1      23.923   5.341  49.481  1.00  0.00     0.219 HD
ENDBRANCH  21  24
ENDBRANCH  11  19
TORSDOF 3
ENDMDL
MODEL 8
REMARK VINA RESULT:      -7.7      1.745      2.322
REMARK  3 active torsions:
REMARK  status: ('A' for Active; 'I' for Inactive)
REMARK    1  A    between atoms: C5_5  and  C6_6 
REMARK    2  A    between atoms: N2_16  and  C15_17 
REMARK    3  A    between atoms: C16_19  and  O1_20 
ROOT
HETATM    1  C6  UNL     1      22.657   1.319  51.213  1.00  0.00     0.151 C 
HETATM    2  C7  UNL     1      21.272   1.621  51.812  1.00  0.00     0.094 C 
HETATM    3  C8  UNL     1      21.081   0.287  52.490  1.00  0.00     0.067 C 
HETATM    4  C9  UNL     1      19.805  -0.340  52.741  1.00  0.00    -0.010 A 
HETATM    5  C10 UNL     1      19.743  -1.558  53.368  1.00  0.00     0.013 A 
HETATM    6  C11 UNL     1      18.544  -2.198  53.631  1.00  0.00     0.001 A 
HETATM    7  C12 UNL     1      17.364  -1.587  53.248  1.00  0.00     0.000 A 
HETATM    8  C13 UNL     1      17.420  -0.359  52.617  1.00  0.00     0.001 A 
HETATM    9  C14 UNL     1      18.625   0.260  52.364  1.00  0.00     0.013 A 
HETATM   10  N1  UNL     1      22.253  -0.165  52.789  1.00  0.00    -0.173 NA
HETATM   11  N2  UNL     1      23.261   0.749  52.375  1.00  0.00    -0.236 N 
ENDROOT
BRANCH   1  12
HETATM   12  C5  UNL     1      23.227   2.554  50.704  1.00  0.00    -0.033 A 
HETATM   13  C4  UNL     1      24.056   2.675  49.621  1.00  0.00     0.010 A 
HETATM   14  C3  UNL     1      24.536   3.886  49.223  1.00  0.00     0.007 A 
HETATM   15  C2  UNL     1      24.227   5.081  49.876  1.00  0.00    -0.062 A 
HETATM   16  C1  UNL     1      24.761   6.375  49.424  1.00  0.00     0.048 C 
HETATM   17  C19 UNL     1      23.393   4.996  50.972  1.00  0.00     0.007 A 
HETATM   18  C18 UNL     1      22.922   3.754  51.351  1.00  0.00     0.010 A 
ENDBRANCH   1  12
BRANCH  11  19
HETATM   19  C15 UNL     1      24.470   0.827  53.156  1.00  0.00     0.192 A 
HETATM   20  N3  UNL     1      25.418   1.876  53.239  1.00  0.00    -0.198 NA
HETATM   21  C16 UNL     1      26.382   1.537  54.073  1.00  0.00     0.171 A 
HETATM   22  C17 UNL     1      26.572   0.316  54.853  1.00  0.00     0.111 A 
HETATM   23  S1  UNL     1      25.050  -0.583  54.302  1.00  0.00    -0.058 SA
BRANCH  21  24
HETATM   24  O1  UNL     1      27.252   2.653  54.068  1.00  0.00    -0.344 OA
HETATM   25  H14 UNL     1      28.159   2.639  53.647  1.00  0.00     0.219 HD
ENDBRANCH  21  24
ENDBRANCH  11  19
TORSDOF 3
ENDMDL
MODEL 9
REMARK VINA RESULT:      -7.6      6.837     10.445
REMARK  3 active torsions:
REMARK  status: ('A' for Active; 'I' for Inactive)
REMARK    1  A    between atoms: C5_5  and  C6_6 
REMARK    2  A    between atoms: N2_16  and  C15_17 
REMARK    3  A    between atoms: C16_19  and  O1_20 
ROOT
HETATM    1  C6  UNL     1      29.242   6.398  47.463  1.00  0.00     0.151 C 
HETATM    2  C7  UNL     1      30.249   5.450  48.136  1.00  0.00     0.094 C 
HETATM    3  C8  UNL     1      31.431   5.807  47.268  1.00  0.00     0.067 C 
HETATM    4  C9  UNL     1      32.523   4.919  46.949  1.00  0.00    -0.010 A 
HETATM    5  C10 UNL     1      33.552   5.346  46.149  1.00  0.00     0.013 A 
HETATM    6  C11 UNL     1      34.621   4.532  45.816  1.00  0.00     0.001 A 
HETATM    7  C12 UNL     1      34.653   3.239  46.308  1.00  0.00     0.000 A 
HETATM    8  C13 UNL     1      33.621   2.804  47.115  1.00  0.00     0.001 A 
HETATM    9  C14 UNL     1      32.565   3.632  47.434  1.00  0.00     0.013 A 
HETATM   10  N1  UNL     1      31.270   7.029  46.882  1.00  0.00    -0.173 NA
HETATM   11  N2  UNL     1      30.064   7.565  47.411  1.00  0.00    -0.236 N 
ENDROOT
BRANCH   1  12
HETATM   12  C5  UNL     1      28.042   6.464  48.280  1.00  0.00    -0.033 A 
HETATM   13  C4  UNL     1      27.468   7.601  48.782  1.00  0.00     0.010 A 
HETATM   14  C3  UNL     1      26.337   7.553  49.538  1.00  0.00     0.007 A 
HETATM   15  C2  UNL     1      25.682   6.362  49.858  1.00  0.00    -0.062 A 
HETATM   16  C1  UNL     1      24.461   6.341  50.679  1.00  0.00     0.048 C 
HETATM   17  C19 UNL     1      26.234   5.196  49.368  1.00  0.00     0.007 A 
HETATM   18  C18 UNL     1      27.382   5.277  48.604  1.00  0.00     0.010 A 
ENDBRANCH   1  12
BRANCH  11  19
HETATM   19  C15 UNL     1      30.020   8.975  47.706  1.00  0.00     0.192 A 
HETATM   20  N3  UNL     1      30.464   9.664  48.861  1.00  0.00    -0.198 NA
HETATM   21  C16 UNL     1      30.233  10.955  48.724  1.00  0.00     0.171 A 
HETATM   22  C17 UNL     1      29.626  11.695  47.619  1.00  0.00     0.111 A 
HETATM   23  S1  UNL     1      29.295  10.260  46.497  1.00  0.00    -0.058 SA
BRANCH  21  24
HETATM   24  O1  UNL     1      30.715  11.523  49.927  1.00  0.00    -0.344 OA
HETATM   25  H14 UNL     1      31.684  11.540  50.175  1.00  0.00     0.219 HD
ENDBRANCH  21  24
ENDBRANCH  11  19
TORSDOF 3
ENDMDL
