MODEL 1
REMARK VINA RESULT:      -9.3      0.000      0.000
REMARK  4 active torsions:
REMARK  status: ('A' for Active; 'I' for Inactive)
REMARK    1  A    between atoms: C2_3  and  C3_4 
REMARK    2  A    between atoms: C3_4  and  C4_5 
REMARK    3  A    between atoms: C6_7  and  C7_8 
REMARK    4  A    between atoms: N2_19  and  C15_20 
ROOT
HETATM    1 CL1  UNL     1      27.730   4.785  48.555  1.00  0.00    -0.230 Cl
HETATM    2  C1  UNL     1      26.585   4.037  49.687  1.00  0.00     0.213 C 
HETATM    3  C2  UNL     1      25.680   3.531  50.552  1.00  0.00    -0.013 C 
ENDROOT
BRANCH   3   4
HETATM    4  C3  UNL     1      25.759   2.125  50.973  1.00  0.00     0.055 C 
BRANCH   4   5
HETATM    5  C4  UNL     1      25.862   1.959  52.480  1.00  0.00     0.119 C 
HETATM    6  C5  UNL     1      24.428   2.068  52.993  1.00  0.00     0.089 C 
HETATM    7  C6  UNL     1      23.989   0.650  53.060  1.00  0.00     0.067 C 
HETATM    8  N1  UNL     1      25.022  -0.113  52.990  1.00  0.00    -0.175 NA
HETATM    9  N2  UNL     1      26.211   0.613  52.876  1.00  0.00    -0.264 N 
BRANCH   7  10
HETATM   10  C7  UNL     1      22.604   0.214  53.184  1.00  0.00    -0.007 A 
HETATM   11  C8  UNL     1      22.222  -0.690  54.154  1.00  0.00     0.016 A 
HETATM   12  C9  UNL     1      20.931  -1.127  54.307  1.00  0.00     0.040 A 
HETATM   13  C10 UNL     1      19.995  -0.617  53.429  1.00  0.00     0.102 A 
HETATM   14  C11 UNL     1      20.300   0.297  52.423  1.00  0.00     0.103 A 
HETATM   15  O2  UNL     1      18.674  -1.001  53.507  1.00  0.00    -0.346 OA
HETATM   16  C12 UNL     1      21.631   0.695  52.331  1.00  0.00     0.053 A 
HETATM   17  O1  UNL     1      19.382   0.809  51.549  1.00  0.00    -0.346 OA
HETATM   18  C13 UNL     1      18.017   0.467  51.695  1.00  0.00     0.202 C 
HETATM   19  C14 UNL     1      17.835  -0.883  52.358  1.00  0.00     0.202 C 
ENDBRANCH   7  10
BRANCH   9  20
HETATM   20  C15 UNL     1      27.499   0.060  53.122  1.00  0.00     0.053 A 
HETATM   21  C16 UNL     1      28.524   0.904  53.492  1.00  0.00     0.031 A 
HETATM   22  C17 UNL     1      29.782   0.376  53.734  1.00  0.00     0.002 A 
HETATM   23  C18 UNL     1      30.008  -0.985  53.606  1.00  0.00     0.000 A 
HETATM   24  C19 UNL     1      29.008  -1.852  53.240  1.00  0.00     0.002 A 
HETATM   25  C20 UNL     1      27.752  -1.292  53.002  1.00  0.00     0.031 A 
ENDBRANCH   9  20
ENDBRANCH   4   5
ENDBRANCH   3   4
TORSDOF 4
ENDMDL
MODEL 2
REMARK VINA RESULT:      -8.8      1.166      2.081
REMARK  4 active torsions:
REMARK  status: ('A' for Active; 'I' for Inactive)
REMARK    1  A    between atoms: C2_3  and  C3_4 
REMARK    2  A    between atoms: C3_4  and  C4_5 
REMARK    3  A    between atoms: C6_7  and  C7_8 
REMARK    4  A    between atoms: N2_19  and  C15_20 
ROOT
HETATM    1 CL1  UNL     1      27.666   6.175  48.263  1.00  0.00    -0.230 Cl
HETATM    2  C1  UNL     1      26.650   4.971  49.081  1.00  0.00     0.213 C 
HETATM    3  C2  UNL     1      25.820   4.097  49.690  1.00  0.00    -0.013 C 
ENDROOT
BRANCH   3   4
HETATM    4  C3  UNL     1      26.343   2.843  50.252  1.00  0.00     0.055 C 
BRANCH   4   5
HETATM    5  C4  UNL     1      26.048   2.686  51.734  1.00  0.00     0.119 C 
HETATM    6  C5  UNL     1      24.538   2.870  51.863  1.00  0.00     0.089 C 
HETATM    7  C6  UNL     1      24.027   1.476  51.810  1.00  0.00     0.067 C 
HETATM    8  N1  UNL     1      25.004   0.662  52.004  1.00  0.00    -0.175 NA
HETATM    9  N2  UNL     1      26.217   1.328  52.201  1.00  0.00    -0.264 N 
BRANCH   7  10
HETATM   10  C7  UNL     1      22.636   1.109  51.573  1.00  0.00    -0.007 A 
HETATM   11  C8  UNL     1      22.026   1.359  50.360  1.00  0.00     0.016 A 
HETATM   12  C9  UNL     1      20.722   1.030  50.093  1.00  0.00     0.040 A 
HETATM   13  C10 UNL     1      20.014   0.423  51.112  1.00  0.00     0.102 A 
HETATM   14  C11 UNL     1      20.557   0.138  52.363  1.00  0.00     0.103 A 
HETATM   15  O2  UNL     1      18.697   0.059  50.934  1.00  0.00    -0.346 OA
HETATM   16  C12 UNL     1      21.887   0.500  52.558  1.00  0.00     0.053 A 
HETATM   17  O1  UNL     1      19.866  -0.464  53.378  1.00  0.00    -0.346 OA
HETATM   18  C13 UNL     1      18.541  -0.904  53.152  1.00  0.00     0.202 C 
HETATM   19  C14 UNL     1      17.848  -0.099  52.071  1.00  0.00     0.202 C 
ENDBRANCH   7  10
BRANCH   9  20
HETATM   20  C15 UNL     1      27.370   0.714  52.766  1.00  0.00     0.053 A 
HETATM   21  C16 UNL     1      27.471  -0.661  52.739  1.00  0.00     0.031 A 
HETATM   22  C17 UNL     1      28.588  -1.269  53.287  1.00  0.00     0.002 A 
HETATM   23  C18 UNL     1      29.594  -0.505  53.856  1.00  0.00     0.000 A 
HETATM   24  C19 UNL     1      29.524   0.866  53.898  1.00  0.00     0.002 A 
HETATM   25  C20 UNL     1      28.386   1.451  53.339  1.00  0.00     0.031 A 
ENDBRANCH   9  20
ENDBRANCH   4   5
ENDBRANCH   3   4
TORSDOF 4
ENDMDL
MODEL 3
REMARK VINA RESULT:      -8.2      3.672      7.654
REMARK  4 active torsions:
REMARK  status: ('A' for Active; 'I' for Inactive)
REMARK    1  A    between atoms: C2_3  and  C3_4 
REMARK    2  A    between atoms: C3_4  and  C4_5 
REMARK    3  A    between atoms: C6_7  and  C7_8 
REMARK    4  A    between atoms: N2_19  and  C15_20 
ROOT
HETATM    1 CL1  UNL     1      19.351   3.591  48.609  1.00  0.00    -0.230 Cl
HETATM    2  C1  UNL     1      20.299   4.067  50.033  1.00  0.00     0.213 C 
HETATM    3  C2  UNL     1      20.992   4.496  51.109  1.00  0.00    -0.013 C 
ENDROOT
BRANCH   3   4
HETATM    4  C3  UNL     1      21.859   3.569  51.853  1.00  0.00     0.055 C 
BRANCH   4   5
HETATM    5  C4  UNL     1      22.031   2.229  51.158  1.00  0.00     0.119 C 
HETATM    6  C5  UNL     1      23.540   2.052  51.002  1.00  0.00     0.089 C 
HETATM    7  C6  UNL     1      23.909   1.260  52.203  1.00  0.00     0.067 C 
HETATM    8  N1  UNL     1      22.843   0.759  52.720  1.00  0.00    -0.175 NA
HETATM    9  N2  UNL     1      21.693   1.108  52.006  1.00  0.00    -0.264 N 
BRANCH   7  10
HETATM   10  C7  UNL     1      25.269   1.090  52.701  1.00  0.00    -0.007 A 
HETATM   11  C8  UNL     1      25.933   2.121  53.335  1.00  0.00     0.016 A 
HETATM   12  C9  UNL     1      27.211   2.006  53.819  1.00  0.00     0.040 A 
HETATM   13  C10 UNL     1      27.832   0.785  53.646  1.00  0.00     0.102 A 
HETATM   14  C11 UNL     1      27.231  -0.303  53.018  1.00  0.00     0.103 A 
HETATM   15  O2  UNL     1      29.117   0.578  54.100  1.00  0.00    -0.346 OA
HETATM   16  C12 UNL     1      25.932  -0.110  52.553  1.00  0.00     0.053 A 
HETATM   17  O1  UNL     1      27.835  -1.516  52.841  1.00  0.00    -0.346 OA
HETATM   18  C13 UNL     1      29.123  -1.736  53.385  1.00  0.00     0.202 C 
HETATM   19  C14 UNL     1      29.915  -0.452  53.516  1.00  0.00     0.202 C 
ENDBRANCH   7  10
BRANCH   9  20
HETATM   20  C15 UNL     1      20.447   0.433  52.141  1.00  0.00     0.053 A 
HETATM   21  C16 UNL     1      19.512   0.559  51.136  1.00  0.00     0.031 A 
HETATM   22  C17 UNL     1      18.295  -0.093  51.257  1.00  0.00     0.002 A 
HETATM   23  C18 UNL     1      18.022  -0.864  52.375  1.00  0.00     0.000 A 
HETATM   24  C19 UNL     1      18.932  -1.011  53.392  1.00  0.00     0.002 A 
HETATM   25  C20 UNL     1      20.148  -0.342  53.244  1.00  0.00     0.031 A 
ENDBRANCH   9  20
ENDBRANCH   4   5
ENDBRANCH   3   4
TORSDOF 4
ENDMDL
MODEL 4
REMARK VINA RESULT:      -8.2      3.588      7.754
REMARK  4 active torsions:
REMARK  status: ('A' for Active; 'I' for Inactive)
REMARK    1  A    between atoms: C2_3  and  C3_4 
REMARK    2  A    between atoms: C3_4  and  C4_5 
REMARK    3  A    between atoms: C6_7  and  C7_8 
REMARK    4  A    between atoms: N2_19  and  C15_20 
ROOT
HETATM    1 CL1  UNL     1      20.077   5.251  48.776  1.00  0.00    -0.230 Cl
HETATM    2  C1  UNL     1      19.905   4.436  50.343  1.00  0.00     0.213 C 
HETATM    3  C2  UNL     1      19.708   3.844  51.541  1.00  0.00    -0.013 C 
ENDROOT
BRANCH   3   4
HETATM    4  C3  UNL     1      20.752   2.994  52.131  1.00  0.00     0.055 C 
BRANCH   4   5
HETATM    5  C4  UNL     1      20.913   1.664  51.413  1.00  0.00     0.119 C 
HETATM    6  C5  UNL     1      22.418   1.412  51.374  1.00  0.00     0.089 C 
HETATM    7  C6  UNL     1      22.647   0.571  52.577  1.00  0.00     0.067 C 
HETATM    8  N1  UNL     1      21.518   0.115  52.992  1.00  0.00    -0.175 NA
HETATM    9  N2  UNL     1      20.450   0.542  52.198  1.00  0.00    -0.264 N 
BRANCH   7  10
HETATM   10  C7  UNL     1      23.951   0.317  53.178  1.00  0.00    -0.007 A 
HETATM   11  C8  UNL     1      24.102  -0.595  54.202  1.00  0.00     0.016 A 
HETATM   12  C9  UNL     1      25.308  -0.866  54.796  1.00  0.00     0.040 A 
HETATM   13  C10 UNL     1      26.403  -0.171  54.320  1.00  0.00     0.102 A 
HETATM   14  C11 UNL     1      26.334   0.765  53.290  1.00  0.00     0.103 A 
HETATM   15  O2  UNL     1      27.655  -0.378  54.857  1.00  0.00    -0.346 OA
HETATM   16  C12 UNL     1      25.075   0.985  52.737  1.00  0.00     0.053 A 
HETATM   17  O1  UNL     1      27.410   1.457  52.811  1.00  0.00    -0.346 OA
HETATM   18  C13 UNL     1      28.701   1.174  53.318  1.00  0.00     0.202 C 
HETATM   19  C14 UNL     1      28.652   0.636  54.733  1.00  0.00     0.202 C 
ENDBRANCH   7  10
BRANCH   9  20
HETATM   20  C15 UNL     1      19.164  -0.069  52.212  1.00  0.00     0.053 A 
HETATM   21  C16 UNL     1      18.850  -0.930  53.242  1.00  0.00     0.031 A 
HETATM   22  C17 UNL     1      17.601  -1.531  53.266  1.00  0.00     0.002 A 
HETATM   23  C18 UNL     1      16.678  -1.269  52.266  1.00  0.00     0.000 A 
HETATM   24  C19 UNL     1      16.961  -0.416  51.228  1.00  0.00     0.002 A 
HETATM   25  C20 UNL     1      18.226   0.174  51.230  1.00  0.00     0.031 A 
ENDBRANCH   9  20
ENDBRANCH   4   5
ENDBRANCH   3   4
TORSDOF 4
ENDMDL
MODEL 5
REMARK VINA RESULT:      -8.2      3.458      7.493
REMARK  4 active torsions:
REMARK  status: ('A' for Active; 'I' for Inactive)
REMARK    1  A    between atoms: C2_3  and  C3_4 
REMARK    2  A    between atoms: C3_4  and  C4_5 
REMARK    3  A    between atoms: C6_7  and  C7_8 
REMARK    4  A    between atoms: N2_19  and  C15_20 
ROOT
HETATM    1 CL1  UNL     1      21.967   5.078  48.280  1.00  0.00    -0.230 Cl
HETATM    2  C1  UNL     1      21.731   4.808  50.019  1.00  0.00     0.213 C 
HETATM    3  C2  UNL     1      21.504   4.657  51.341  1.00  0.00    -0.013 C 
ENDROOT
BRANCH   3   4
HETATM    4  C3  UNL     1      22.187   3.596  52.096  1.00  0.00     0.055 C 
BRANCH   4   5
HETATM    5  C4  UNL     1      22.297   2.292  51.323  1.00  0.00     0.119 C 
HETATM    6  C5  UNL     1      23.795   2.070  51.125  1.00  0.00     0.089 C 
HETATM    7  C6  UNL     1      24.158   1.199  52.272  1.00  0.00     0.067 C 
HETATM    8  N1  UNL     1      23.084   0.708  52.783  1.00  0.00    -0.175 NA
HETATM    9  N2  UNL     1      21.934   1.137  52.114  1.00  0.00    -0.264 N 
BRANCH   7  10
HETATM   10  C7  UNL     1      25.520   0.953  52.731  1.00  0.00    -0.007 A 
HETATM   11  C8  UNL     1      26.289   1.966  53.264  1.00  0.00     0.016 A 
HETATM   12  C9  UNL     1      27.574   1.780  53.708  1.00  0.00     0.040 A 
HETATM   13  C10 UNL     1      28.088   0.503  53.601  1.00  0.00     0.102 A 
HETATM   14  C11 UNL     1      27.376  -0.573  53.075  1.00  0.00     0.103 A 
HETATM   15  O2  UNL     1      29.370   0.223  54.021  1.00  0.00    -0.346 OA
HETATM   16  C12 UNL     1      26.079  -0.306  52.646  1.00  0.00     0.053 A 
HETATM   17  O1  UNL     1      27.875  -1.841  52.964  1.00  0.00    -0.346 OA
HETATM   18  C13 UNL     1      29.163  -2.128  53.474  1.00  0.00     0.202 C 
HETATM   19  C14 UNL     1      30.059  -0.907  53.484  1.00  0.00     0.202 C 
ENDBRANCH   7  10
BRANCH   9  20
HETATM   20  C15 UNL     1      20.668   0.501  52.237  1.00  0.00     0.053 A 
HETATM   21  C16 UNL     1      20.450  -0.346  53.304  1.00  0.00     0.031 A 
HETATM   22  C17 UNL     1      19.221  -0.971  53.434  1.00  0.00     0.002 A 
HETATM   23  C18 UNL     1      18.219  -0.748  52.502  1.00  0.00     0.000 A 
HETATM   24  C19 UNL     1      18.404   0.090  51.430  1.00  0.00     0.002 A 
HETATM   25  C20 UNL     1      19.653   0.705  51.324  1.00  0.00     0.031 A 
ENDBRANCH   9  20
ENDBRANCH   4   5
ENDBRANCH   3   4
TORSDOF 4
ENDMDL
MODEL 6
REMARK VINA RESULT:      -8.0      3.135      5.559
REMARK  4 active torsions:
REMARK  status: ('A' for Active; 'I' for Inactive)
REMARK    1  A    between atoms: C2_3  and  C3_4 
REMARK    2  A    between atoms: C3_4  and  C4_5 
REMARK    3  A    between atoms: C6_7  and  C7_8 
REMARK    4  A    between atoms: N2_19  and  C15_20 
ROOT
HETATM    1 CL1  UNL     1      24.320   7.993  46.051  1.00  0.00    -0.230 Cl
HETATM    2  C1  UNL     1      23.394   6.841  47.033  1.00  0.00     0.213 C 
HETATM    3  C2  UNL     1      22.630   5.998  47.760  1.00  0.00    -0.013 C 
ENDROOT
BRANCH   3   4
HETATM    4  C3  UNL     1      23.248   4.901  48.520  1.00  0.00     0.055 C 
BRANCH   4   5
HETATM    5  C4  UNL     1      24.131   5.389  49.657  1.00  0.00     0.119 C 
HETATM    6  C5  UNL     1      23.610   4.674  50.902  1.00  0.00     0.089 C 
HETATM    7  C6  UNL     1      24.486   3.478  50.990  1.00  0.00     0.067 C 
HETATM    8  N1  UNL     1      25.511   3.650  50.232  1.00  0.00    -0.175 NA
HETATM    9  N2  UNL     1      25.483   4.883  49.575  1.00  0.00    -0.264 N 
BRANCH   7  10
HETATM   10  C7  UNL     1      24.210   2.304  51.810  1.00  0.00    -0.007 A 
HETATM   11  C8  UNL     1      25.179   1.352  52.047  1.00  0.00     0.016 A 
HETATM   12  C9  UNL     1      24.964   0.234  52.812  1.00  0.00     0.040 A 
HETATM   13  C10 UNL     1      23.702   0.087  53.355  1.00  0.00     0.102 A 
HETATM   14  C11 UNL     1      22.670   1.003  53.163  1.00  0.00     0.103 A 
HETATM   15  O2  UNL     1      23.395  -1.005  54.136  1.00  0.00    -0.346 OA
HETATM   16  C12 UNL     1      22.965   2.113  52.375  1.00  0.00     0.053 A 
HETATM   17  O1  UNL     1      21.418   0.869  53.695  1.00  0.00    -0.346 OA
HETATM   18  C13 UNL     1      21.143  -0.217  54.560  1.00  0.00     0.202 C 
HETATM   19  C14 UNL     1      22.033  -1.410  54.279  1.00  0.00     0.202 C 
ENDBRANCH   7  10
BRANCH   9  20
HETATM   20  C15 UNL     1      26.623   5.473  48.960  1.00  0.00     0.053 A 
HETATM   21  C16 UNL     1      27.744   4.697  48.755  1.00  0.00     0.031 A 
HETATM   22  C17 UNL     1      28.859   5.262  48.158  1.00  0.00     0.002 A 
HETATM   23  C18 UNL     1      28.848   6.592  47.770  1.00  0.00     0.000 A 
HETATM   24  C19 UNL     1      27.748   7.391  47.959  1.00  0.00     0.002 A 
HETATM   25  C20 UNL     1      26.639   6.795  48.564  1.00  0.00     0.031 A 
ENDBRANCH   9  20
ENDBRANCH   4   5
ENDBRANCH   3   4
TORSDOF 4
ENDMDL
MODEL 7
REMARK VINA RESULT:      -7.8      4.604      8.147
REMARK  4 active torsions:
REMARK  status: ('A' for Active; 'I' for Inactive)
REMARK    1  A    between atoms: C2_3  and  C3_4 
REMARK    2  A    between atoms: C3_4  and  C4_5 
REMARK    3  A    between atoms: C6_7  and  C7_8 
REMARK    4  A    between atoms: N2_19  and  C15_20 
ROOT
HETATM    1 CL1  UNL     1      19.361   2.382  49.449  1.00  0.00    -0.230 Cl
HETATM    2  C1  UNL     1      20.639   2.740  50.627  1.00  0.00     0.213 C 
HETATM    3  C2  UNL     1      21.570   2.983  51.575  1.00  0.00    -0.013 C 
ENDROOT
BRANCH   3   4
HETATM    4  C3  UNL     1      22.842   3.630  51.219  1.00  0.00     0.055 C 
BRANCH   4   5
HETATM    5  C4  UNL     1      23.762   2.729  50.411  1.00  0.00     0.119 C 
HETATM    6  C5  UNL     1      24.330   3.622  49.311  1.00  0.00     0.089 C 
HETATM    7  C6  UNL     1      25.614   4.091  49.891  1.00  0.00     0.067 C 
HETATM    8  N1  UNL     1      25.914   3.352  50.900  1.00  0.00    -0.175 NA
HETATM    9  N2  UNL     1      24.960   2.357  51.132  1.00  0.00    -0.264 N 
BRANCH   7  10
HETATM   10  C7  UNL     1      26.395   5.213  49.385  1.00  0.00    -0.007 A 
HETATM   11  C8  UNL     1      27.532   5.012  48.630  1.00  0.00     0.016 A 
HETATM   12  C9  UNL     1      28.295   6.037  48.133  1.00  0.00     0.040 A 
HETATM   13  C10 UNL     1      27.875   7.321  48.423  1.00  0.00     0.102 A 
HETATM   14  C11 UNL     1      26.740   7.607  49.178  1.00  0.00     0.103 A 
HETATM   15  O2  UNL     1      28.581   8.412  47.966  1.00  0.00    -0.346 OA
HETATM   16  C12 UNL     1      26.016   6.514  49.647  1.00  0.00     0.053 A 
HETATM   17  O1  UNL     1      26.315   8.873  49.472  1.00  0.00    -0.346 OA
HETATM   18  C13 UNL     1      27.005   9.982  48.927  1.00  0.00     0.202 C 
HETATM   19  C14 UNL     1      28.458   9.665  48.641  1.00  0.00     0.202 C 
ENDBRANCH   7  10
BRANCH   9  20
HETATM   20  C15 UNL     1      25.196   1.212  51.942  1.00  0.00     0.053 A 
HETATM   21  C16 UNL     1      26.424   0.589  51.870  1.00  0.00     0.031 A 
HETATM   22  C17 UNL     1      26.665  -0.527  52.654  1.00  0.00     0.002 A 
HETATM   23  C18 UNL     1      25.683  -1.014  53.502  1.00  0.00     0.000 A 
HETATM   24  C19 UNL     1      24.450  -0.417  53.597  1.00  0.00     0.002 A 
HETATM   25  C20 UNL     1      24.236   0.706  52.795  1.00  0.00     0.031 A 
ENDBRANCH   9  20
ENDBRANCH   4   5
ENDBRANCH   3   4
TORSDOF 4
ENDMDL
MODEL 8
REMARK VINA RESULT:      -7.6      4.840      7.833
REMARK  4 active torsions:
REMARK  status: ('A' for Active; 'I' for Inactive)
REMARK    1  A    between atoms: C2_3  and  C3_4 
REMARK    2  A    between atoms: C3_4  and  C4_5 
REMARK    3  A    between atoms: C6_7  and  C7_8 
REMARK    4  A    between atoms: N2_19  and  C15_20 
ROOT
HETATM    1 CL1  UNL     1      16.891   3.037  51.573  1.00  0.00    -0.230 Cl
HETATM    2  C1  UNL     1      18.554   3.593  51.294  1.00  0.00     0.213 C 
HETATM    3  C2  UNL     1      19.793   4.060  51.030  1.00  0.00    -0.013 C 
ENDROOT
BRANCH   3   4
HETATM    4  C3  UNL     1      20.949   3.577  51.799  1.00  0.00     0.055 C 
BRANCH   4   5
HETATM    5  C4  UNL     1      21.603   2.350  51.184  1.00  0.00     0.119 C 
HETATM    6  C5  UNL     1      22.394   2.877  49.989  1.00  0.00     0.089 C 
HETATM    7  C6  UNL     1      23.753   3.081  50.552  1.00  0.00     0.067 C 
HETATM    8  N1  UNL     1      23.840   2.460  51.676  1.00  0.00    -0.175 NA
HETATM    9  N2  UNL     1      22.654   1.800  52.009  1.00  0.00    -0.264 N 
BRANCH   7  10
HETATM   10  C7  UNL     1      24.806   3.866  49.919  1.00  0.00    -0.007 A 
HETATM   11  C8  UNL     1      26.094   3.382  49.813  1.00  0.00     0.016 A 
HETATM   12  C9  UNL     1      27.115   4.084  49.225  1.00  0.00     0.040 A 
HETATM   13  C10 UNL     1      26.801   5.334  48.727  1.00  0.00     0.102 A 
HETATM   14  C11 UNL     1      25.527   5.893  48.795  1.00  0.00     0.103 A 
HETATM   15  O2  UNL     1      27.764   6.111  48.120  1.00  0.00    -0.346 OA
HETATM   16  C12 UNL     1      24.543   5.119  49.405  1.00  0.00     0.053 A 
HETATM   17  O1  UNL     1      25.205   7.127  48.304  1.00  0.00    -0.346 OA
HETATM   18  C13 UNL     1      26.185   7.878  47.613  1.00  0.00     0.202 C 
HETATM   19  C14 UNL     1      27.590   7.527  48.057  1.00  0.00     0.202 C 
ENDBRANCH   7  10
BRANCH   9  20
HETATM   20  C15 UNL     1      22.573   0.777  52.995  1.00  0.00     0.053 A 
HETATM   21  C16 UNL     1      23.737   0.173  53.423  1.00  0.00     0.031 A 
HETATM   22  C17 UNL     1      23.670  -0.824  54.383  1.00  0.00     0.002 A 
HETATM   23  C18 UNL     1      22.447  -1.211  54.907  1.00  0.00     0.000 A 
HETATM   24  C19 UNL     1      21.271  -0.630  54.502  1.00  0.00     0.002 A 
HETATM   25  C20 UNL     1      21.369   0.371  53.534  1.00  0.00     0.031 A 
ENDBRANCH   9  20
ENDBRANCH   4   5
ENDBRANCH   3   4
TORSDOF 4
ENDMDL
MODEL 9
REMARK VINA RESULT:      -7.5      4.553      7.704
REMARK  4 active torsions:
REMARK  status: ('A' for Active; 'I' for Inactive)
REMARK    1  A    between atoms: C2_3  and  C3_4 
REMARK    2  A    between atoms: C3_4  and  C4_5 
REMARK    3  A    between atoms: C6_7  and  C7_8 
REMARK    4  A    between atoms: N2_19  and  C15_20 
ROOT
HETATM    1 CL1  UNL     1      18.860   3.746  48.032  1.00  0.00    -0.230 Cl
HETATM    2  C1  UNL     1      20.488   3.108  47.727  1.00  0.00     0.213 C 
HETATM    3  C2  UNL     1      21.711   2.620  47.424  1.00  0.00    -0.013 C 
ENDROOT
BRANCH   3   4
HETATM    4  C3  UNL     1      22.705   2.397  48.484  1.00  0.00     0.055 C 
BRANCH   4   5
HETATM    5  C4  UNL     1      22.338   3.071  49.796  1.00  0.00     0.119 C 
HETATM    6  C5  UNL     1      22.698   2.057  50.879  1.00  0.00     0.089 C 
HETATM    7  C6  UNL     1      24.070   2.464  51.276  1.00  0.00     0.067 C 
HETATM    8  N1  UNL     1      24.302   3.648  50.830  1.00  0.00    -0.175 NA
HETATM    9  N2  UNL     1      23.214   4.173  50.127  1.00  0.00    -0.264 N 
BRANCH   7  10
HETATM   10  C7  UNL     1      24.992   1.639  52.046  1.00  0.00    -0.007 A 
HETATM   11  C8  UNL     1      24.566   0.492  52.683  1.00  0.00     0.016 A 
HETATM   12  C9  UNL     1      25.397  -0.315  53.417  1.00  0.00     0.040 A 
HETATM   13  C10 UNL     1      26.721   0.073  53.501  1.00  0.00     0.102 A 
HETATM   14  C11 UNL     1      27.229   1.216  52.888  1.00  0.00     0.103 A 
HETATM   15  O2  UNL     1      27.629  -0.676  54.218  1.00  0.00    -0.346 OA
HETATM   16  C12 UNL     1      26.324   1.983  52.160  1.00  0.00     0.053 A 
HETATM   17  O1  UNL     1      28.536   1.609  52.964  1.00  0.00    -0.346 OA
HETATM   18  C13 UNL     1      29.471   0.786  53.637  1.00  0.00     0.202 C 
HETATM   19  C14 UNL     1      28.819  -0.060  54.711  1.00  0.00     0.202 C 
ENDBRANCH   7  10
BRANCH   9  20
HETATM   20  C15 UNL     1      23.062   5.556  49.828  1.00  0.00     0.053 A 
HETATM   21  C16 UNL     1      23.645   6.056  48.682  1.00  0.00     0.031 A 
HETATM   22  C17 UNL     1      23.504   7.401  48.382  1.00  0.00     0.002 A 
HETATM   23  C18 UNL     1      22.784   8.235  49.222  1.00  0.00     0.000 A 
HETATM   24  C19 UNL     1      22.191   7.768  50.368  1.00  0.00     0.002 A 
HETATM   25  C20 UNL     1      22.351   6.409  50.646  1.00  0.00     0.031 A 
ENDBRANCH   9  20
ENDBRANCH   4   5
ENDBRANCH   3   4
TORSDOF 4
ENDMDL
