MODEL 1
REMARK VINA RESULT:      -7.1      0.000      0.000
REMARK  1 active torsions:
REMARK  status: ('A' for Active; 'I' for Inactive)
REMARK    1  A    between atoms: C3_3  and  N1_4 
ROOT
HETATM    1  N1  UNL     1      24.288   2.761  52.216  1.00  0.00    -0.302 N 
HETATM    2  C4  UNL     1      23.906   3.942  52.973  1.00  0.00     0.194 C 
HETATM    3  C5  UNL     1      22.915   4.765  52.206  1.00  0.00     0.111 C 
HETATM    4  N2  UNL     1      22.364   4.000  51.391  1.00  0.00    -0.276 NA
HETATM    5  C6  UNL     1      21.386   4.209  50.445  1.00  0.00     0.112 C 
HETATM    6  C7  UNL     1      20.188   4.025  51.075  1.00  0.00    -0.002 C 
HETATM    7  C8  UNL     1      18.668   3.974  51.125  1.00  0.00     0.075 C 
HETATM    8  C9  UNL     1      18.162   2.672  51.581  1.00  0.00     0.093 C 
HETATM    9  N3  UNL     1      19.132   1.827  51.488  1.00  0.00    -0.277 NA
HETATM   10  C10 UNL     1      19.047   0.465  51.835  1.00  0.00     0.112 C 
HETATM   11  C11 UNL     1      20.040   0.091  52.611  1.00  0.00    -0.007 C 
HETATM   12  C12 UNL     1      21.277   0.207  53.403  1.00  0.00     0.030 C 
HETATM   13  C13 UNL     1      22.280  -0.791  52.898  1.00  0.00     0.034 C 
HETATM   14  C14 UNL     1      23.547  -0.906  53.614  1.00  0.00     0.274 C 
HETATM   15  N4  UNL     1      24.484   0.127  53.741  1.00  0.00     0.102 NA
HETATM   16  C15 UNL     1      25.562  -0.415  54.607  1.00  0.00     0.312 C 
HETATM   17  C16 UNL     1      25.156   0.598  52.581  1.00  0.00     0.411 C 
HETATM   18  N5  UNL     1      24.501   1.482  51.704  1.00  0.00    -0.307 N 
HETATM   19  H27 UNL     1      23.682   1.125  51.171  1.00  0.00     0.182 HD
ENDROOT
BRANCH   1  20
HETATM   20  C3  UNL     1      25.035   3.243  51.103  1.00  0.00     0.106 C 
HETATM   21  C2  UNL     1      26.240   3.290  50.572  1.00  0.00    -0.012 C 
HETATM   22  C1  UNL     1      26.784   3.901  49.309  1.00  0.00     0.037 C 
ENDBRANCH   1  20
TORSDOF 1
ENDMDL
MODEL 2
REMARK VINA RESULT:      -7.1      1.530      5.268
REMARK  1 active torsions:
REMARK  status: ('A' for Active; 'I' for Inactive)
REMARK    1  A    between atoms: C3_3  and  N1_4 
ROOT
HETATM    1  N1  UNL     1      22.917   3.710  50.811  1.00  0.00    -0.302 N 
HETATM    2  C4  UNL     1      23.519   3.198  49.591  1.00  0.00     0.194 C 
HETATM    3  C5  UNL     1      24.980   2.928  49.793  1.00  0.00     0.111 C 
HETATM    4  N2  UNL     1      25.153   2.773  51.017  1.00  0.00    -0.276 NA
HETATM    5  C6  UNL     1      26.278   2.503  51.763  1.00  0.00     0.112 C 
HETATM    6  C7  UNL     1      26.400   1.143  51.807  1.00  0.00    -0.002 C 
HETATM    7  C8  UNL     1      27.080  -0.152  52.229  1.00  0.00     0.075 C 
HETATM    8  C9  UNL     1      26.183  -1.041  52.980  1.00  0.00     0.093 C 
HETATM    9  N3  UNL     1      25.174  -0.335  53.366  1.00  0.00    -0.277 NA
HETATM   10  C10 UNL     1      24.088  -0.829  54.115  1.00  0.00     0.112 C 
HETATM   11  C11 UNL     1      22.933  -0.484  53.592  1.00  0.00    -0.007 C 
HETATM   12  C12 UNL     1      21.988   0.138  52.648  1.00  0.00     0.030 C 
HETATM   13  C13 UNL     1      21.077   1.064  53.403  1.00  0.00     0.034 C 
HETATM   14  C14 UNL     1      19.997   1.712  52.663  1.00  0.00     0.274 C 
HETATM   15  N4  UNL     1      20.188   2.601  51.598  1.00  0.00     0.102 NA
HETATM   16  C15 UNL     1      18.826   2.938  51.110  1.00  0.00     0.312 C 
HETATM   17  C16 UNL     1      20.803   3.857  51.846  1.00  0.00     0.411 C 
HETATM   18  N5  UNL     1      22.201   3.936  51.985  1.00  0.00    -0.307 N 
HETATM   19  H27 UNL     1      22.637   3.479  52.812  1.00  0.00     0.182 HD
ENDROOT
BRANCH   1  20
HETATM   20  C3  UNL     1      23.479   5.006  51.000  1.00  0.00     0.106 C 
HETATM   21  C2  UNL     1      23.399   6.265  50.619  1.00  0.00    -0.012 C 
HETATM   22  C1  UNL     1      24.160   7.506  51.003  1.00  0.00     0.037 C 
ENDBRANCH   1  20
TORSDOF 1
ENDMDL
MODEL 3
REMARK VINA RESULT:      -6.9      2.184      4.742
REMARK  1 active torsions:
REMARK  status: ('A' for Active; 'I' for Inactive)
REMARK    1  A    between atoms: C3_3  and  N1_4 
ROOT
HETATM    1  N1  UNL     1      25.001   0.463  53.472  1.00  0.00    -0.302 N 
HETATM    2  C4  UNL     1      25.584   1.624  54.125  1.00  0.00     0.194 C 
HETATM    3  C5  UNL     1      26.569   2.302  53.221  1.00  0.00     0.111 C 
HETATM    4  N2  UNL     1      26.271   1.979  52.055  1.00  0.00    -0.276 NA
HETATM    5  C6  UNL     1      26.825   2.304  50.837  1.00  0.00     0.112 C 
HETATM    6  C7  UNL     1      26.217   3.457  50.427  1.00  0.00    -0.002 C 
HETATM    7  C8  UNL     1      25.983   4.603  49.453  1.00  0.00     0.075 C 
HETATM    8  C9  UNL     1      24.584   4.691  49.013  1.00  0.00     0.093 C 
HETATM    9  N3  UNL     1      24.015   3.572  49.306  1.00  0.00    -0.277 NA
HETATM   10  C10 UNL     1      22.666   3.264  49.046  1.00  0.00     0.112 C 
HETATM   11  C11 UNL     1      22.060   2.772  50.103  1.00  0.00    -0.007 C 
HETATM   12  C12 UNL     1      21.890   2.304  51.490  1.00  0.00     0.030 C 
HETATM   13  C13 UNL     1      21.404   0.883  51.474  1.00  0.00     0.034 C 
HETATM   14  C14 UNL     1      21.078   0.259  52.754  1.00  0.00     0.274 C 
HETATM   15  N4  UNL     1      21.998   0.042  53.787  1.00  0.00     0.102 NA
HETATM   16  C15 UNL     1      21.211  -0.535  54.907  1.00  0.00     0.312 C 
HETATM   17  C16 UNL     1      23.063  -0.876  53.585  1.00  0.00     0.411 C 
HETATM   18  N5  UNL     1      24.193  -0.484  52.844  1.00  0.00    -0.307 N 
HETATM   19  H27 UNL     1      24.070  -0.292  51.829  1.00  0.00     0.182 HD
ENDROOT
BRANCH   1  20
HETATM   20  C3  UNL     1      26.061  -0.482  53.354  1.00  0.00     0.106 C 
HETATM   21  C2  UNL     1      26.550  -1.440  52.592  1.00  0.00    -0.012 C 
HETATM   22  C1  UNL     1      27.758  -2.329  52.709  1.00  0.00     0.037 C 
ENDBRANCH   1  20
TORSDOF 1
ENDMDL
MODEL 4
REMARK VINA RESULT:      -6.8      1.734      5.205
REMARK  1 active torsions:
REMARK  status: ('A' for Active; 'I' for Inactive)
REMARK    1  A    between atoms: C3_3  and  N1_4 
ROOT
HETATM    1  N1  UNL     1      22.384   3.711  50.581  1.00  0.00    -0.302 N 
HETATM    2  C4  UNL     1      21.724   4.237  51.765  1.00  0.00     0.194 C 
HETATM    3  C5  UNL     1      20.844   3.194  52.387  1.00  0.00     0.111 C 
HETATM    4  N2  UNL     1      21.275   2.087  52.012  1.00  0.00    -0.276 NA
HETATM    5  C6  UNL     1      20.861   0.799  52.272  1.00  0.00     0.112 C 
HETATM    6  C7  UNL     1      21.505   0.405  53.411  1.00  0.00    -0.002 C 
HETATM    7  C8  UNL     1      21.841  -0.591  54.511  1.00  0.00     0.075 C 
HETATM    8  C9  UNL     1      23.280  -0.874  54.595  1.00  0.00     0.093 C 
HETATM    9  N3  UNL     1      23.819  -0.463  53.497  1.00  0.00    -0.277 NA
HETATM   10  C10 UNL     1      25.191  -0.554  53.193  1.00  0.00     0.112 C 
HETATM   11  C11 UNL     1      25.675   0.589  52.759  1.00  0.00    -0.007 C 
HETATM   12  C12 UNL     1      25.690   2.007  52.361  1.00  0.00     0.030 C 
HETATM   13  C13 UNL     1      26.183   2.116  50.946  1.00  0.00     0.034 C 
HETATM   14  C14 UNL     1      26.365   3.454  50.389  1.00  0.00     0.274 C 
HETATM   15  N4  UNL     1      25.335   4.385  50.211  1.00  0.00     0.102 NA
HETATM   16  C15 UNL     1      25.993   5.614  49.698  1.00  0.00     0.312 C 
HETATM   17  C16 UNL     1      24.306   4.109  49.271  1.00  0.00     0.411 C 
HETATM   18  N5  UNL     1      23.265   3.227  49.615  1.00  0.00    -0.307 N 
HETATM   19  H27 UNL     1      23.501   2.224  49.759  1.00  0.00     0.182 HD
ENDROOT
BRANCH   1  20
HETATM   20  C3  UNL     1      21.351   3.520  49.619  1.00  0.00     0.106 C 
HETATM   21  C2  UNL     1      21.013   2.836  48.544  1.00  0.00    -0.012 C 
HETATM   22  C1  UNL     1      19.785   2.829  47.674  1.00  0.00     0.037 C 
ENDBRANCH   1  20
TORSDOF 1
ENDMDL
MODEL 5
REMARK VINA RESULT:      -6.7      1.825      2.773
REMARK  1 active torsions:
REMARK  status: ('A' for Active; 'I' for Inactive)
REMARK    1  A    between atoms: C3_3  and  N1_4 
ROOT
HETATM    1  N1  UNL     1      24.669   3.692  51.783  1.00  0.00    -0.302 N 
HETATM    2  C4  UNL     1      23.880   4.510  52.691  1.00  0.00     0.194 C 
HETATM    3  C5  UNL     1      22.424   4.435  52.341  1.00  0.00     0.111 C 
HETATM    4  N2  UNL     1      22.258   3.375  51.709  1.00  0.00    -0.276 NA
HETATM    5  C6  UNL     1      21.139   2.799  51.150  1.00  0.00     0.112 C 
HETATM    6  C7  UNL     1      20.564   2.036  52.126  1.00  0.00    -0.002 C 
HETATM    7  C8  UNL     1      19.502   1.091  52.669  1.00  0.00     0.075 C 
HETATM    8  C9  UNL     1      20.072  -0.160  53.189  1.00  0.00     0.093 C 
HETATM    9  N3  UNL     1      21.275  -0.254  52.733  1.00  0.00    -0.277 NA
HETATM   10  C10 UNL     1      22.158  -1.316  53.009  1.00  0.00     0.112 C 
HETATM   11  C11 UNL     1      23.340  -0.887  53.392  1.00  0.00    -0.007 C 
HETATM   12  C12 UNL     1      24.401   0.073  53.741  1.00  0.00     0.030 C 
HETATM   13  C13 UNL     1      25.602  -0.186  52.877  1.00  0.00     0.034 C 
HETATM   14  C14 UNL     1      26.807   0.600  53.130  1.00  0.00     0.274 C 
HETATM   15  N4  UNL     1      26.887   1.992  53.002  1.00  0.00     0.102 NA
HETATM   16  C15 UNL     1      28.261   2.354  53.434  1.00  0.00     0.312 C 
HETATM   17  C16 UNL     1      26.747   2.579  51.716  1.00  0.00     0.411 C 
HETATM   18  N5  UNL     1      25.466   2.737  51.155  1.00  0.00    -0.307 N 
HETATM   19  H27 UNL     1      24.934   1.880  50.901  1.00  0.00     0.182 HD
ENDROOT
BRANCH   1  20
HETATM   20  C3  UNL     1      24.589   4.340  50.517  1.00  0.00     0.106 C 
HETATM   21  C2  UNL     1      24.892   5.448  49.869  1.00  0.00    -0.012 C 
HETATM   22  C1  UNL     1      24.682   5.897  48.448  1.00  0.00     0.037 C 
ENDBRANCH   1  20
TORSDOF 1
ENDMDL
MODEL 6
REMARK VINA RESULT:      -6.5      1.804      6.460
REMARK  1 active torsions:
REMARK  status: ('A' for Active; 'I' for Inactive)
REMARK    1  A    between atoms: C3_3  and  N1_4 
ROOT
HETATM    1  N1  UNL     1      20.857   2.267  51.166  1.00  0.00    -0.302 N 
HETATM    2  C4  UNL     1      20.590   2.509  52.575  1.00  0.00     0.194 C 
HETATM    3  C5  UNL     1      20.878   1.281  53.387  1.00  0.00     0.111 C 
HETATM    4  N2  UNL     1      21.678   0.591  52.727  1.00  0.00    -0.276 NA
HETATM    5  C6  UNL     1      22.277  -0.623  52.980  1.00  0.00     0.112 C 
HETATM    6  C7  UNL     1      23.430  -0.354  53.661  1.00  0.00    -0.002 C 
HETATM    7  C8  UNL     1      24.719  -0.747  54.368  1.00  0.00     0.075 C 
HETATM    8  C9  UNL     1      25.904  -0.113  53.775  1.00  0.00     0.093 C 
HETATM    9  N3  UNL     1      25.563   0.330  52.612  1.00  0.00    -0.277 NA
HETATM   10  C10 UNL     1      26.424   1.007  51.727  1.00  0.00     0.112 C 
HETATM   11  C11 UNL     1      25.887   2.116  51.270  1.00  0.00    -0.007 C 
HETATM   12  C12 UNL     1      24.879   3.174  51.085  1.00  0.00     0.030 C 
HETATM   13  C13 UNL     1      24.555   3.296  49.623  1.00  0.00     0.034 C 
HETATM   14  C14 UNL     1      23.642   4.360  49.213  1.00  0.00     0.274 C 
HETATM   15  N4  UNL     1      22.307   4.461  49.623  1.00  0.00     0.102 NA
HETATM   16  C15 UNL     1      21.803   5.726  49.029  1.00  0.00     0.312 C 
HETATM   17  C16 UNL     1      21.377   3.471  49.206  1.00  0.00     0.411 C 
HETATM   18  N5  UNL     1      21.341   2.226  49.860  1.00  0.00    -0.307 N 
HETATM   19  H27 UNL     1      22.164   1.598  49.760  1.00  0.00     0.182 HD
ENDROOT
BRANCH   1  20
HETATM   20  C3  UNL     1      19.864   1.339  50.742  1.00  0.00     0.106 C 
HETATM   21  C2  UNL     1      18.564   1.155  50.618  1.00  0.00    -0.012 C 
HETATM   22  C1  UNL     1      17.732   0.010  50.107  1.00  0.00     0.037 C 
ENDBRANCH   1  20
TORSDOF 1
ENDMDL
MODEL 7
REMARK VINA RESULT:      -6.5      2.327      3.502
REMARK  1 active torsions:
REMARK  status: ('A' for Active; 'I' for Inactive)
REMARK    1  A    between atoms: C3_3  and  N1_4 
ROOT
HETATM    1  N1  UNL     1      23.905   2.639  52.692  1.00  0.00    -0.302 N 
HETATM    2  C4  UNL     1      23.637   4.045  52.952  1.00  0.00     0.194 C 
HETATM    3  C5  UNL     1      24.155   4.899  51.833  1.00  0.00     0.111 C 
HETATM    4  N2  UNL     1      24.233   4.168  50.827  1.00  0.00    -0.276 NA
HETATM    5  C6  UNL     1      24.639   4.416  49.535  1.00  0.00     0.112 C 
HETATM    6  C7  UNL     1      23.534   4.842  48.855  1.00  0.00    -0.002 C 
HETATM    7  C8  UNL     1      22.802   5.330  47.612  1.00  0.00     0.075 C 
HETATM    8  C9  UNL     1      21.667   4.469  47.252  1.00  0.00     0.093 C 
HETATM    9  N3  UNL     1      21.811   3.355  47.886  1.00  0.00    -0.277 NA
HETATM   10  C10 UNL     1      20.922   2.265  47.807  1.00  0.00     0.112 C 
HETATM   11  C11 UNL     1      20.589   1.815  48.996  1.00  0.00    -0.007 C 
HETATM   12  C12 UNL     1      20.556   1.725  50.466  1.00  0.00     0.030 C 
HETATM   13  C13 UNL     1      20.977   0.344  50.884  1.00  0.00     0.034 C 
HETATM   14  C14 UNL     1      20.919   0.015  52.306  1.00  0.00     0.274 C 
HETATM   15  N4  UNL     1      21.670   0.656  53.299  1.00  0.00     0.102 NA
HETATM   16  C15 UNL     1      21.231   0.052  54.583  1.00  0.00     0.312 C 
HETATM   17  C16 UNL     1      23.084   0.513  53.299  1.00  0.00     0.411 C 
HETATM   18  N5  UNL     1      23.863   1.275  52.409  1.00  0.00    -0.307 N 
HETATM   19  H27 UNL     1      23.772   1.082  51.391  1.00  0.00     0.182 HD
ENDROOT
BRANCH   1  20
HETATM   20  C3  UNL     1      25.319   2.496  52.780  1.00  0.00     0.106 C 
HETATM   21  C2  UNL     1      26.310   2.226  53.606  1.00  0.00    -0.012 C 
HETATM   22  C1  UNL     1      27.802   2.133  53.427  1.00  0.00     0.037 C 
ENDBRANCH   1  20
TORSDOF 1
ENDMDL
MODEL 8
REMARK VINA RESULT:      -6.4      8.220     13.169
REMARK  1 active torsions:
REMARK  status: ('A' for Active; 'I' for Inactive)
REMARK    1  A    between atoms: C3_3  and  N1_4 
ROOT
HETATM    1  N1  UNL     1      30.702   7.046  48.025  1.00  0.00    -0.302 N 
HETATM    2  C4  UNL     1      31.701   6.948  49.077  1.00  0.00     0.194 C 
HETATM    3  C5  UNL     1      32.245   5.553  49.163  1.00  0.00     0.111 C 
HETATM    4  N2  UNL     1      32.049   5.020  48.054  1.00  0.00    -0.276 NA
HETATM    5  C6  UNL     1      32.341   3.765  47.568  1.00  0.00     0.112 C 
HETATM    6  C7  UNL     1      33.606   3.830  47.055  1.00  0.00    -0.002 C 
HETATM    7  C8  UNL     1      34.830   3.242  46.369  1.00  0.00     0.075 C 
HETATM    8  C9  UNL     1      35.192   3.967  45.143  1.00  0.00     0.093 C 
HETATM    9  N3  UNL     1      34.176   4.687  44.806  1.00  0.00    -0.277 NA
HETATM   10  C10 UNL     1      34.129   5.534  43.682  1.00  0.00     0.112 C 
HETATM   11  C11 UNL     1      33.691   6.735  43.988  1.00  0.00    -0.007 C 
HETATM   12  C12 UNL     1      33.181   7.834  44.825  1.00  0.00     0.030 C 
HETATM   13  C13 UNL     1      31.872   8.313  44.265  1.00  0.00     0.034 C 
HETATM   14  C14 UNL     1      31.242   9.469  44.897  1.00  0.00     0.274 C 
HETATM   15  N4  UNL     1      30.805   9.506  46.227  1.00  0.00     0.102 NA
HETATM   16  C15 UNL     1      30.312  10.890  46.446  1.00  0.00     0.312 C 
HETATM   17  C16 UNL     1      29.725   8.672  46.624  1.00  0.00     0.411 C 
HETATM   18  N5  UNL     1      29.953   7.308  46.879  1.00  0.00    -0.307 N 
HETATM   19  H27 UNL     1      30.223   6.699  46.080  1.00  0.00     0.182 HD
ENDROOT
BRANCH   1  20
HETATM   20  C3  UNL     1      29.593   6.275  48.476  1.00  0.00     0.106 C 
HETATM   21  C2  UNL     1      28.564   5.556  48.073  1.00  0.00    -0.012 C 
HETATM   22  C1  UNL     1      27.485   4.805  48.806  1.00  0.00     0.037 C 
ENDBRANCH   1  20
TORSDOF 1
ENDMDL
MODEL 9
REMARK VINA RESULT:      -6.4      1.989      3.272
REMARK  1 active torsions:
REMARK  status: ('A' for Active; 'I' for Inactive)
REMARK    1  A    between atoms: C3_3  and  N1_4 
ROOT
HETATM    1  N1  UNL     1      21.961   2.572  51.094  1.00  0.00    -0.302 N 
HETATM    2  C4  UNL     1      20.996   3.550  51.571  1.00  0.00     0.194 C 
HETATM    3  C5  UNL     1      19.611   3.186  51.127  1.00  0.00     0.111 C 
HETATM    4  N2  UNL     1      19.614   1.962  50.897  1.00  0.00    -0.276 NA
HETATM    5  C6  UNL     1      18.629   1.100  50.468  1.00  0.00     0.112 C 
HETATM    6  C7  UNL     1      17.988   0.653  51.589  1.00  0.00    -0.002 C 
HETATM    7  C8  UNL     1      16.939  -0.170  52.321  1.00  0.00     0.075 C 
HETATM    8  C9  UNL     1      17.529  -1.090  53.304  1.00  0.00     0.093 C 
HETATM    9  N3  UNL     1      18.787  -1.189  53.033  1.00  0.00    -0.277 NA
HETATM   10  C10 UNL     1      19.703  -1.979  53.753  1.00  0.00     0.112 C 
HETATM   11  C11 UNL     1      20.785  -1.307  54.076  1.00  0.00    -0.007 C 
HETATM   12  C12 UNL     1      21.712  -0.165  54.167  1.00  0.00     0.030 C 
HETATM   13  C13 UNL     1      23.036  -0.558  53.575  1.00  0.00     0.034 C 
HETATM   14  C14 UNL     1      24.130   0.406  53.653  1.00  0.00     0.274 C 
HETATM   15  N4  UNL     1      24.119   1.670  53.050  1.00  0.00     0.102 NA
HETATM   16  C15 UNL     1      25.390   2.319  53.461  1.00  0.00     0.312 C 
HETATM   17  C16 UNL     1      24.109   1.760  51.632  1.00  0.00     0.411 C 
HETATM   18  N5  UNL     1      22.908   1.563  50.927  1.00  0.00    -0.307 N 
HETATM   19  H27 UNL     1      22.483   0.613  50.941  1.00  0.00     0.182 HD
ENDROOT
BRANCH   1  20
HETATM   20  C3  UNL     1      22.003   2.735  49.679  1.00  0.00     0.106 C 
HETATM   21  C2  UNL     1      22.319   2.133  48.549  1.00  0.00    -0.012 C 
HETATM   22  C1  UNL     1      22.260   2.559  47.107  1.00  0.00     0.037 C 
ENDBRANCH   1  20
TORSDOF 1
ENDMDL
