MODEL 1
REMARK VINA RESULT:      -8.0      0.000      0.000
REMARK  6 active torsions:
REMARK  status: ('A' for Active; 'I' for Inactive)
REMARK    1  A    between atoms: C2_2  and  C3_3 
REMARK    2  A    between atoms: C3_3  and  C4_5 
REMARK    3  A    between atoms: C4_5  and  C5_6 
REMARK    4  A    between atoms: C6_7  and  C7_8 
REMARK    5  A    between atoms: C7_8  and  O1_9 
REMARK    6  A    between atoms: O1_9  and  C8_10 
ROOT
HETATM    1  C8  UNL     1      23.684   3.854  51.197  1.00  0.00     0.195 C 
HETATM    2  C9  UNL     1      24.930   4.106  50.450  1.00  0.00     0.041 C 
HETATM    3 CL1  UNL     1      24.215   3.161  49.164  1.00  0.00    -0.086 Cl
HETATM    4  C10 UNL     1      26.097   4.409  49.948  1.00  0.00     0.015 C 
HETATM    5  C11 UNL     1      27.203   4.533  48.978  1.00  0.00     0.148 C 
HETATM    6  N1  UNL     1      27.588   5.940  48.822  1.00  0.00    -0.385 N 
HETATM    7  C12 UNL     1      26.608   6.946  48.652  1.00  0.00     0.052 A 
HETATM    8  C13 UNL     1      25.366   6.563  48.288  1.00  0.00     0.058 A 
HETATM    9  C14 UNL     1      24.172   7.260  48.113  1.00  0.00     0.044 A 
HETATM   10  N2  UNL     1      24.337   8.570  48.359  1.00  0.00    -0.263 NA
HETATM   11  C15 UNL     1      25.543   9.095  48.732  1.00  0.00     0.142 A 
HETATM   12  C16 UNL     1      26.657   8.298  48.876  1.00  0.00     0.088 A 
HETATM   13  C17 UNL     1      27.962   8.788  49.269  1.00  0.00     0.103 C 
HETATM   14  N3  UNL     1      29.001   9.200  49.588  1.00  0.00    -0.191 NA
HETATM   15  C18 UNL     1      22.841   6.693  47.768  1.00  0.00     0.154 C 
HETATM   16  C19 UNL     1      22.210   5.594  48.372  1.00  0.00     0.051 C 
HETATM   17  C20 UNL     1      20.867   5.349  47.726  1.00  0.00     0.041 C 
HETATM   18  O2  UNL     1      22.203   4.510  49.366  1.00  0.00    -0.377 OA
HETATM   19  C21 UNL     1      22.585   4.800  50.678  1.00  0.00     0.152 C 
HETATM   20  C22 UNL     1      21.453   4.863  51.666  1.00  0.00     0.042 C 
HETATM   21  H11 UNL     1      28.537   6.349  48.822  1.00  0.00     0.160 HD
ENDROOT
BRANCH   1  22
HETATM   22  O1  UNL     1      23.265   2.553  51.159  1.00  0.00    -0.366 OA
BRANCH  22  23
HETATM   23  C7  UNL     1      23.432   1.864  52.348  1.00  0.00     0.262 C 
BRANCH  23  24
HETATM   24  C6  UNL     1      24.646   1.047  52.375  1.00  0.00    -0.080 C 
HETATM   25  C5  UNL     1      25.643   0.371  52.378  1.00  0.00    -0.097 C 
BRANCH  25  26
HETATM   26  C4  UNL     1      26.854  -0.454  52.355  1.00  0.00     0.172 C 
BRANCH  26  27
HETATM   27  C3  UNL     1      27.570  -0.290  53.604  1.00  0.00     0.145 C 
HETATM   28  F1  UNL     1      27.111   0.123  54.770  1.00  0.00    -0.201 F 
BRANCH  27  29
HETATM   29  C2  UNL     1      28.850  -0.565  53.674  1.00  0.00    -0.117 C 
HETATM   30  C1  UNL     1      30.065  -1.092  53.721  1.00  0.00     0.099 C 
ENDBRANCH  27  29
ENDBRANCH  26  27
ENDBRANCH  25  26
ENDBRANCH  23  24
ENDBRANCH  22  23
ENDBRANCH   1  22
TORSDOF 6
ENDMDL
MODEL 2
REMARK VINA RESULT:      -7.9      0.931      1.038
REMARK  6 active torsions:
REMARK  status: ('A' for Active; 'I' for Inactive)
REMARK    1  A    between atoms: C2_2  and  C3_3 
REMARK    2  A    between atoms: C3_3  and  C4_5 
REMARK    3  A    between atoms: C4_5  and  C5_6 
REMARK    4  A    between atoms: C6_7  and  C7_8 
REMARK    5  A    between atoms: C7_8  and  O1_9 
REMARK    6  A    between atoms: O1_9  and  C8_10 
ROOT
HETATM    1  C8  UNL     1      23.974   3.460  51.564  1.00  0.00     0.195 C 
HETATM    2  C9  UNL     1      25.109   3.802  50.687  1.00  0.00     0.041 C 
HETATM    3 CL1  UNL     1      24.290   2.867  49.456  1.00  0.00    -0.086 Cl
HETATM    4  C10 UNL     1      26.192   4.182  50.064  1.00  0.00     0.015 C 
HETATM    5  C11 UNL     1      27.168   4.397  48.977  1.00  0.00     0.148 C 
HETATM    6  N1  UNL     1      27.466   5.826  48.834  1.00  0.00    -0.385 N 
HETATM    7  C12 UNL     1      26.426   6.786  48.822  1.00  0.00     0.052 A 
HETATM    8  C13 UNL     1      25.169   6.353  48.591  1.00  0.00     0.058 A 
HETATM    9  C14 UNL     1      23.932   6.994  48.586  1.00  0.00     0.044 A 
HETATM   10  N2  UNL     1      24.064   8.300  48.865  1.00  0.00    -0.263 NA
HETATM   11  C15 UNL     1      25.279   8.874  49.115  1.00  0.00     0.142 A 
HETATM   12  C16 UNL     1      26.439   8.130  49.094  1.00  0.00     0.088 A 
HETATM   13  C17 UNL     1      27.757   8.672  49.352  1.00  0.00     0.103 C 
HETATM   14  N3  UNL     1      28.806   9.125  49.563  1.00  0.00    -0.191 NA
HETATM   15  C18 UNL     1      22.597   6.372  48.377  1.00  0.00     0.154 C 
HETATM   16  C19 UNL     1      22.094   5.221  49.006  1.00  0.00     0.051 C 
HETATM   17  C20 UNL     1      20.697   4.931  48.512  1.00  0.00     0.041 C 
HETATM   18  O2  UNL     1      22.257   4.104  49.948  1.00  0.00    -0.377 OA
HETATM   19  C21 UNL     1      22.779   4.366  51.217  1.00  0.00     0.152 C 
HETATM   20  C22 UNL     1      21.771   4.337  52.332  1.00  0.00     0.042 C 
HETATM   21  H11 UNL     1      28.388   6.283  48.740  1.00  0.00     0.160 HD
ENDROOT
BRANCH   1  22
HETATM   22  O1  UNL     1      23.615   2.142  51.522  1.00  0.00    -0.366 OA
BRANCH  22  23
HETATM   23  C7  UNL     1      23.819   1.456  52.706  1.00  0.00     0.262 C 
BRANCH  23  24
HETATM   24  C6  UNL     1      25.065   0.688  52.721  1.00  0.00    -0.080 C 
HETATM   25  C5  UNL     1      26.080   0.038  52.738  1.00  0.00    -0.097 C 
BRANCH  25  26
HETATM   26  C4  UNL     1      27.300  -0.773  52.763  1.00  0.00     0.172 C 
BRANCH  26  27
HETATM   27  C3  UNL     1      28.294  -0.119  53.589  1.00  0.00     0.145 C 
HETATM   28  F1  UNL     1      29.051  -0.638  54.537  1.00  0.00    -0.201 F 
BRANCH  27  29
HETATM   29  C2  UNL     1      28.538   1.161  53.442  1.00  0.00    -0.117 C 
HETATM   30  C1  UNL     1      28.634   2.482  53.506  1.00  0.00     0.099 C 
ENDBRANCH  27  29
ENDBRANCH  26  27
ENDBRANCH  25  26
ENDBRANCH  23  24
ENDBRANCH  22  23
ENDBRANCH   1  22
TORSDOF 6
ENDMDL
MODEL 3
REMARK VINA RESULT:      -7.7      3.979      7.379
REMARK  6 active torsions:
REMARK  status: ('A' for Active; 'I' for Inactive)
REMARK    1  A    between atoms: C2_2  and  C3_3 
REMARK    2  A    between atoms: C3_3  and  C4_5 
REMARK    3  A    between atoms: C4_5  and  C5_6 
REMARK    4  A    between atoms: C6_7  and  C7_8 
REMARK    5  A    between atoms: C7_8  and  O1_9 
REMARK    6  A    between atoms: O1_9  and  C8_10 
ROOT
HETATM    1  C8  UNL     1      22.585   4.362  51.503  1.00  0.00     0.195 C 
HETATM    2  C9  UNL     1      22.653   2.907  51.730  1.00  0.00     0.041 C 
HETATM    3 CL1  UNL     1      22.847   2.761  49.999  1.00  0.00    -0.086 Cl
HETATM    4  C10 UNL     1      22.670   1.658  52.112  1.00  0.00     0.015 C 
HETATM    5  C11 UNL     1      22.806   0.189  52.055  1.00  0.00     0.148 C 
HETATM    6  N1  UNL     1      23.814  -0.268  53.017  1.00  0.00    -0.385 N 
HETATM    7  C12 UNL     1      25.066   0.385  53.121  1.00  0.00     0.052 A 
HETATM    8  C13 UNL     1      25.446   1.186  52.104  1.00  0.00     0.058 A 
HETATM    9  C14 UNL     1      26.547   2.020  51.916  1.00  0.00     0.044 A 
HETATM   10  N2  UNL     1      27.369   1.983  52.976  1.00  0.00    -0.263 NA
HETATM   11  C15 UNL     1      27.108   1.210  54.073  1.00  0.00     0.142 A 
HETATM   12  C16 UNL     1      25.977   0.426  54.145  1.00  0.00     0.088 A 
HETATM   13  C17 UNL     1      25.639  -0.414  55.276  1.00  0.00     0.103 C 
HETATM   14  N3  UNL     1      25.384  -1.079  56.193  1.00  0.00    -0.191 NA
HETATM   15  C18 UNL     1      26.812   2.911  50.755  1.00  0.00     0.154 C 
HETATM   16  C19 UNL     1      25.916   3.819  50.166  1.00  0.00     0.051 C 
HETATM   17  C20 UNL     1      26.583   4.530  49.013  1.00  0.00     0.041 C 
HETATM   18  O2  UNL     1      24.590   4.452  50.108  1.00  0.00    -0.377 OA
HETATM   19  C21 UNL     1      24.010   4.906  51.295  1.00  0.00     0.152 C 
HETATM   20  C22 UNL     1      24.021   6.400  51.471  1.00  0.00     0.042 C 
HETATM   21  H11 UNL     1      23.751  -1.049  53.692  1.00  0.00     0.160 HD
ENDROOT
BRANCH   1  22
HETATM   22  O1  UNL     1      21.767   4.727  50.470  1.00  0.00    -0.366 OA
BRANCH  22  23
HETATM   23  C7  UNL     1      20.487   5.086  50.853  1.00  0.00     0.262 C 
BRANCH  23  24
HETATM   24  C6  UNL     1      19.614   3.937  51.097  1.00  0.00    -0.080 C 
HETATM   25  C5  UNL     1      18.881   3.000  51.286  1.00  0.00    -0.097 C 
BRANCH  25  26
HETATM   26  C4  UNL     1      17.972   1.870  51.499  1.00  0.00     0.172 C 
BRANCH  26  27
HETATM   27  C3  UNL     1      18.735   0.638  51.520  1.00  0.00     0.145 C 
HETATM   28  F1  UNL     1      19.730   0.270  50.735  1.00  0.00    -0.201 F 
BRANCH  27  29
HETATM   29  C2  UNL     1      18.466  -0.291  52.405  1.00  0.00    -0.117 C 
HETATM   30  C1  UNL     1      18.076  -1.351  53.099  1.00  0.00     0.099 C 
ENDBRANCH  27  29
ENDBRANCH  26  27
ENDBRANCH  25  26
ENDBRANCH  23  24
ENDBRANCH  22  23
ENDBRANCH   1  22
TORSDOF 6
ENDMDL
MODEL 4
REMARK VINA RESULT:      -7.7      2.170      3.380
REMARK  6 active torsions:
REMARK  status: ('A' for Active; 'I' for Inactive)
REMARK    1  A    between atoms: C2_2  and  C3_3 
REMARK    2  A    between atoms: C3_3  and  C4_5 
REMARK    3  A    between atoms: C4_5  and  C5_6 
REMARK    4  A    between atoms: C6_7  and  C7_8 
REMARK    5  A    between atoms: C7_8  and  O1_9 
REMARK    6  A    between atoms: O1_9  and  C8_10 
ROOT
HETATM    1  C8  UNL     1      24.767   3.387  51.312  1.00  0.00     0.195 C 
HETATM    2  C9  UNL     1      25.802   3.889  50.389  1.00  0.00     0.041 C 
HETATM    3 CL1  UNL     1      24.884   3.112  49.120  1.00  0.00    -0.086 Cl
HETATM    4  C10 UNL     1      26.809   4.392  49.728  1.00  0.00     0.015 C 
HETATM    5  C11 UNL     1      27.667   4.793  48.595  1.00  0.00     0.148 C 
HETATM    6  N1  UNL     1      27.920   6.238  48.634  1.00  0.00    -0.385 N 
HETATM    7  C12 UNL     1      26.864   7.153  48.861  1.00  0.00     0.052 A 
HETATM    8  C13 UNL     1      25.600   6.713  48.691  1.00  0.00     0.058 A 
HETATM    9  C14 UNL     1      24.355   7.305  48.897  1.00  0.00     0.044 A 
HETATM   10  N2  UNL     1      24.487   8.562  49.349  1.00  0.00    -0.263 NA
HETATM   11  C15 UNL     1      25.709   9.136  49.562  1.00  0.00     0.142 A 
HETATM   12  C16 UNL     1      26.877   8.444  49.323  1.00  0.00     0.088 A 
HETATM   13  C17 UNL     1      28.202   8.989  49.529  1.00  0.00     0.103 C 
HETATM   14  N3  UNL     1      29.258   9.444  49.703  1.00  0.00    -0.191 NA
HETATM   15  C18 UNL     1      23.020   6.673  48.728  1.00  0.00     0.154 C 
HETATM   16  C19 UNL     1      22.606   5.428  49.228  1.00  0.00     0.051 C 
HETATM   17  C20 UNL     1      21.173   5.162  48.833  1.00  0.00     0.041 C 
HETATM   18  O2  UNL     1      22.885   4.194  49.978  1.00  0.00    -0.377 OA
HETATM   19  C21 UNL     1      23.525   4.291  51.216  1.00  0.00     0.152 C 
HETATM   20  C22 UNL     1      22.634   4.068  52.407  1.00  0.00     0.042 C 
HETATM   21  H11 UNL     1      28.819   6.736  48.520  1.00  0.00     0.160 HD
ENDROOT
BRANCH   1  22
HETATM   22  O1  UNL     1      24.433   2.076  51.114  1.00  0.00    -0.366 OA
BRANCH  22  23
HETATM   23  C7  UNL     1      25.013   1.196  52.011  1.00  0.00     0.262 C 
BRANCH  23  24
HETATM   24  C6  UNL     1      24.035   0.499  52.848  1.00  0.00    -0.080 C 
HETATM   25  C5  UNL     1      23.232  -0.061  53.551  1.00  0.00    -0.097 C 
BRANCH  25  26
HETATM   26  C4  UNL     1      22.258  -0.722  54.424  1.00  0.00     0.172 C 
BRANCH  26  27
HETATM   27  C3  UNL     1      21.026   0.040  54.431  1.00  0.00     0.145 C 
HETATM   28  F1  UNL     1      20.464   0.691  55.432  1.00  0.00    -0.201 F 
BRANCH  27  29
HETATM   29  C2  UNL     1      20.309   0.149  53.338  1.00  0.00    -0.117 C 
HETATM   30  C1  UNL     1      19.480   0.033  52.311  1.00  0.00     0.099 C 
ENDBRANCH  27  29
ENDBRANCH  26  27
ENDBRANCH  25  26
ENDBRANCH  23  24
ENDBRANCH  22  23
ENDBRANCH   1  22
TORSDOF 6
ENDMDL
MODEL 5
REMARK VINA RESULT:      -7.6      3.787      6.124
REMARK  6 active torsions:
REMARK  status: ('A' for Active; 'I' for Inactive)
REMARK    1  A    between atoms: C2_2  and  C3_3 
REMARK    2  A    between atoms: C3_3  and  C4_5 
REMARK    3  A    between atoms: C4_5  and  C5_6 
REMARK    4  A    between atoms: C6_7  and  C7_8 
REMARK    5  A    between atoms: C7_8  and  O1_9 
REMARK    6  A    between atoms: O1_9  and  C8_10 
ROOT
HETATM    1  C8  UNL     1      24.459   2.848  50.832  1.00  0.00     0.195 C 
HETATM    2  C9  UNL     1      23.316   2.280  51.571  1.00  0.00     0.041 C 
HETATM    3 CL1  UNL     1      23.617   3.525  52.763  1.00  0.00    -0.086 Cl
HETATM    4  C10 UNL     1      22.305   1.641  52.095  1.00  0.00     0.015 C 
HETATM    5  C11 UNL     1      21.197   1.305  53.010  1.00  0.00     0.148 C 
HETATM    6  N1  UNL     1      19.938   1.193  52.266  1.00  0.00    -0.385 N 
HETATM    7  C12 UNL     1      19.570   2.171  51.312  1.00  0.00     0.052 A 
HETATM    8  C13 UNL     1      20.204   3.361  51.351  1.00  0.00     0.058 A 
HETATM    9  C14 UNL     1      20.149   4.491  50.536  1.00  0.00     0.044 A 
HETATM   10  N2  UNL     1      19.276   4.320  49.531  1.00  0.00    -0.263 NA
HETATM   11  C15 UNL     1      18.561   3.166  49.375  1.00  0.00     0.142 A 
HETATM   12  C16 UNL     1      18.706   2.110  50.249  1.00  0.00     0.088 A 
HETATM   13  C17 UNL     1      17.983   0.859  50.141  1.00  0.00     0.103 C 
HETATM   14  N3  UNL     1      17.395  -0.138  50.036  1.00  0.00    -0.191 NA
HETATM   15  C18 UNL     1      20.965   5.728  50.659  1.00  0.00     0.154 C 
HETATM   16  C19 UNL     1      22.357   5.809  50.822  1.00  0.00     0.051 C 
HETATM   17  C20 UNL     1      22.786   7.255  50.902  1.00  0.00     0.041 C 
HETATM   18  O2  UNL     1      23.668   5.158  50.963  1.00  0.00    -0.377 OA
HETATM   19  C21 UNL     1      23.998   4.118  50.091  1.00  0.00     0.152 C 
HETATM   20  C22 UNL     1      24.994   4.480  49.024  1.00  0.00     0.042 C 
HETATM   21  H11 UNL     1      19.220   0.451  52.327  1.00  0.00     0.160 HD
ENDROOT
BRANCH   1  22
HETATM   22  O1  UNL     1      25.553   3.107  51.609  1.00  0.00    -0.366 OA
BRANCH  22  23
HETATM   23  C7  UNL     1      26.677   2.372  51.277  1.00  0.00     0.262 C 
BRANCH  23  24
HETATM   24  C6  UNL     1      26.652   1.008  51.808  1.00  0.00    -0.080 C 
HETATM   25  C5  UNL     1      26.626  -0.122  52.226  1.00  0.00    -0.097 C 
BRANCH  25  26
HETATM   26  C4  UNL     1      26.588  -1.504  52.711  1.00  0.00     0.172 C 
BRANCH  26  27
HETATM   27  C3  UNL     1      27.942  -1.977  52.915  1.00  0.00     0.145 C 
HETATM   28  F1  UNL     1      28.421  -3.198  52.767  1.00  0.00    -0.201 F 
BRANCH  27  29
HETATM   29  C2  UNL     1      28.882  -1.148  53.301  1.00  0.00    -0.117 C 
HETATM   30  C1  UNL     1      29.992  -0.511  53.645  1.00  0.00     0.099 C 
ENDBRANCH  27  29
ENDBRANCH  26  27
ENDBRANCH  25  26
ENDBRANCH  23  24
ENDBRANCH  22  23
ENDBRANCH   1  22
TORSDOF 6
ENDMDL
MODEL 6
REMARK VINA RESULT:      -7.5      3.341      6.833
REMARK  6 active torsions:
REMARK  status: ('A' for Active; 'I' for Inactive)
REMARK    1  A    between atoms: C2_2  and  C3_3 
REMARK    2  A    between atoms: C3_3  and  C4_5 
REMARK    3  A    between atoms: C4_5  and  C5_6 
REMARK    4  A    between atoms: C6_7  and  C7_8 
REMARK    5  A    between atoms: C7_8  and  O1_9 
REMARK    6  A    between atoms: O1_9  and  C8_10 
ROOT
HETATM    1  C8  UNL     1      22.420   3.527  49.311  1.00  0.00     0.195 C 
HETATM    2  C9  UNL     1      23.013   3.838  50.625  1.00  0.00     0.041 C 
HETATM    3 CL1  UNL     1      21.376   4.128  51.166  1.00  0.00    -0.086 Cl
HETATM    4  C10 UNL     1      23.705   4.096  51.702  1.00  0.00     0.015 C 
HETATM    5  C11 UNL     1      24.020   4.418  53.108  1.00  0.00     0.148 C 
HETATM    6  N1  UNL     1      24.886   3.385  53.685  1.00  0.00    -0.385 N 
HETATM    7  C12 UNL     1      24.600   2.012  53.499  1.00  0.00     0.052 A 
HETATM    8  C13 UNL     1      23.358   1.674  53.095  1.00  0.00     0.058 A 
HETATM    9  C14 UNL     1      22.772   0.459  52.749  1.00  0.00     0.044 A 
HETATM   10  N2  UNL     1      23.650  -0.550  52.858  1.00  0.00    -0.263 NA
HETATM   11  C15 UNL     1      24.941  -0.352  53.261  1.00  0.00     0.142 A 
HETATM   12  C16 UNL     1      25.408   0.906  53.575  1.00  0.00     0.088 A 
HETATM   13  C17 UNL     1      26.762   1.187  54.006  1.00  0.00     0.103 C 
HETATM   14  N3  UNL     1      27.853   1.393  54.348  1.00  0.00    -0.191 NA
HETATM   15  C18 UNL     1      21.388   0.237  52.251  1.00  0.00     0.154 C 
HETATM   16  C19 UNL     1      20.737   0.941  51.224  1.00  0.00     0.051 C 
HETATM   17  C20 UNL     1      19.341   0.399  51.029  1.00  0.00     0.041 C 
HETATM   18  O2  UNL     1      20.736   1.993  50.196  1.00  0.00    -0.377 OA
HETATM   19  C21 UNL     1      21.838   2.102  49.346  1.00  0.00     0.152 C 
HETATM   20  C22 UNL     1      21.605   1.608  47.944  1.00  0.00     0.042 C 
HETATM   21  H11 UNL     1      25.745   3.508  54.248  1.00  0.00     0.160 HD
ENDROOT
BRANCH   1  22
HETATM   22  O1  UNL     1      21.480   4.428  48.897  1.00  0.00    -0.366 OA
BRANCH  22  23
HETATM   23  C7  UNL     1      21.917   5.302  47.917  1.00  0.00     0.262 C 
BRANCH  23  24
HETATM   24  C6  UNL     1      23.298   5.746  48.114  1.00  0.00    -0.080 C 
HETATM   25  C5  UNL     1      24.432   6.124  48.261  1.00  0.00    -0.097 C 
BRANCH  25  26
HETATM   26  C4  UNL     1      25.808   6.603  48.421  1.00  0.00     0.172 C 
BRANCH  26  27
HETATM   27  C3  UNL     1      26.657   5.498  48.819  1.00  0.00     0.145 C 
HETATM   28  F1  UNL     1      26.354   4.452  49.564  1.00  0.00    -0.201 F 
BRANCH  27  29
HETATM   29  C2  UNL     1      27.909   5.453  48.431  1.00  0.00    -0.117 C 
HETATM   30  C1  UNL     1      29.204   5.611  48.199  1.00  0.00     0.099 C 
ENDBRANCH  27  29
ENDBRANCH  26  27
ENDBRANCH  25  26
ENDBRANCH  23  24
ENDBRANCH  22  23
ENDBRANCH   1  22
TORSDOF 6
ENDMDL
MODEL 7
REMARK VINA RESULT:      -7.3      4.358      7.868
REMARK  6 active torsions:
REMARK  status: ('A' for Active; 'I' for Inactive)
REMARK    1  A    between atoms: C2_2  and  C3_3 
REMARK    2  A    between atoms: C3_3  and  C4_5 
REMARK    3  A    between atoms: C4_5  and  C5_6 
REMARK    4  A    between atoms: C6_7  and  C7_8 
REMARK    5  A    between atoms: C7_8  and  O1_9 
REMARK    6  A    between atoms: O1_9  and  C8_10 
ROOT
HETATM    1  C8  UNL     1      23.328   4.522  51.014  1.00  0.00     0.195 C 
HETATM    2  C9  UNL     1      22.618   3.704  50.014  1.00  0.00     0.041 C 
HETATM    3 CL1  UNL     1      24.140   2.874  49.781  1.00  0.00    -0.086 Cl
HETATM    4  C10 UNL     1      21.843   3.096  49.156  1.00  0.00     0.015 C 
HETATM    5  C11 UNL     1      21.380   2.122  48.149  1.00  0.00     0.148 C 
HETATM    6  N1  UNL     1      20.161   1.450  48.613  1.00  0.00    -0.385 N 
HETATM    7  C12 UNL     1      20.068   0.947  49.932  1.00  0.00     0.052 A 
HETATM    8  C13 UNL     1      21.212   0.780  50.627  1.00  0.00     0.058 A 
HETATM    9  C14 UNL     1      21.476   0.391  51.939  1.00  0.00     0.044 A 
HETATM   10  N2  UNL     1      20.339   0.135  52.605  1.00  0.00    -0.263 NA
HETATM   11  C15 UNL     1      19.109   0.258  52.022  1.00  0.00     0.142 A 
HETATM   12  C16 UNL     1      18.976   0.657  50.709  1.00  0.00     0.088 A 
HETATM   13  C17 UNL     1      17.705   0.810  50.031  1.00  0.00     0.103 C 
HETATM   14  N3  UNL     1      16.676   0.929  49.504  1.00  0.00    -0.191 NA
HETATM   15  C18 UNL     1      22.804   0.312  52.604  1.00  0.00     0.154 C 
HETATM   16  C19 UNL     1      23.808   1.294  52.603  1.00  0.00     0.051 C 
HETATM   17  C20 UNL     1      24.999   0.816  53.399  1.00  0.00     0.041 C 
HETATM   18  O2  UNL     1      24.304   2.616  52.192  1.00  0.00    -0.377 OA
HETATM   19  C21 UNL     1      23.457   3.720  52.322  1.00  0.00     0.152 C 
HETATM   20  C22 UNL     1      23.793   4.643  53.460  1.00  0.00     0.042 C 
HETATM   21  H11 UNL     1      19.285   1.276  48.091  1.00  0.00     0.160 HD
ENDROOT
BRANCH   1  22
HETATM   22  O1  UNL     1      24.549   4.976  50.598  1.00  0.00    -0.366 OA
BRANCH  22  23
HETATM   23  C7  UNL     1      24.504   6.149  49.866  1.00  0.00     0.262 C 
BRANCH  23  24
HETATM   24  C6  UNL     1      25.763   6.454  49.185  1.00  0.00    -0.080 C 
HETATM   25  C5  UNL     1      26.810   6.688  48.635  1.00  0.00    -0.097 C 
BRANCH  25  26
HETATM   26  C4  UNL     1      28.092   6.952  47.976  1.00  0.00     0.172 C 
BRANCH  26  27
HETATM   27  C3  UNL     1      28.939   5.782  48.089  1.00  0.00     0.145 C 
HETATM   28  F1  UNL     1      28.587   4.512  48.165  1.00  0.00    -0.201 F 
BRANCH  27  29
HETATM   29  C2  UNL     1      30.243   5.911  48.129  1.00  0.00    -0.117 C 
HETATM   30  C1  UNL     1      31.555   5.911  47.943  1.00  0.00     0.099 C 
ENDBRANCH  27  29
ENDBRANCH  26  27
ENDBRANCH  25  26
ENDBRANCH  23  24
ENDBRANCH  22  23
ENDBRANCH   1  22
TORSDOF 6
ENDMDL
MODEL 8
REMARK VINA RESULT:      -7.2      3.380      5.826
REMARK  6 active torsions:
REMARK  status: ('A' for Active; 'I' for Inactive)
REMARK    1  A    between atoms: C2_2  and  C3_3 
REMARK    2  A    between atoms: C3_3  and  C4_5 
REMARK    3  A    between atoms: C4_5  and  C5_6 
REMARK    4  A    between atoms: C6_7  and  C7_8 
REMARK    5  A    between atoms: C7_8  and  O1_9 
REMARK    6  A    between atoms: O1_9  and  C8_10 
ROOT
HETATM    1  C8  UNL     1      24.561   3.382  50.486  1.00  0.00     0.195 C 
HETATM    2  C9  UNL     1      23.293   3.008  51.138  1.00  0.00     0.041 C 
HETATM    3 CL1  UNL     1      23.790   4.056  52.446  1.00  0.00    -0.086 Cl
HETATM    4  C10 UNL     1      22.148   2.554  51.573  1.00  0.00     0.015 C 
HETATM    5  C11 UNL     1      20.953   2.384  52.422  1.00  0.00     0.148 C 
HETATM    6  N1  UNL     1      19.734   2.603  51.637  1.00  0.00    -0.385 N 
HETATM    7  C12 UNL     1      19.621   3.713  50.766  1.00  0.00     0.052 A 
HETATM    8  C13 UNL     1      20.486   4.735  50.932  1.00  0.00     0.058 A 
HETATM    9  C14 UNL     1      20.705   5.915  50.224  1.00  0.00     0.044 A 
HETATM   10  N2  UNL     1      19.863   6.018  49.183  1.00  0.00    -0.263 NA
HETATM   11  C15 UNL     1      18.932   5.057  48.902  1.00  0.00     0.142 A 
HETATM   12  C16 UNL     1      18.813   3.925  49.679  1.00  0.00     0.088 A 
HETATM   13  C17 UNL     1      17.852   2.869  49.436  1.00  0.00     0.103 C 
HETATM   14  N3  UNL     1      17.076   2.031  49.224  1.00  0.00    -0.191 NA
HETATM   15  C18 UNL     1      21.753   6.938  50.482  1.00  0.00     0.154 C 
HETATM   16  C19 UNL     1      23.123   6.709  50.690  1.00  0.00     0.051 C 
HETATM   17  C20 UNL     1      23.838   8.020  50.914  1.00  0.00     0.041 C 
HETATM   18  O2  UNL     1      24.262   5.787  50.807  1.00  0.00    -0.377 OA
HETATM   19  C21 UNL     1      24.409   4.778  49.852  1.00  0.00     0.152 C 
HETATM   20  C22 UNL     1      25.507   5.010  48.851  1.00  0.00     0.042 C 
HETATM   21  H11 UNL     1      18.875   2.027  51.609  1.00  0.00     0.160 HD
ENDROOT
BRANCH   1  22
HETATM   22  O1  UNL     1      25.648   3.338  51.314  1.00  0.00    -0.366 OA
BRANCH  22  23
HETATM   23  C7  UNL     1      26.573   2.361  50.991  1.00  0.00     0.262 C 
BRANCH  23  24
HETATM   24  C6  UNL     1      26.446   1.153  51.808  1.00  0.00    -0.080 C 
HETATM   25  C5  UNL     1      26.352   0.168  52.495  1.00  0.00    -0.097 C 
BRANCH  25  26
HETATM   26  C4  UNL     1      26.249  -1.017  53.351  1.00  0.00     0.172 C 
BRANCH  26  27
HETATM   27  C3  UNL     1      25.203  -0.811  54.332  1.00  0.00     0.145 C 
HETATM   28  F1  UNL     1      25.299  -0.795  55.649  1.00  0.00    -0.201 F 
BRANCH  27  29
HETATM   29  C2  UNL     1      23.967  -0.606  53.948  1.00  0.00    -0.117 C 
HETATM   30  C1  UNL     1      22.658  -0.575  53.744  1.00  0.00     0.099 C 
ENDBRANCH  27  29
ENDBRANCH  26  27
ENDBRANCH  25  26
ENDBRANCH  23  24
ENDBRANCH  22  23
ENDBRANCH   1  22
TORSDOF 6
ENDMDL
MODEL 9
REMARK VINA RESULT:      -7.0      1.965      2.620
REMARK  6 active torsions:
REMARK  status: ('A' for Active; 'I' for Inactive)
REMARK    1  A    between atoms: C2_2  and  C3_3 
REMARK    2  A    between atoms: C3_3  and  C4_5 
REMARK    3  A    between atoms: C4_5  and  C5_6 
REMARK    4  A    between atoms: C6_7  and  C7_8 
REMARK    5  A    between atoms: C7_8  and  O1_9 
REMARK    6  A    between atoms: O1_9  and  C8_10 
ROOT
HETATM    1  C8  UNL     1      21.978   4.255  50.328  1.00  0.00     0.195 C 
HETATM    2  C9  UNL     1      23.429   4.465  50.168  1.00  0.00     0.041 C 
HETATM    3 CL1  UNL     1      23.324   3.354  48.821  1.00  0.00    -0.086 Cl
HETATM    4  C10 UNL     1      24.703   4.751  50.186  1.00  0.00     0.015 C 
HETATM    5  C11 UNL     1      26.122   4.803  49.781  1.00  0.00     0.148 C 
HETATM    6  N1  UNL     1      26.560   6.196  49.641  1.00  0.00    -0.385 N 
HETATM    7  C12 UNL     1      25.767   7.140  48.947  1.00  0.00     0.052 A 
HETATM    8  C13 UNL     1      24.799   6.673  48.131  1.00  0.00     0.058 A 
HETATM    9  C14 UNL     1      23.810   7.303  47.378  1.00  0.00     0.044 A 
HETATM   10  N2  UNL     1      23.875   8.637  47.514  1.00  0.00    -0.263 NA
HETATM   11  C15 UNL     1      24.809   9.245  48.305  1.00  0.00     0.142 A 
HETATM   12  C16 UNL     1      25.738   8.510  49.009  1.00  0.00     0.088 A 
HETATM   13  C17 UNL     1      26.753   9.088  49.866  1.00  0.00     0.103 C 
HETATM   14  N3  UNL     1      27.558   9.570  50.550  1.00  0.00    -0.191 NA
HETATM   15  C18 UNL     1      22.750   6.653  46.562  1.00  0.00     0.154 C 
HETATM   16  C19 UNL     1      21.900   5.608  46.960  1.00  0.00     0.051 C 
HETATM   17  C20 UNL     1      20.965   5.243  45.832  1.00  0.00     0.041 C 
HETATM   18  O2  UNL     1      21.446   4.645  47.975  1.00  0.00    -0.377 OA
HETATM   19  C21 UNL     1      21.228   5.096  49.278  1.00  0.00     0.152 C 
HETATM   20  C22 UNL     1      19.781   5.231  49.666  1.00  0.00     0.042 C 
HETATM   21  H11 UNL     1      27.423   6.636  50.002  1.00  0.00     0.160 HD
ENDROOT
BRANCH   1  22
HETATM   22  O1  UNL     1      21.595   2.944  50.268  1.00  0.00    -0.366 OA
BRANCH  22  23
HETATM   23  C7  UNL     1      21.304   2.376  51.496  1.00  0.00     0.262 C 
BRANCH  23  24
HETATM   24  C6  UNL     1      22.408   1.585  52.041  1.00  0.00    -0.080 C 
HETATM   25  C5  UNL     1      23.329   0.940  52.475  1.00  0.00    -0.097 C 
BRANCH  25  26
HETATM   26  C4  UNL     1      24.464   0.165  52.983  1.00  0.00     0.172 C 
BRANCH  26  27
HETATM   27  C3  UNL     1      24.049  -0.583  54.152  1.00  0.00     0.145 C 
HETATM   28  F1  UNL     1      24.767  -0.946  55.198  1.00  0.00    -0.201 F 
BRANCH  27  29
HETATM   29  C2  UNL     1      22.809  -0.995  54.268  1.00  0.00    -0.117 C 
HETATM   30  C1  UNL     1      21.603  -1.396  54.642  1.00  0.00     0.099 C 
ENDBRANCH  27  29
ENDBRANCH  26  27
ENDBRANCH  25  26
ENDBRANCH  23  24
ENDBRANCH  22  23
ENDBRANCH   1  22
TORSDOF 6
ENDMDL
