MODEL 1
REMARK VINA RESULT:      -8.4      0.000      0.000
REMARK  4 active torsions:
REMARK  status: ('A' for Active; 'I' for Inactive)
REMARK    1  A    between atoms: C4_5  and  N1_6 
REMARK    2  A    between atoms: N1_6  and  C5_7 
REMARK    3  A    between atoms: C5_7  and  C6_8 
REMARK    4  A    between atoms: N2_9  and  C7_10 
ROOT
HETATM    1  C7  UNL     1      23.520   3.468  49.525  1.00  0.00     0.184 C 
HETATM    2  C8  UNL     1      22.970   2.747  48.544  1.00  0.00     0.142 C 
HETATM    3  N3  UNL     1      22.004   1.715  48.517  1.00  0.00    -0.391 N 
HETATM    4  C9  UNL     1      21.259   1.190  49.626  1.00  0.00     0.160 C 
HETATM    5  C10 UNL     1      21.967   1.201  50.916  1.00  0.00    -0.005 A 
HETATM    6  C11 UNL     1      21.685   0.046  51.653  1.00  0.00     0.035 A 
HETATM    7  C12 UNL     1      22.206  -0.214  52.894  1.00  0.00     0.034 A 
HETATM    8 CL1  UNL     1      21.795  -1.693  53.745  1.00  0.00    -0.084 Cl
HETATM    9  C13 UNL     1      23.058   0.719  53.449  1.00  0.00     0.026 A 
HETATM   10  C14 UNL     1      23.383   1.885  52.783  1.00  0.00     0.039 A 
HETATM   11  C15 UNL     1      22.832   2.096  51.536  1.00  0.00     0.086 A 
HETATM   12  O1  UNL     1      23.181   3.291  50.880  1.00  0.00    -0.290 OA
HETATM   13  H8  UNL     1      21.794   1.270  47.593  1.00  0.00     0.159 HD
ENDROOT
BRANCH   1  14
HETATM   14  N2  UNL     1      24.492   4.458  49.205  1.00  0.00    -0.238 NA
HETATM   15  C6  UNL     1      25.762   4.316  49.383  1.00  0.00     0.112 C 
BRANCH  15  16
HETATM   16  C5  UNL     1      26.464   3.127  49.944  1.00  0.00     0.166 C 
BRANCH  16  17
HETATM   17  N1  UNL     1      26.518   3.178  51.381  1.00  0.00    -0.385 N 
HETATM   18  H3  UNL     1      26.108   3.990  51.893  1.00  0.00     0.160 HD
BRANCH  17  19
HETATM   19  C4  UNL     1      27.124   2.135  52.132  1.00  0.00     0.029 A 
HETATM   20  C3  UNL     1      28.109   2.346  53.056  1.00  0.00     0.032 A 
HETATM   21  C2  UNL     1      28.695   1.332  53.783  1.00  0.00     0.046 A 
HETATM   22  C1  UNL     1      28.293   0.023  53.597  1.00  0.00     0.138 A 
HETATM   23  F1  UNL     1      28.846  -1.001  54.293  1.00  0.00    -0.204 F 
HETATM   24  C17 UNL     1      27.297  -0.231  52.668  1.00  0.00     0.074 A 
HETATM   25  C16 UNL     1      26.742   0.822  51.965  1.00  0.00     0.056 A 
HETATM   26 CL2  UNL     1      26.760  -1.881  52.403  1.00  0.00    -0.081 Cl
ENDBRANCH  17  19
ENDBRANCH  16  17
ENDBRANCH  15  16
ENDBRANCH   1  14
TORSDOF 4
ENDMDL
MODEL 2
REMARK VINA RESULT:      -8.1      2.781      5.061
REMARK  4 active torsions:
REMARK  status: ('A' for Active; 'I' for Inactive)
REMARK    1  A    between atoms: C4_5  and  N1_6 
REMARK    2  A    between atoms: N1_6  and  C5_7 
REMARK    3  A    between atoms: C5_7  and  C6_8 
REMARK    4  A    between atoms: N2_9  and  C7_10 
ROOT
HETATM    1  C7  UNL     1      23.553   4.175  51.322  1.00  0.00     0.184 C 
HETATM    2  C8  UNL     1      23.237   5.410  51.719  1.00  0.00     0.142 C 
HETATM    3  N3  UNL     1      23.518   6.700  51.212  1.00  0.00    -0.391 N 
HETATM    4  C9  UNL     1      24.214   7.025  50.000  1.00  0.00     0.160 C 
HETATM    5  C10 UNL     1      25.267   6.075  49.608  1.00  0.00    -0.005 A 
HETATM    6  C11 UNL     1      26.374   6.744  49.076  1.00  0.00     0.035 A 
HETATM    7  C12 UNL     1      27.504   6.113  48.627  1.00  0.00     0.034 A 
HETATM    8 CL1  UNL     1      28.847   7.036  47.973  1.00  0.00    -0.084 Cl
HETATM    9  C13 UNL     1      27.553   4.735  48.704  1.00  0.00     0.026 A 
HETATM   10  C14 UNL     1      26.499   4.005  49.217  1.00  0.00     0.039 A 
HETATM   11  C15 UNL     1      25.385   4.690  49.655  1.00  0.00     0.086 A 
HETATM   12  O1  UNL     1      24.327   3.921  50.173  1.00  0.00    -0.290 OA
HETATM   13  H8  UNL     1      23.191   7.524  51.769  1.00  0.00     0.159 HD
ENDROOT
BRANCH   1  14
HETATM   14  N2  UNL     1      23.099   3.058  52.079  1.00  0.00    -0.238 NA
HETATM   15  C6  UNL     1      23.784   2.480  53.007  1.00  0.00     0.112 C 
BRANCH  15  16
HETATM   16  C5  UNL     1      25.154   2.842  53.471  1.00  0.00     0.166 C 
BRANCH  16  17
HETATM   17  N1  UNL     1      26.156   2.421  52.527  1.00  0.00    -0.385 N 
HETATM   18  H3  UNL     1      26.174   2.826  51.566  1.00  0.00     0.160 HD
BRANCH  17  19
HETATM   19  C4  UNL     1      27.136   1.453  52.877  1.00  0.00     0.029 A 
HETATM   20  C3  UNL     1      28.332   1.768  53.458  1.00  0.00     0.032 A 
HETATM   21  C2  UNL     1      29.280   0.827  53.796  1.00  0.00     0.046 A 
HETATM   22  C1  UNL     1      29.047  -0.513  53.551  1.00  0.00     0.138 A 
HETATM   23  F1  UNL     1      29.956  -1.468  53.870  1.00  0.00    -0.204 F 
HETATM   24  C17 UNL     1      27.846  -0.872  52.962  1.00  0.00     0.074 A 
HETATM   25  C16 UNL     1      26.928   0.111  52.642  1.00  0.00     0.056 A 
HETATM   26 CL2  UNL     1      27.512  -2.564  52.634  1.00  0.00    -0.081 Cl
ENDBRANCH  17  19
ENDBRANCH  16  17
ENDBRANCH  15  16
ENDBRANCH   1  14
TORSDOF 4
ENDMDL
MODEL 3
REMARK VINA RESULT:      -8.0      3.342      6.151
REMARK  4 active torsions:
REMARK  status: ('A' for Active; 'I' for Inactive)
REMARK    1  A    between atoms: C4_5  and  N1_6 
REMARK    2  A    between atoms: N1_6  and  C5_7 
REMARK    3  A    between atoms: C5_7  and  C6_8 
REMARK    4  A    between atoms: N2_9  and  C7_10 
ROOT
HETATM    1  C7  UNL     1      24.592   1.313  52.886  1.00  0.00     0.184 C 
HETATM    2  C8  UNL     1      25.130   2.350  53.533  1.00  0.00     0.142 C 
HETATM    3  N3  UNL     1      26.460   2.761  53.782  1.00  0.00    -0.391 N 
HETATM    4  C9  UNL     1      27.665   2.148  53.298  1.00  0.00     0.160 C 
HETATM    5  C10 UNL     1      27.598   0.689  53.123  1.00  0.00    -0.005 A 
HETATM    6  C11 UNL     1      28.800   0.083  53.505  1.00  0.00     0.035 A 
HETATM    7  C12 UNL     1      29.026  -1.268  53.449  1.00  0.00     0.034 A 
HETATM    8 CL1  UNL     1      30.568  -1.940  53.950  1.00  0.00    -0.084 Cl
HETATM    9  C13 UNL     1      28.007  -2.078  52.988  1.00  0.00     0.026 A 
HETATM   10  C14 UNL     1      26.792  -1.552  52.592  1.00  0.00     0.039 A 
HETATM   11  C15 UNL     1      26.618  -0.186  52.669  1.00  0.00     0.086 A 
HETATM   12  O1  UNL     1      25.371   0.320  52.260  1.00  0.00    -0.290 OA
HETATM   13  H8  UNL     1      26.604   3.604  54.386  1.00  0.00     0.159 HD
ENDROOT
BRANCH   1  14
HETATM   14  N2  UNL     1      23.176   1.190  52.817  1.00  0.00    -0.238 NA
HETATM   15  C6  UNL     1      22.474   1.431  51.762  1.00  0.00     0.112 C 
BRANCH  15  16
HETATM   16  C5  UNL     1      22.975   1.877  50.430  1.00  0.00     0.166 C 
BRANCH  16  17
HETATM   17  N1  UNL     1      23.199   3.298  50.403  1.00  0.00    -0.385 N 
HETATM   18  H3  UNL     1      22.465   3.952  50.752  1.00  0.00     0.160 HD
BRANCH  17  19
HETATM   19  C4  UNL     1      24.415   3.842  49.906  1.00  0.00     0.029 A 
HETATM   20  C3  UNL     1      25.610   3.181  49.954  1.00  0.00     0.032 A 
HETATM   21  C2  UNL     1      26.788   3.711  49.471  1.00  0.00     0.046 A 
HETATM   22  C1  UNL     1      26.801   4.971  48.904  1.00  0.00     0.138 A 
HETATM   23  F1  UNL     1      27.939   5.525  48.418  1.00  0.00    -0.204 F 
HETATM   24  C17 UNL     1      25.608   5.672  48.838  1.00  0.00     0.074 A 
HETATM   25  C16 UNL     1      24.455   5.096  49.337  1.00  0.00     0.056 A 
HETATM   26 CL2  UNL     1      25.583   7.276  48.125  1.00  0.00    -0.081 Cl
ENDBRANCH  17  19
ENDBRANCH  16  17
ENDBRANCH  15  16
ENDBRANCH   1  14
TORSDOF 4
ENDMDL
MODEL 4
REMARK VINA RESULT:      -7.8      3.798      6.375
REMARK  4 active torsions:
REMARK  status: ('A' for Active; 'I' for Inactive)
REMARK    1  A    between atoms: C4_5  and  N1_6 
REMARK    2  A    between atoms: N1_6  and  C5_7 
REMARK    3  A    between atoms: C5_7  and  C6_8 
REMARK    4  A    between atoms: N2_9  and  C7_10 
ROOT
HETATM    1  C7  UNL     1      25.043   5.622  49.487  1.00  0.00     0.184 C 
HETATM    2  C8  UNL     1      24.613   6.404  50.482  1.00  0.00     0.142 C 
HETATM    3  N3  UNL     1      24.888   7.737  50.862  1.00  0.00    -0.391 N 
HETATM    4  C9  UNL     1      25.716   8.686  50.173  1.00  0.00     0.160 C 
HETATM    5  C10 UNL     1      26.859   8.109  49.448  1.00  0.00    -0.005 A 
HETATM    6  C11 UNL     1      27.988   8.927  49.559  1.00  0.00     0.035 A 
HETATM    7  C12 UNL     1      29.199   8.640  48.985  1.00  0.00     0.034 A 
HETATM    8 CL1  UNL     1      30.563   9.728  49.179  1.00  0.00    -0.084 Cl
HETATM    9  C13 UNL     1      29.310   7.474  48.253  1.00  0.00     0.026 A 
HETATM   10  C14 UNL     1      28.239   6.616  48.097  1.00  0.00     0.039 A 
HETATM   11  C15 UNL     1      27.043   6.953  48.697  1.00  0.00     0.086 A 
HETATM   12  O1  UNL     1      25.970   6.060  48.523  1.00  0.00    -0.290 OA
HETATM   13  H8  UNL     1      24.449   8.092  51.744  1.00  0.00     0.159 HD
ENDROOT
BRANCH   1  14
HETATM   14  N2  UNL     1      24.555   4.289  49.385  1.00  0.00    -0.238 NA
HETATM   15  C6  UNL     1      25.176   3.250  49.832  1.00  0.00     0.112 C 
BRANCH  15  16
HETATM   16  C5  UNL     1      26.494   3.220  50.528  1.00  0.00     0.166 C 
BRANCH  16  17
HETATM   17  N1  UNL     1      26.350   2.829  51.906  1.00  0.00    -0.385 N 
HETATM   18  H3  UNL     1      25.647   3.302  52.515  1.00  0.00     0.160 HD
BRANCH  17  19
HETATM   19  C4  UNL     1      27.154   1.799  52.466  1.00  0.00     0.029 A 
HETATM   20  C3  UNL     1      28.279   2.039  53.203  1.00  0.00     0.032 A 
HETATM   21  C2  UNL     1      29.056   1.038  53.745  1.00  0.00     0.046 A 
HETATM   22  C1  UNL     1      28.713  -0.287  53.555  1.00  0.00     0.138 A 
HETATM   23  F1  UNL     1      29.453  -1.299  54.073  1.00  0.00    -0.204 F 
HETATM   24  C17 UNL     1      27.579  -0.570  52.812  1.00  0.00     0.074 A 
HETATM   25  C16 UNL     1      26.834   0.471  52.290  1.00  0.00     0.056 A 
HETATM   26 CL2  UNL     1      27.110  -2.241  52.549  1.00  0.00    -0.081 Cl
ENDBRANCH  17  19
ENDBRANCH  16  17
ENDBRANCH  15  16
ENDBRANCH   1  14
TORSDOF 4
ENDMDL
MODEL 5
REMARK VINA RESULT:      -7.8      4.017      6.139
REMARK  4 active torsions:
REMARK  status: ('A' for Active; 'I' for Inactive)
REMARK    1  A    between atoms: C4_5  and  N1_6 
REMARK    2  A    between atoms: N1_6  and  C5_7 
REMARK    3  A    between atoms: C5_7  and  C6_8 
REMARK    4  A    between atoms: N2_9  and  C7_10 
ROOT
HETATM    1  C7  UNL     1      24.091   2.698  52.848  1.00  0.00     0.184 C 
HETATM    2  C8  UNL     1      23.412   1.580  52.576  1.00  0.00     0.142 C 
HETATM    3  N3  UNL     1      23.625   0.214  52.869  1.00  0.00    -0.391 N 
HETATM    4  C9  UNL     1      24.681  -0.352  53.661  1.00  0.00     0.160 C 
HETATM    5  C10 UNL     1      25.961   0.371  53.606  1.00  0.00    -0.005 A 
HETATM    6  C11 UNL     1      27.040  -0.520  53.596  1.00  0.00     0.035 A 
HETATM    7  C12 UNL     1      28.352  -0.128  53.548  1.00  0.00     0.034 A 
HETATM    8 CL1  UNL     1      29.642  -1.319  53.539  1.00  0.00    -0.084 Cl
HETATM    9  C13 UNL     1      28.625   1.225  53.508  1.00  0.00     0.026 A 
HETATM   10  C14 UNL     1      27.613   2.164  53.516  1.00  0.00     0.039 A 
HETATM   11  C15 UNL     1      26.310   1.716  53.564  1.00  0.00     0.086 A 
HETATM   12  O1  UNL     1      25.300   2.696  53.571  1.00  0.00    -0.290 OA
HETATM   13  H8  UNL     1      22.949  -0.481  52.473  1.00  0.00     0.159 HD
ENDROOT
BRANCH   1  14
HETATM   14  N2  UNL     1      23.588   3.950  52.396  1.00  0.00    -0.238 NA
HETATM   15  C6  UNL     1      24.022   4.576  51.354  1.00  0.00     0.112 C 
BRANCH  15  16
HETATM   16  C5  UNL     1      25.109   4.140  50.431  1.00  0.00     0.166 C 
BRANCH  16  17
HETATM   17  N1  UNL     1      25.209   5.012  49.291  1.00  0.00    -0.385 N 
HETATM   18  H3  UNL     1      24.362   5.234  48.724  1.00  0.00     0.160 HD
BRANCH  17  19
HETATM   19  C4  UNL     1      26.452   5.588  48.912  1.00  0.00     0.029 A 
HETATM   20  C3  UNL     1      27.569   4.852  48.634  1.00  0.00     0.032 A 
HETATM   21  C2  UNL     1      28.773   5.413  48.267  1.00  0.00     0.046 A 
HETATM   22  C1  UNL     1      28.897   6.786  48.164  1.00  0.00     0.138 A 
HETATM   23  F1  UNL     1      30.065   7.374  47.806  1.00  0.00    -0.204 F 
HETATM   24  C17 UNL     1      27.786   7.566  48.440  1.00  0.00     0.074 A 
HETATM   25  C16 UNL     1      26.601   6.954  48.804  1.00  0.00     0.056 A 
HETATM   26 CL2  UNL     1      27.903   9.313  48.321  1.00  0.00    -0.081 Cl
ENDBRANCH  17  19
ENDBRANCH  16  17
ENDBRANCH  15  16
ENDBRANCH   1  14
TORSDOF 4
ENDMDL
MODEL 6
REMARK VINA RESULT:      -7.7      3.737      6.116
REMARK  4 active torsions:
REMARK  status: ('A' for Active; 'I' for Inactive)
REMARK    1  A    between atoms: C4_5  and  N1_6 
REMARK    2  A    between atoms: N1_6  and  C5_7 
REMARK    3  A    between atoms: C5_7  and  C6_8 
REMARK    4  A    between atoms: N2_9  and  C7_10 
ROOT
HETATM    1  C7  UNL     1      24.313   2.619  53.005  1.00  0.00     0.184 C 
HETATM    2  C8  UNL     1      23.668   1.470  52.787  1.00  0.00     0.142 C 
HETATM    3  N3  UNL     1      23.933   0.123  53.124  1.00  0.00    -0.391 N 
HETATM    4  C9  UNL     1      25.022  -0.378  53.914  1.00  0.00     0.160 C 
HETATM    5  C10 UNL     1      26.275   0.385  53.807  1.00  0.00    -0.005 A 
HETATM    6  C11 UNL     1      27.384  -0.468  53.807  1.00  0.00     0.035 A 
HETATM    7  C12 UNL     1      28.681  -0.035  53.719  1.00  0.00     0.034 A 
HETATM    8 CL1  UNL     1      30.011  -1.181  53.725  1.00  0.00    -0.084 Cl
HETATM    9  C13 UNL     1      28.907   1.324  53.625  1.00  0.00     0.026 A 
HETATM   10  C14 UNL     1      27.863   2.229  53.621  1.00  0.00     0.039 A 
HETATM   11  C15 UNL     1      26.577   1.739  53.711  1.00  0.00     0.086 A 
HETATM   12  O1  UNL     1      25.534   2.684  53.703  1.00  0.00    -0.290 OA
HETATM   13  H8  UNL     1      23.274  -0.608  52.765  1.00  0.00     0.159 HD
ENDROOT
BRANCH   1  14
HETATM   14  N2  UNL     1      23.759   3.836  52.519  1.00  0.00    -0.238 NA
HETATM   15  C6  UNL     1      24.117   4.413  51.421  1.00  0.00     0.112 C 
BRANCH  15  16
HETATM   16  C5  UNL     1      25.154   3.946  50.457  1.00  0.00     0.166 C 
BRANCH  16  17
HETATM   17  N1  UNL     1      25.136   4.727  49.249  1.00  0.00    -0.385 N 
HETATM   18  H3  UNL     1      24.317   4.679  48.605  1.00  0.00     0.160 HD
BRANCH  17  19
HETATM   19  C4  UNL     1      26.223   5.576  48.906  1.00  0.00     0.029 A 
HETATM   20  C3  UNL     1      26.123   6.937  48.838  1.00  0.00     0.032 A 
HETATM   21  C2  UNL     1      27.180   7.758  48.505  1.00  0.00     0.046 A 
HETATM   22  C1  UNL     1      28.418   7.215  48.219  1.00  0.00     0.138 A 
HETATM   23  F1  UNL     1      29.480   7.990  47.888  1.00  0.00    -0.204 F 
HETATM   24  C17 UNL     1      28.558   5.838  48.276  1.00  0.00     0.074 A 
HETATM   25  C16 UNL     1      27.467   5.059  48.615  1.00  0.00     0.056 A 
HETATM   26 CL2  UNL     1      30.115   5.110  47.920  1.00  0.00    -0.081 Cl
ENDBRANCH  17  19
ENDBRANCH  16  17
ENDBRANCH  15  16
ENDBRANCH   1  14
TORSDOF 4
ENDMDL
MODEL 7
REMARK VINA RESULT:      -7.5      2.831      4.971
REMARK  4 active torsions:
REMARK  status: ('A' for Active; 'I' for Inactive)
REMARK    1  A    between atoms: C4_5  and  N1_6 
REMARK    2  A    between atoms: N1_6  and  C5_7 
REMARK    3  A    between atoms: C5_7  and  C6_8 
REMARK    4  A    between atoms: N2_9  and  C7_10 
ROOT
HETATM    1  C7  UNL     1      22.223   4.630  50.262  1.00  0.00     0.184 C 
HETATM    2  C8  UNL     1      22.058   5.946  50.105  1.00  0.00     0.142 C 
HETATM    3  N3  UNL     1      22.747   6.933  49.363  1.00  0.00    -0.391 N 
HETATM    4  C9  UNL     1      23.848   6.735  48.462  1.00  0.00     0.160 C 
HETATM    5  C10 UNL     1      24.750   5.626  48.811  1.00  0.00    -0.005 A 
HETATM    6  C11 UNL     1      26.082   5.963  48.550  1.00  0.00     0.035 A 
HETATM    7  C12 UNL     1      27.141   5.123  48.777  1.00  0.00     0.034 A 
HETATM    8 CL1  UNL     1      28.782   5.632  48.418  1.00  0.00    -0.084 Cl
HETATM    9  C13 UNL     1      26.876   3.870  49.294  1.00  0.00     0.026 A 
HETATM   10  C14 UNL     1      25.586   3.465  49.577  1.00  0.00     0.039 A 
HETATM   11  C15 UNL     1      24.557   4.351  49.329  1.00  0.00     0.086 A 
HETATM   12  O1  UNL     1      23.254   3.912  49.628  1.00  0.00    -0.290 OA
HETATM   13  H8  UNL     1      22.437   7.928  49.470  1.00  0.00     0.159 HD
ENDROOT
BRANCH   1  14
HETATM   14  N2  UNL     1      21.329   3.909  51.103  1.00  0.00    -0.238 NA
HETATM   15  C6  UNL     1      21.687   3.262  52.161  1.00  0.00     0.112 C 
BRANCH  15  16
HETATM   16  C5  UNL     1      23.065   3.132  52.713  1.00  0.00     0.166 C 
BRANCH  16  17
HETATM   17  N1  UNL     1      23.700   1.922  52.259  1.00  0.00    -0.385 N 
HETATM   18  H3  UNL     1      23.343   1.428  51.412  1.00  0.00     0.160 HD
BRANCH  17  19
HETATM   19  C4  UNL     1      24.818   1.376  52.946  1.00  0.00     0.029 A 
HETATM   20  C3  UNL     1      24.798   0.159  53.568  1.00  0.00     0.032 A 
HETATM   21  C2  UNL     1      25.884  -0.368  54.234  1.00  0.00     0.046 A 
HETATM   22  C1  UNL     1      27.070   0.339  54.297  1.00  0.00     0.138 A 
HETATM   23  F1  UNL     1      28.159  -0.147  54.942  1.00  0.00    -0.204 F 
HETATM   24  C17 UNL     1      27.129   1.577  53.678  1.00  0.00     0.074 A 
HETATM   25  C16 UNL     1      26.011   2.061  53.024  1.00  0.00     0.056 A 
HETATM   26 CL2  UNL     1      28.617   2.505  53.736  1.00  0.00    -0.081 Cl
ENDBRANCH  17  19
ENDBRANCH  16  17
ENDBRANCH  15  16
ENDBRANCH   1  14
TORSDOF 4
ENDMDL
MODEL 8
REMARK VINA RESULT:      -7.4      2.932      6.092
REMARK  4 active torsions:
REMARK  status: ('A' for Active; 'I' for Inactive)
REMARK    1  A    between atoms: C4_5  and  N1_6 
REMARK    2  A    between atoms: N1_6  and  C5_7 
REMARK    3  A    between atoms: C5_7  and  C6_8 
REMARK    4  A    between atoms: N2_9  and  C7_10 
ROOT
HETATM    1  C7  UNL     1      23.426   3.427  51.700  1.00  0.00     0.184 C 
HETATM    2  C8  UNL     1      24.366   4.266  51.257  1.00  0.00     0.142 C 
HETATM    3  N3  UNL     1      25.705   4.096  50.834  1.00  0.00    -0.391 N 
HETATM    4  C9  UNL     1      26.424   2.861  50.698  1.00  0.00     0.160 C 
HETATM    5  C10 UNL     1      26.045   1.807  51.652  1.00  0.00    -0.005 A 
HETATM    6  C11 UNL     1      27.168   1.091  52.080  1.00  0.00     0.035 A 
HETATM    7  C12 UNL     1      27.116   0.050  52.970  1.00  0.00     0.034 A 
HETATM    8 CL1  UNL     1      28.579  -0.793  53.450  1.00  0.00    -0.084 Cl
HETATM    9  C13 UNL     1      25.882  -0.312  53.475  1.00  0.00     0.026 A 
HETATM   10  C14 UNL     1      24.729   0.348  53.100  1.00  0.00     0.039 A 
HETATM   11  C15 UNL     1      24.838   1.389  52.201  1.00  0.00     0.086 A 
HETATM   12  O1  UNL     1      23.646   2.043  51.837  1.00  0.00    -0.290 OA
HETATM   13  H8  UNL     1      26.251   4.955  50.590  1.00  0.00     0.159 HD
ENDROOT
BRANCH   1  14
HETATM   14  N2  UNL     1      22.144   3.936  52.052  1.00  0.00    -0.238 NA
HETATM   15  C6  UNL     1      21.073   3.756  51.356  1.00  0.00     0.112 C 
BRANCH  15  16
HETATM   16  C5  UNL     1      20.948   3.002  50.076  1.00  0.00     0.166 C 
BRANCH  16  17
HETATM   17  N1  UNL     1      21.203   1.598  50.267  1.00  0.00    -0.385 N 
HETATM   18  H3  UNL     1      21.979   1.131  49.748  1.00  0.00     0.160 HD
BRANCH  17  19
HETATM   19  C4  UNL     1      20.414   0.822  51.157  1.00  0.00     0.029 A 
HETATM   20  C3  UNL     1      19.074   0.614  50.989  1.00  0.00     0.032 A 
HETATM   21  C2  UNL     1      18.311  -0.140  51.855  1.00  0.00     0.046 A 
HETATM   22  C1  UNL     1      18.894  -0.732  52.960  1.00  0.00     0.138 A 
HETATM   23  F1  UNL     1      18.175  -1.480  53.833  1.00  0.00    -0.204 F 
HETATM   24  C17 UNL     1      20.250  -0.542  53.165  1.00  0.00     0.074 A 
HETATM   25  C16 UNL     1      20.971   0.223  52.266  1.00  0.00     0.056 A 
HETATM   26 CL2  UNL     1      21.028  -1.276  54.556  1.00  0.00    -0.081 Cl
ENDBRANCH  17  19
ENDBRANCH  16  17
ENDBRANCH  15  16
ENDBRANCH   1  14
TORSDOF 4
ENDMDL
MODEL 9
REMARK VINA RESULT:      -7.0      2.691      5.274
REMARK  4 active torsions:
REMARK  status: ('A' for Active; 'I' for Inactive)
REMARK    1  A    between atoms: C4_5  and  N1_6 
REMARK    2  A    between atoms: N1_6  and  C5_7 
REMARK    3  A    between atoms: C5_7  and  C6_8 
REMARK    4  A    between atoms: N2_9  and  C7_10 
ROOT
HETATM    1  C7  UNL     1      22.971   4.282  49.598  1.00  0.00     0.184 C 
HETATM    2  C8  UNL     1      22.112   4.639  50.557  1.00  0.00     0.142 C 
HETATM    3  N3  UNL     1      22.205   4.733  51.965  1.00  0.00    -0.391 N 
HETATM    4  C9  UNL     1      23.370   4.516  52.776  1.00  0.00     0.160 C 
HETATM    5  C10 UNL     1      24.313   3.511  52.261  1.00  0.00    -0.005 A 
HETATM    6  C11 UNL     1      24.849   2.746  53.302  1.00  0.00     0.035 A 
HETATM    7  C12 UNL     1      25.755   1.735  53.119  1.00  0.00     0.034 A 
HETATM    8 CL1  UNL     1      26.374   0.826  54.488  1.00  0.00    -0.084 Cl
HETATM    9  C13 UNL     1      26.164   1.455  51.830  1.00  0.00     0.026 A 
HETATM   10  C14 UNL     1      25.681   2.168  50.750  1.00  0.00     0.039 A 
HETATM   11  C15 UNL     1      24.769   3.175  50.991  1.00  0.00     0.086 A 
HETATM   12  O1  UNL     1      24.294   3.884  49.873  1.00  0.00    -0.290 OA
HETATM   13  H8  UNL     1      21.339   4.987  52.494  1.00  0.00     0.159 HD
ENDROOT
BRANCH   1  14
HETATM   14  N2  UNL     1      22.548   4.297  48.239  1.00  0.00    -0.238 NA
HETATM   15  C6  UNL     1      22.216   3.246  47.568  1.00  0.00     0.112 C 
BRANCH  15  16
HETATM   16  C5  UNL     1      22.202   1.836  48.053  1.00  0.00     0.166 C 
BRANCH  16  17
HETATM   17  N1  UNL     1      20.936   1.498  48.648  1.00  0.00    -0.385 N 
HETATM   18  H3  UNL     1      20.098   1.342  48.046  1.00  0.00     0.160 HD
BRANCH  17  19
HETATM   19  C4  UNL     1      20.796   1.369  50.056  1.00  0.00     0.029 A 
HETATM   20  C3  UNL     1      19.744   1.885  50.759  1.00  0.00     0.032 A 
HETATM   21  C2  UNL     1      19.612   1.758  52.125  1.00  0.00     0.046 A 
HETATM   22  C1  UNL     1      20.570   1.081  52.856  1.00  0.00     0.138 A 
HETATM   23  F1  UNL     1      20.473   0.936  54.201  1.00  0.00    -0.204 F 
HETATM   24  C17 UNL     1      21.652   0.544  52.179  1.00  0.00     0.074 A 
HETATM   25  C16 UNL     1      21.738   0.700  50.807  1.00  0.00     0.056 A 
HETATM   26 CL2  UNL     1      22.890  -0.322  53.071  1.00  0.00    -0.081 Cl
ENDBRANCH  17  19
ENDBRANCH  16  17
ENDBRANCH  15  16
ENDBRANCH   1  14
TORSDOF 4
ENDMDL
