MODEL 1
REMARK VINA RESULT:      -7.5      0.000      0.000
REMARK  4 active torsions:
REMARK  status: ('A' for Active; 'I' for Inactive)
REMARK    1  A    between atoms: C2_2  and  C3_3 
REMARK    2  A    between atoms: C6_6  and  N1_7 
REMARK    3  A    between atoms: N1_7  and  C7_8 
REMARK    4  A    between atoms: N1_7  and  C10_13 
ROOT
HETATM    1  N1  UNL     1      24.165   0.936  52.691  1.00  0.00    -0.301 N 
ENDROOT
BRANCH   1   2
HETATM    2  C6  UNL     1      25.473   0.585  53.015  1.00  0.00     0.039 A 
HETATM    3  C5  UNL     1      26.146  -0.469  52.390  1.00  0.00     0.030 A 
HETATM    4  C4  UNL     1      27.437  -0.839  52.689  1.00  0.00     0.013 A 
HETATM    5  C3  UNL     1      28.125  -0.141  53.655  1.00  0.00    -0.037 A 
HETATM    6  C16 UNL     1      27.540   0.913  54.323  1.00  0.00     0.013 A 
HETATM    7  C15 UNL     1      26.244   1.219  53.964  1.00  0.00     0.030 A 
BRANCH   5   8
HETATM    8  C2  UNL     1      29.488  -0.552  53.952  1.00  0.00     0.001 C 
HETATM    9  C1  UNL     1      29.907  -1.717  53.501  1.00  0.00     0.012 C 
ENDBRANCH   5   8
ENDBRANCH   1   2
BRANCH   1  10
HETATM   10  C7  UNL     1      23.986   2.341  52.261  1.00  0.00     0.175 A 
HETATM   11  N2  UNL     1      23.651   3.225  52.890  1.00  0.00    -0.236 NA
HETATM   12  C8  UNL     1      23.476   4.491  52.553  1.00  0.00     0.126 A 
HETATM   13  C9  UNL     1      23.733   4.804  51.262  1.00  0.00     0.072 A 
HETATM   14  S1  UNL     1      24.246   3.144  50.557  1.00  0.00    -0.062 SA
ENDBRANCH   1  10
BRANCH   1  15
HETATM   15  C10 UNL     1      22.973   0.162  52.708  1.00  0.00     0.215 A 
HETATM   16  C11 UNL     1      22.755  -0.619  53.939  1.00  0.00     0.020 A 
HETATM   17  C12 UNL     1      21.702  -0.608  54.761  1.00  0.00     0.001 A 
HETATM   18  C13 UNL     1      20.625   0.304  54.391  1.00  0.00     0.017 A 
HETATM   19  C14 UNL     1      20.642   1.089  53.326  1.00  0.00     0.085 A 
HETATM   20  N3  UNL     1      21.808   1.017  52.504  1.00  0.00    -0.375 N 
HETATM   21  H13 UNL     1      21.834   1.652  51.654  1.00  0.00     0.161 HD
ENDBRANCH   1  15
TORSDOF 4
ENDMDL
MODEL 2
REMARK VINA RESULT:      -7.1      1.807      3.829
REMARK  4 active torsions:
REMARK  status: ('A' for Active; 'I' for Inactive)
REMARK    1  A    between atoms: C2_2  and  C3_3 
REMARK    2  A    between atoms: C6_6  and  N1_7 
REMARK    3  A    between atoms: N1_7  and  C7_8 
REMARK    4  A    between atoms: N1_7  and  C10_13 
ROOT
HETATM    1  N1  UNL     1      23.932   1.056  52.891  1.00  0.00    -0.301 N 
ENDROOT
BRANCH   1   2
HETATM    2  C6  UNL     1      25.212   0.560  53.121  1.00  0.00     0.039 A 
HETATM    3  C5  UNL     1      25.841  -0.334  52.250  1.00  0.00     0.030 A 
HETATM    4  C4  UNL     1      27.104  -0.842  52.451  1.00  0.00     0.013 A 
HETATM    5  C3  UNL     1      27.807  -0.458  53.569  1.00  0.00    -0.037 A 
HETATM    6  C16 UNL     1      27.266   0.420  54.484  1.00  0.00     0.013 A 
HETATM    7  C15 UNL     1      25.995   0.882  54.207  1.00  0.00     0.030 A 
BRANCH   5   8
HETATM    8  C2  UNL     1      29.139  -1.008  53.759  1.00  0.00     0.001 C 
HETATM    9  C1  UNL     1      30.180  -0.239  53.508  1.00  0.00     0.012 C 
ENDBRANCH   5   8
ENDBRANCH   1   2
BRANCH   1  10
HETATM   10  C7  UNL     1      22.834   0.204  53.400  1.00  0.00     0.175 A 
HETATM   11  N2  UNL     1      21.749   0.190  53.062  1.00  0.00    -0.236 NA
HETATM   12  C8  UNL     1      20.738  -0.548  53.484  1.00  0.00     0.126 A 
HETATM   13  C9  UNL     1      21.016  -1.433  54.469  1.00  0.00     0.072 A 
HETATM   14  S1  UNL     1      22.844  -1.131  54.753  1.00  0.00    -0.062 SA
ENDBRANCH   1  10
BRANCH   1  15
HETATM   15  C10 UNL     1      23.509   2.249  52.246  1.00  0.00     0.215 A 
HETATM   16  C11 UNL     1      24.588   3.203  51.929  1.00  0.00     0.020 A 
HETATM   17  C12 UNL     1      24.914   3.736  50.748  1.00  0.00     0.001 A 
HETATM   18  C13 UNL     1      24.093   3.314  49.620  1.00  0.00     0.017 A 
HETATM   19  C14 UNL     1      23.084   2.462  49.705  1.00  0.00     0.085 A 
HETATM   20  N3  UNL     1      22.807   1.936  51.004  1.00  0.00    -0.375 N 
HETATM   21  H13 UNL     1      22.006   1.244  51.080  1.00  0.00     0.161 HD
ENDBRANCH   1  15
TORSDOF 4
ENDMDL
MODEL 3
REMARK VINA RESULT:      -6.9      1.901      2.651
REMARK  4 active torsions:
REMARK  status: ('A' for Active; 'I' for Inactive)
REMARK    1  A    between atoms: C2_2  and  C3_3 
REMARK    2  A    between atoms: C6_6  and  N1_7 
REMARK    3  A    between atoms: N1_7  and  C7_8 
REMARK    4  A    between atoms: N1_7  and  C10_13 
ROOT
HETATM    1  N1  UNL     1      24.837   2.439  51.711  1.00  0.00    -0.301 N 
ENDROOT
BRANCH   1   2
HETATM    2  C6  UNL     1      25.840   1.684  52.312  1.00  0.00     0.039 A 
HETATM    3  C5  UNL     1      26.641   2.183  53.344  1.00  0.00     0.030 A 
HETATM    4  C4  UNL     1      27.640   1.462  53.956  1.00  0.00     0.013 A 
HETATM    5  C3  UNL     1      27.879   0.171  53.546  1.00  0.00    -0.037 A 
HETATM    6  C16 UNL     1      27.139  -0.403  52.535  1.00  0.00     0.013 A 
HETATM    7  C15 UNL     1      26.157   0.387  51.974  1.00  0.00     0.030 A 
BRANCH   5   8
HETATM    8  C2  UNL     1      28.940  -0.570  54.210  1.00  0.00     0.001 C 
HETATM    9  C1  UNL     1      29.947  -1.014  53.485  1.00  0.00     0.012 C 
ENDBRANCH   5   8
ENDBRANCH   1   2
BRANCH   1  10
HETATM   10  C7  UNL     1      25.317   3.461  50.753  1.00  0.00     0.175 A 
HETATM   11  N2  UNL     1      26.219   3.402  50.066  1.00  0.00    -0.236 NA
HETATM   12  C8  UNL     1      26.686   4.284  49.199  1.00  0.00     0.126 A 
HETATM   13  C9  UNL     1      25.995   5.443  49.099  1.00  0.00     0.072 A 
HETATM   14  S1  UNL     1      24.619   5.181  50.344  1.00  0.00    -0.062 SA
ENDBRANCH   1  10
BRANCH   1  15
HETATM   15  C10 UNL     1      23.426   2.386  51.867  1.00  0.00     0.215 A 
HETATM   16  C11 UNL     1      22.690   1.847  50.709  1.00  0.00     0.020 A 
HETATM   17  C12 UNL     1      21.831   0.825  50.665  1.00  0.00     0.001 A 
HETATM   18  C13 UNL     1      21.591   0.151  51.936  1.00  0.00     0.017 A 
HETATM   19  C14 UNL     1      22.162   0.488  53.082  1.00  0.00     0.085 A 
HETATM   20  N3  UNL     1      23.071   1.588  53.037  1.00  0.00    -0.375 N 
HETATM   21  H13 UNL     1      23.542   1.857  53.949  1.00  0.00     0.161 HD
ENDBRANCH   1  15
TORSDOF 4
ENDMDL
MODEL 4
REMARK VINA RESULT:      -6.8      2.869      5.244
REMARK  4 active torsions:
REMARK  status: ('A' for Active; 'I' for Inactive)
REMARK    1  A    between atoms: C2_2  and  C3_3 
REMARK    2  A    between atoms: C6_6  and  N1_7 
REMARK    3  A    between atoms: N1_7  and  C7_8 
REMARK    4  A    between atoms: N1_7  and  C10_13 
ROOT
HETATM    1  N1  UNL     1      24.277   2.749  51.220  1.00  0.00    -0.301 N 
ENDROOT
BRANCH   1   2
HETATM    2  C6  UNL     1      25.085   3.614  50.486  1.00  0.00     0.039 A 
HETATM    3  C5  UNL     1      24.792   4.972  50.336  1.00  0.00     0.030 A 
HETATM    4  C4  UNL     1      25.570   5.850  49.617  1.00  0.00     0.013 A 
HETATM    5  C3  UNL     1      26.710   5.383  49.004  1.00  0.00    -0.037 A 
HETATM    6  C16 UNL     1      27.077   4.058  49.098  1.00  0.00     0.013 A 
HETATM    7  C15 UNL     1      26.242   3.245  49.837  1.00  0.00     0.030 A 
BRANCH   5   8
HETATM    8  C2  UNL     1      27.515   6.331  48.250  1.00  0.00     0.001 C 
HETATM    9  C1  UNL     1      28.805   6.094  48.116  1.00  0.00     0.012 C 
ENDBRANCH   5   8
ENDBRANCH   1   2
BRANCH   1  10
HETATM   10  C7  UNL     1      25.008   1.832  52.124  1.00  0.00     0.175 A 
HETATM   11  N2  UNL     1      25.107   0.704  52.040  1.00  0.00    -0.236 NA
HETATM   12  C8  UNL     1      25.744  -0.154  52.818  1.00  0.00     0.126 A 
HETATM   13  C9  UNL     1      26.386   0.374  53.886  1.00  0.00     0.072 A 
HETATM   14  S1  UNL     1      26.010   2.201  53.697  1.00  0.00    -0.062 SA
ENDBRANCH   1  10
BRANCH   1  15
HETATM   15  C10 UNL     1      22.864   2.605  51.241  1.00  0.00     0.215 A 
HETATM   16  C11 UNL     1      22.301   1.822  50.126  1.00  0.00     0.020 A 
HETATM   17  C12 UNL     1      21.522   0.738  50.173  1.00  0.00     0.001 A 
HETATM   18  C13 UNL     1      21.185   0.264  51.511  1.00  0.00     0.017 A 
HETATM   19  C14 UNL     1      21.600   0.831  52.633  1.00  0.00     0.085 A 
HETATM   20  N3  UNL     1      22.434   1.982  52.490  1.00  0.00    -0.375 N 
HETATM   21  H13 UNL     1      22.780   2.436  53.384  1.00  0.00     0.161 HD
ENDBRANCH   1  15
TORSDOF 4
ENDMDL
MODEL 5
REMARK VINA RESULT:      -6.7      2.970      5.610
REMARK  4 active torsions:
REMARK  status: ('A' for Active; 'I' for Inactive)
REMARK    1  A    between atoms: C2_2  and  C3_3 
REMARK    2  A    between atoms: C6_6  and  N1_7 
REMARK    3  A    between atoms: N1_7  and  C7_8 
REMARK    4  A    between atoms: N1_7  and  C10_13 
ROOT
HETATM    1  N1  UNL     1      24.001   2.869  50.961  1.00  0.00    -0.301 N 
ENDROOT
BRANCH   1   2
HETATM    2  C6  UNL     1      23.562   1.786  51.717  1.00  0.00     0.039 A 
HETATM    3  C5  UNL     1      22.271   1.263  51.603  1.00  0.00     0.030 A 
HETATM    4  C4  UNL     1      21.809   0.195  52.337  1.00  0.00     0.013 A 
HETATM    5  C3  UNL     1      22.652  -0.408  53.241  1.00  0.00    -0.037 A 
HETATM    6  C16 UNL     1      23.942   0.041  53.421  1.00  0.00     0.013 A 
HETATM    7  C15 UNL     1      24.326   1.116  52.646  1.00  0.00     0.030 A 
BRANCH   5   8
HETATM    8  C2  UNL     1      22.139  -1.535  54.005  1.00  0.00     0.001 C 
HETATM    9  C1  UNL     1      20.855  -1.563  54.302  1.00  0.00     0.012 C 
ENDBRANCH   5   8
ENDBRANCH   1   2
BRANCH   1  10
HETATM   10  C7  UNL     1      23.044   3.338  49.932  1.00  0.00     0.175 A 
HETATM   11  N2  UNL     1      22.315   4.206  50.004  1.00  0.00    -0.236 NA
HETATM   12  C8  UNL     1      21.446   4.661  49.118  1.00  0.00     0.126 A 
HETATM   13  C9  UNL     1      21.403   4.005  47.935  1.00  0.00     0.072 A 
HETATM   14  S1  UNL     1      22.705   2.679  48.182  1.00  0.00    -0.062 SA
ENDBRANCH   1  10
BRANCH   1  15
HETATM   15  C10 UNL     1      25.220   3.598  51.015  1.00  0.00     0.215 A 
HETATM   16  C11 UNL     1      26.239   3.181  50.035  1.00  0.00     0.020 A 
HETATM   17  C12 UNL     1      26.872   3.920  49.120  1.00  0.00     0.001 A 
HETATM   18  C13 UNL     1      26.500   5.330  49.084  1.00  0.00     0.017 A 
HETATM   19  C14 UNL     1      25.602   5.888  49.880  1.00  0.00     0.085 A 
HETATM   20  N3  UNL     1      24.970   5.024  50.826  1.00  0.00    -0.375 N 
HETATM   21  H13 UNL     1      24.241   5.461  51.461  1.00  0.00     0.161 HD
ENDBRANCH   1  15
TORSDOF 4
ENDMDL
MODEL 6
REMARK VINA RESULT:      -6.5      2.137      4.420
REMARK  4 active torsions:
REMARK  status: ('A' for Active; 'I' for Inactive)
REMARK    1  A    between atoms: C2_2  and  C3_3 
REMARK    2  A    between atoms: C6_6  and  N1_7 
REMARK    3  A    between atoms: N1_7  and  C7_8 
REMARK    4  A    between atoms: N1_7  and  C10_13 
ROOT
HETATM    1  N1  UNL     1      24.817   2.061  51.146  1.00  0.00    -0.301 N 
ENDROOT
BRANCH   1   2
HETATM    2  C6  UNL     1      25.918   1.626  51.878  1.00  0.00     0.039 A 
HETATM    3  C5  UNL     1      26.335   0.292  51.890  1.00  0.00     0.030 A 
HETATM    4  C4  UNL     1      27.417  -0.168  52.604  1.00  0.00     0.013 A 
HETATM    5  C3  UNL     1      28.147   0.723  53.356  1.00  0.00    -0.037 A 
HETATM    6  C16 UNL     1      27.809   2.058  53.405  1.00  0.00     0.013 A 
HETATM    7  C15 UNL     1      26.711   2.436  52.660  1.00  0.00     0.030 A 
BRANCH   5   8
HETATM    8  C2  UNL     1      29.287   0.212  54.101  1.00  0.00     0.001 C 
HETATM    9  C1  UNL     1      29.845  -0.914  53.705  1.00  0.00     0.012 C 
ENDBRANCH   5   8
ENDBRANCH   1   2
BRANCH   1  10
HETATM   10  C7  UNL     1      23.531   1.431  51.523  1.00  0.00     0.175 A 
HETATM   11  N2  UNL     1      22.629   1.239  50.860  1.00  0.00    -0.236 NA
HETATM   12  C8  UNL     1      21.465   0.684  51.149  1.00  0.00     0.126 A 
HETATM   13  C9  UNL     1      21.303   0.272  52.427  1.00  0.00     0.072 A 
HETATM   14  S1  UNL     1      22.948   0.740  53.195  1.00  0.00    -0.062 SA
ENDBRANCH   1  10
BRANCH   1  15
HETATM   15  C10 UNL     1      24.728   3.012  50.094  1.00  0.00     0.215 A 
HETATM   16  C11 UNL     1      24.283   4.356  50.505  1.00  0.00     0.020 A 
HETATM   17  C12 UNL     1      24.890   5.531  50.320  1.00  0.00     0.001 A 
HETATM   18  C13 UNL     1      26.166   5.476  49.617  1.00  0.00     0.017 A 
HETATM   19  C14 UNL     1      26.730   4.363  49.175  1.00  0.00     0.085 A 
HETATM   20  N3  UNL     1      26.017   3.151  49.421  1.00  0.00    -0.375 N 
HETATM   21  H13 UNL     1      26.467   2.253  49.080  1.00  0.00     0.161 HD
ENDBRANCH   1  15
TORSDOF 4
ENDMDL
MODEL 7
REMARK VINA RESULT:      -6.4      9.046     11.737
REMARK  4 active torsions:
REMARK  status: ('A' for Active; 'I' for Inactive)
REMARK    1  A    between atoms: C2_2  and  C3_3 
REMARK    2  A    between atoms: C6_6  and  N1_7 
REMARK    3  A    between atoms: N1_7  and  C7_8 
REMARK    4  A    between atoms: N1_7  and  C10_13 
ROOT
HETATM    1  N1  UNL     1      31.782   5.605  47.329  1.00  0.00    -0.301 N 
ENDROOT
BRANCH   1   2
HETATM    2  C6  UNL     1      30.474   6.040  47.524  1.00  0.00     0.039 A 
HETATM    3  C5  UNL     1      30.017   7.279  47.065  1.00  0.00     0.030 A 
HETATM    4  C4  UNL     1      28.732   7.736  47.243  1.00  0.00     0.013 A 
HETATM    5  C3  UNL     1      27.827   6.942  47.907  1.00  0.00    -0.037 A 
HETATM    6  C16 UNL     1      28.189   5.704  48.395  1.00  0.00     0.013 A 
HETATM    7  C15 UNL     1      29.496   5.321  48.174  1.00  0.00     0.030 A 
BRANCH   5   8
HETATM    8  C2  UNL     1      26.475   7.447  48.082  1.00  0.00     0.001 C 
HETATM    9  C1  UNL     1      25.498   6.583  48.270  1.00  0.00     0.012 C 
ENDBRANCH   5   8
ENDBRANCH   1   2
BRANCH   1  10
HETATM   10  C7  UNL     1      32.811   6.664  47.432  1.00  0.00     0.175 A 
HETATM   11  N2  UNL     1      33.399   6.977  48.352  1.00  0.00    -0.236 NA
HETATM   12  C8  UNL     1      34.322   7.912  48.493  1.00  0.00     0.126 A 
HETATM   13  C9  UNL     1      34.633   8.615  47.380  1.00  0.00     0.072 A 
HETATM   14  S1  UNL     1      33.499   7.838  46.105  1.00  0.00    -0.062 SA
ENDBRANCH   1  10
BRANCH   1  15
HETATM   15  C10 UNL     1      32.289   4.307  47.047  1.00  0.00     0.215 A 
HETATM   16  C11 UNL     1      32.936   4.164  45.730  1.00  0.00     0.020 A 
HETATM   17  C12 UNL     1      34.169   3.737  45.446  1.00  0.00     0.001 A 
HETATM   18  C13 UNL     1      34.986   3.365  46.596  1.00  0.00     0.017 A 
HETATM   19  C14 UNL     1      34.582   3.431  47.854  1.00  0.00     0.085 A 
HETATM   20  N3  UNL     1      33.251   3.903  48.068  1.00  0.00    -0.375 N 
HETATM   21  H13 UNL     1      32.923   3.970  49.075  1.00  0.00     0.161 HD
ENDBRANCH   1  15
TORSDOF 4
ENDMDL
MODEL 8
REMARK VINA RESULT:      -6.4      1.721      2.520
REMARK  4 active torsions:
REMARK  status: ('A' for Active; 'I' for Inactive)
REMARK    1  A    between atoms: C2_2  and  C3_3 
REMARK    2  A    between atoms: C6_6  and  N1_7 
REMARK    3  A    between atoms: N1_7  and  C7_8 
REMARK    4  A    between atoms: N1_7  and  C10_13 
ROOT
HETATM    1  N1  UNL     1      23.542   2.783  51.240  1.00  0.00    -0.301 N 
ENDROOT
BRANCH   1   2
HETATM    2  C6  UNL     1      24.520   1.910  51.706  1.00  0.00     0.039 A 
HETATM    3  C5  UNL     1      24.269   0.960  52.701  1.00  0.00     0.030 A 
HETATM    4  C4  UNL     1      25.215   0.085  53.182  1.00  0.00     0.013 A 
HETATM    5  C3  UNL     1      26.490   0.130  52.666  1.00  0.00    -0.037 A 
HETATM    6  C16 UNL     1      26.828   1.034  51.682  1.00  0.00     0.013 A 
HETATM    7  C15 UNL     1      25.821   1.876  51.256  1.00  0.00     0.030 A 
BRANCH   5   8
HETATM    8  C2  UNL     1      27.471  -0.806  53.191  1.00  0.00     0.001 C 
HETATM    9  C1  UNL     1      28.591  -0.327  53.694  1.00  0.00     0.012 C 
ENDBRANCH   5   8
ENDBRANCH   1   2
BRANCH   1  10
HETATM   10  C7  UNL     1      24.004   4.172  51.013  1.00  0.00     0.175 A 
HETATM   11  N2  UNL     1      23.750   5.098  51.620  1.00  0.00    -0.236 NA
HETATM   12  C8  UNL     1      24.135   6.352  51.457  1.00  0.00     0.126 A 
HETATM   13  C9  UNL     1      24.962   6.590  50.413  1.00  0.00     0.072 A 
HETATM   14  S1  UNL     1      25.151   4.878  49.672  1.00  0.00    -0.062 SA
ENDBRANCH   1  10
BRANCH   1  15
HETATM   15  C10 UNL     1      22.170   2.558  50.947  1.00  0.00     0.215 A 
HETATM   16  C11 UNL     1      21.855   1.211  50.435  1.00  0.00     0.020 A 
HETATM   17  C12 UNL     1      20.982   0.319  50.911  1.00  0.00     0.001 A 
HETATM   18  C13 UNL     1      20.243   0.733  52.098  1.00  0.00     0.017 A 
HETATM   19  C14 UNL     1      20.391   1.901  52.703  1.00  0.00     0.085 A 
HETATM   20  N3  UNL     1      21.350   2.793  52.132  1.00  0.00    -0.375 N 
HETATM   21  H13 UNL     1      21.483   3.726  52.617  1.00  0.00     0.161 HD
ENDBRANCH   1  15
TORSDOF 4
ENDMDL
MODEL 9
REMARK VINA RESULT:      -6.1      2.662      5.034
REMARK  4 active torsions:
REMARK  status: ('A' for Active; 'I' for Inactive)
REMARK    1  A    between atoms: C2_2  and  C3_3 
REMARK    2  A    between atoms: C6_6  and  N1_7 
REMARK    3  A    between atoms: N1_7  and  C7_8 
REMARK    4  A    between atoms: N1_7  and  C10_13 
ROOT
HETATM    1  N1  UNL     1      23.569   4.191  51.234  1.00  0.00    -0.301 N 
ENDROOT
BRANCH   1   2
HETATM    2  C6  UNL     1      24.458   3.177  51.581  1.00  0.00     0.039 A 
HETATM    3  C5  UNL     1      24.211   2.287  52.629  1.00  0.00     0.030 A 
HETATM    4  C4  UNL     1      25.070   1.277  52.996  1.00  0.00     0.013 A 
HETATM    5  C3  UNL     1      26.246   1.115  52.300  1.00  0.00    -0.037 A 
HETATM    6  C16 UNL     1      26.573   1.948  51.251  1.00  0.00     0.013 A 
HETATM    7  C15 UNL     1      25.657   2.934  50.949  1.00  0.00     0.030 A 
BRANCH   5   8
HETATM    8  C2  UNL     1      27.137   0.040  52.707  1.00  0.00     0.001 C 
HETATM    9  C1  UNL     1      26.750  -1.205  52.513  1.00  0.00     0.012 C 
ENDBRANCH   5   8
ENDBRANCH   1   2
BRANCH   1  10
HETATM   10  C7  UNL     1      22.546   3.806  50.235  1.00  0.00     0.175 A 
HETATM   11  N2  UNL     1      22.479   4.127  49.147  1.00  0.00    -0.236 NA
HETATM   12  C8  UNL     1      21.590   3.812  48.222  1.00  0.00     0.126 A 
HETATM   13  C9  UNL     1      20.597   2.979  48.609  1.00  0.00     0.072 A 
HETATM   14  S1  UNL     1      21.028   2.675  50.408  1.00  0.00    -0.062 SA
ENDBRANCH   1  10
BRANCH   1  15
HETATM   15  C10 UNL     1      23.485   5.536  51.683  1.00  0.00     0.215 A 
HETATM   16  C11 UNL     1      24.389   6.479  51.000  1.00  0.00     0.020 A 
HETATM   17  C12 UNL     1      24.088   7.611  50.357  1.00  0.00     0.001 A 
HETATM   18  C13 UNL     1      22.672   7.958  50.326  1.00  0.00     0.017 A 
HETATM   19  C14 UNL     1      21.711   7.235  50.878  1.00  0.00     0.085 A 
HETATM   20  N3  UNL     1      22.121   6.037  51.540  1.00  0.00    -0.375 N 
HETATM   21  H13 UNL     1      21.355   5.445  51.976  1.00  0.00     0.161 HD
ENDBRANCH   1  15
TORSDOF 4
ENDMDL
