MODEL 1
REMARK VINA RESULT:      -8.6      0.000      0.000
REMARK  5 active torsions:
REMARK  status: ('A' for Active; 'I' for Inactive)
REMARK    1  A    between atoms: C3_3  and  C21_26 
REMARK    2  A    between atoms: C5_5  and  C6_6 
REMARK    3  A    between atoms: C6_6  and  C7_7 
REMARK    4  A    between atoms: C7_7  and  N1_8 
REMARK    5  A    between atoms: N1_8  and  C8_9 
ROOT
HETATM    1  C8  UNL     1      22.093   0.774  53.330  1.00  0.00     0.132 C 
HETATM    2  N2  UNL     1      21.594  -0.084  54.219  1.00  0.00    -0.224 NA
HETATM    3  C9  UNL     1      20.304  -0.790  53.837  1.00  0.00     0.235 C 
HETATM    4  N3  UNL     1      19.426  -0.479  52.841  1.00  0.00    -0.246 NA
HETATM    5  C10 UNL     1      19.569   0.599  51.907  1.00  0.00     0.038 C 
HETATM    6  C11 UNL     1      19.473   0.712  50.607  1.00  0.00     0.026 C 
HETATM    7  C12 UNL     1      19.596   1.757  49.629  1.00  0.00     0.197 C 
HETATM    8  O1  UNL     1      20.604   1.544  48.687  1.00  0.00    -0.384 OA
HETATM    9  C13 UNL     1      21.836   1.502  49.374  1.00  0.00     0.196 C 
HETATM   10  C14 UNL     1      22.155   2.740  50.066  1.00  0.00     0.009 C 
HETATM   11  C15 UNL     1      22.429   3.509  51.125  1.00  0.00    -0.027 C 
HETATM   12  C16 UNL     1      22.760   4.746  51.891  1.00  0.00     0.207 C 
HETATM   13  O2  UNL     1      23.722   4.265  52.817  1.00  0.00    -0.382 OA
HETATM   14  C17 UNL     1      23.892   2.879  52.320  1.00  0.00     0.207 C 
HETATM   15  C18 UNL     1      22.501   2.574  52.259  1.00  0.00    -0.016 C 
HETATM   16  C19 UNL     1      21.460   1.840  52.549  1.00  0.00     0.002 C 
HETATM   17  C20 UNL     1      20.002   1.939  52.350  1.00  0.00     0.102 C 
ENDROOT
BRANCH   1  18
HETATM   18  N1  UNL     1      23.464   0.428  53.136  1.00  0.00    -0.374 N 
HETATM   19  H6  UNL     1      23.942   1.145  52.469  1.00  0.00     0.161 HD
BRANCH  18  20
HETATM   20  C7  UNL     1      24.469  -0.490  53.477  1.00  0.00     0.127 C 
BRANCH  20  21
HETATM   21  C6  UNL     1      25.385  -0.291  54.596  1.00  0.00     0.019 C 
BRANCH  21  22
HETATM   22  C5  UNL     1      26.701  -0.453  54.351  1.00  0.00     0.031 A 
HETATM   23  C4  UNL     1      26.816  -0.849  52.952  1.00  0.00    -0.028 A 
HETATM   24  C3  UNL     1      28.084  -0.791  53.291  1.00  0.00     0.020 A 
HETATM   25  C2  UNL     1      28.923  -0.785  53.391  1.00  0.00    -0.055 A 
HETATM   26  C1  UNL     1      29.351  -0.774  53.449  1.00  0.00    -0.055 A 
HETATM   27  C21 UNL     1      30.176  -0.744  53.576  1.00  0.00     0.084 A 
ENDBRANCH  21  22
ENDBRANCH  20  21
ENDBRANCH  18  20
ENDBRANCH   1  18
TORSDOF 5
ENDMDL
MODEL 2
REMARK VINA RESULT:      -8.6      2.691      3.986
REMARK  5 active torsions:
REMARK  status: ('A' for Active; 'I' for Inactive)
REMARK    1  A    between atoms: C3_3  and  C21_26 
REMARK    2  A    between atoms: C5_5  and  C6_6 
REMARK    3  A    between atoms: C6_6  and  C7_7 
REMARK    4  A    between atoms: C7_7  and  N1_8 
REMARK    5  A    between atoms: N1_8  and  C8_9 
ROOT
HETATM    1  C8  UNL     1      22.951   2.233  49.834  1.00  0.00     0.132 C 
HETATM    2  N2  UNL     1      23.299   2.447  48.566  1.00  0.00    -0.224 NA
HETATM    3  C9  UNL     1      22.185   2.838  47.609  1.00  0.00     0.235 C 
HETATM    4  N3  UNL     1      20.837   2.736  47.785  1.00  0.00    -0.246 NA
HETATM    5  C10 UNL     1      20.182   2.247  48.962  1.00  0.00     0.038 C 
HETATM    6  C11 UNL     1      19.199   2.670  49.715  1.00  0.00     0.026 C 
HETATM    7  C12 UNL     1      18.503   2.223  50.889  1.00  0.00     0.197 C 
HETATM    8  O1  UNL     1      18.587   3.098  51.974  1.00  0.00    -0.384 OA
HETATM    9  C13 UNL     1      19.946   3.204  52.339  1.00  0.00     0.196 C 
HETATM   10  C14 UNL     1      20.531   1.942  52.764  1.00  0.00     0.009 C 
HETATM   11  C15 UNL     1      21.386   0.916  52.710  1.00  0.00    -0.027 C 
HETATM   12  C16 UNL     1      22.031  -0.372  53.098  1.00  0.00     0.207 C 
HETATM   13  O2  UNL     1      23.407  -0.069  52.932  1.00  0.00    -0.382 OA
HETATM   14  C17 UNL     1      23.321   1.379  52.631  1.00  0.00     0.207 C 
HETATM   15  C18 UNL     1      22.318   1.260  51.624  1.00  0.00    -0.016 C 
HETATM   16  C19 UNL     1      21.851   1.463  50.421  1.00  0.00     0.002 C 
HETATM   17  C20 UNL     1      20.665   1.037  49.657  1.00  0.00     0.102 C 
ENDROOT
BRANCH   1  18
HETATM   18  N1  UNL     1      23.827   3.013  50.648  1.00  0.00    -0.374 N 
HETATM   19  H6  UNL     1      23.459   3.044  51.672  1.00  0.00     0.161 HD
BRANCH  18  20
HETATM   20  C7  UNL     1      25.009   3.769  50.654  1.00  0.00     0.127 C 
BRANCH  20  21
HETATM   21  C6  UNL     1      26.338   3.173  50.560  1.00  0.00     0.019 C 
BRANCH  21  22
HETATM   22  C5  UNL     1      26.486   1.920  51.037  1.00  0.00     0.031 A 
HETATM   23  C4  UNL     1      27.126   2.047  52.341  1.00  0.00    -0.028 A 
HETATM   24  C3  UNL     1      26.953   0.746  52.283  1.00  0.00     0.020 A 
HETATM   25  C2  UNL     1      26.892  -0.093  52.359  1.00  0.00    -0.055 A 
HETATM   26  C1  UNL     1      26.853  -0.522  52.392  1.00  0.00    -0.055 A 
HETATM   27  C21 UNL     1      26.765  -1.351  52.443  1.00  0.00     0.084 A 
ENDBRANCH  21  22
ENDBRANCH  20  21
ENDBRANCH  18  20
ENDBRANCH   1  18
TORSDOF 5
ENDMDL
MODEL 3
REMARK VINA RESULT:      -8.5      1.628      2.453
REMARK  5 active torsions:
REMARK  status: ('A' for Active; 'I' for Inactive)
REMARK    1  A    between atoms: C3_3  and  C21_26 
REMARK    2  A    between atoms: C5_5  and  C6_6 
REMARK    3  A    between atoms: C6_6  and  C7_7 
REMARK    4  A    between atoms: C7_7  and  N1_8 
REMARK    5  A    between atoms: N1_8  and  C8_9 
ROOT
HETATM    1  C8  UNL     1      21.579   1.303  53.088  1.00  0.00     0.132 C 
HETATM    2  N2  UNL     1      20.900   0.433  53.834  1.00  0.00    -0.224 NA
HETATM    3  C9  UNL     1      19.790  -0.340  53.141  1.00  0.00     0.235 C 
HETATM    4  N3  UNL     1      19.196  -0.085  51.940  1.00  0.00    -0.246 NA
HETATM    5  C10 UNL     1      19.534   0.987  51.052  1.00  0.00     0.038 C 
HETATM    6  C11 UNL     1      19.782   1.080  49.771  1.00  0.00     0.026 C 
HETATM    7  C12 UNL     1      20.115   2.118  48.835  1.00  0.00     0.197 C 
HETATM    8  O1  UNL     1      21.346   1.943  48.198  1.00  0.00    -0.384 OA
HETATM    9  C13 UNL     1      22.351   1.970  49.188  1.00  0.00     0.196 C 
HETATM   10  C14 UNL     1      22.420   3.231  49.909  1.00  0.00     0.009 C 
HETATM   11  C15 UNL     1      22.368   4.024  50.984  1.00  0.00    -0.027 C 
HETATM   12  C16 UNL     1      22.429   5.285  51.779  1.00  0.00     0.207 C 
HETATM   13  O2  UNL     1      23.131   4.863  52.939  1.00  0.00    -0.382 OA
HETATM   14  C17 UNL     1      23.487   3.481  52.539  1.00  0.00     0.207 C 
HETATM   15  C18 UNL     1      22.177   3.107  52.119  1.00  0.00    -0.016 C 
HETATM   16  C19 UNL     1      21.130   2.327  52.141  1.00  0.00     0.002 C 
HETATM   17  C20 UNL     1      19.775   2.352  51.560  1.00  0.00     0.102 C 
ENDROOT
BRANCH   1  18
HETATM   18  N1  UNL     1      22.967   1.022  53.272  1.00  0.00    -0.374 N 
HETATM   19  H6  UNL     1      23.532   1.950  53.335  1.00  0.00     0.161 HD
BRANCH  18  20
HETATM   20  C7  UNL     1      23.915  -0.002  53.415  1.00  0.00     0.127 C 
BRANCH  20  21
HETATM   21  C6  UNL     1      25.268   0.082  52.876  1.00  0.00     0.019 C 
BRANCH  21  22
HETATM   22  C5  UNL     1      25.523   1.080  52.005  1.00  0.00     0.031 A 
HETATM   23  C4  UNL     1      26.972   1.234  51.965  1.00  0.00    -0.028 A 
HETATM   24  C3  UNL     1      26.611   2.128  51.074  1.00  0.00     0.020 A 
HETATM   25  C2  UNL     1      26.499   2.725  50.486  1.00  0.00    -0.055 A 
HETATM   26  C1  UNL     1      26.434   3.025  50.182  1.00  0.00    -0.055 A 
HETATM   27  C21 UNL     1      26.291   3.599  49.592  1.00  0.00     0.084 A 
ENDBRANCH  21  22
ENDBRANCH  20  21
ENDBRANCH  18  20
ENDBRANCH   1  18
TORSDOF 5
ENDMDL
MODEL 4
REMARK VINA RESULT:      -8.4      2.417      4.107
REMARK  5 active torsions:
REMARK  status: ('A' for Active; 'I' for Inactive)
REMARK    1  A    between atoms: C3_3  and  C21_26 
REMARK    2  A    between atoms: C5_5  and  C6_6 
REMARK    3  A    between atoms: C6_6  and  C7_7 
REMARK    4  A    between atoms: C7_7  and  N1_8 
REMARK    5  A    between atoms: N1_8  and  C8_9 
ROOT
HETATM    1  C8  UNL     1      25.029   2.386  51.413  1.00  0.00     0.132 C 
HETATM    2  N2  UNL     1      26.251   2.534  50.903  1.00  0.00    -0.224 NA
HETATM    3  C9  UNL     1      26.443   3.666  49.908  1.00  0.00     0.235 C 
HETATM    4  N3  UNL     1      25.494   4.386  49.244  1.00  0.00    -0.246 NA
HETATM    5  C10 UNL     1      24.077   4.227  49.381  1.00  0.00     0.038 C 
HETATM    6  C11 UNL     1      23.071   5.042  49.572  1.00  0.00     0.026 C 
HETATM    7  C12 UNL     1      21.644   4.942  49.707  1.00  0.00     0.197 C 
HETATM    8  O1  UNL     1      21.151   5.402  50.930  1.00  0.00    -0.384 OA
HETATM    9  C13 UNL     1      21.700   4.595  51.948  1.00  0.00     0.196 C 
HETATM   10  C14 UNL     1      21.329   3.193  51.840  1.00  0.00     0.009 C 
HETATM   11  C15 UNL     1      21.548   1.882  51.697  1.00  0.00    -0.027 C 
HETATM   12  C16 UNL     1      21.230   0.429  51.583  1.00  0.00     0.207 C 
HETATM   13  O2  UNL     1      22.251  -0.155  52.379  1.00  0.00    -0.382 OA
HETATM   14  C17 UNL     1      22.878   1.067  52.936  1.00  0.00     0.207 C 
HETATM   15  C18 UNL     1      23.013   1.744  51.688  1.00  0.00    -0.016 C 
HETATM   16  C19 UNL     1      23.708   2.373  50.779  1.00  0.00     0.002 C 
HETATM   17  C20 UNL     1      23.459   2.887  49.420  1.00  0.00     0.102 C 
ENDROOT
BRANCH   1  18
HETATM   18  N1  UNL     1      25.170   2.328  52.832  1.00  0.00    -0.374 N 
HETATM   19  H6  UNL     1      24.216   2.539  53.313  1.00  0.00     0.161 HD
BRANCH  18  20
HETATM   20  C7  UNL     1      26.072   2.095  53.881  1.00  0.00     0.127 C 
BRANCH  20  21
HETATM   21  C6  UNL     1      26.200   0.804  54.551  1.00  0.00     0.019 C 
BRANCH  21  22
HETATM   22  C5  UNL     1      27.310   0.082  54.289  1.00  0.00     0.031 A 
HETATM   23  C4  UNL     1      28.243   0.985  53.626  1.00  0.00    -0.028 A 
HETATM   24  C3  UNL     1      28.971  -0.106  53.695  1.00  0.00     0.020 A 
HETATM   25  C2  UNL     1      29.528  -0.742  53.686  1.00  0.00    -0.055 A 
HETATM   26  C1  UNL     1      29.809  -1.070  53.690  1.00  0.00    -0.055 A 
HETATM   27  C21 UNL     1      30.343  -1.712  53.709  1.00  0.00     0.084 A 
ENDBRANCH  21  22
ENDBRANCH  20  21
ENDBRANCH  18  20
ENDBRANCH   1  18
TORSDOF 5
ENDMDL
MODEL 5
REMARK VINA RESULT:      -8.4      3.497      4.767
REMARK  5 active torsions:
REMARK  status: ('A' for Active; 'I' for Inactive)
REMARK    1  A    between atoms: C3_3  and  C21_26 
REMARK    2  A    between atoms: C5_5  and  C6_6 
REMARK    3  A    between atoms: C6_6  and  C7_7 
REMARK    4  A    between atoms: C7_7  and  N1_8 
REMARK    5  A    between atoms: N1_8  and  C8_9 
ROOT
HETATM    1  C8  UNL     1      24.202   2.690  52.431  1.00  0.00     0.132 C 
HETATM    2  N2  UNL     1      24.744   1.925  53.378  1.00  0.00    -0.224 NA
HETATM    3  C9  UNL     1      24.262   0.486  53.452  1.00  0.00     0.235 C 
HETATM    4  N3  UNL     1      23.158  -0.072  52.877  1.00  0.00    -0.246 NA
HETATM    5  C10 UNL     1      22.218   0.609  52.037  1.00  0.00     0.038 C 
HETATM    6  C11 UNL     1      21.667   0.359  50.877  1.00  0.00     0.026 C 
HETATM    7  C12 UNL     1      20.723   0.994  50.000  1.00  0.00     0.197 C 
HETATM    8  O1  UNL     1      21.233   1.307  48.738  1.00  0.00    -0.384 OA
HETATM    9  C13 UNL     1      22.286   2.228  48.915  1.00  0.00     0.196 C 
HETATM   10  C14 UNL     1      21.865   3.479  49.526  1.00  0.00     0.009 C 
HETATM   11  C15 UNL     1      21.852   4.435  50.460  1.00  0.00    -0.027 C 
HETATM   12  C16 UNL     1      21.463   5.707  51.135  1.00  0.00     0.207 C 
HETATM   13  O2  UNL     1      22.716   6.184  51.601  1.00  0.00    -0.382 OA
HETATM   14  C17 UNL     1      23.621   5.189  50.979  1.00  0.00     0.207 C 
HETATM   15  C18 UNL     1      22.898   4.040  51.417  1.00  0.00    -0.016 C 
HETATM   16  C19 UNL     1      22.810   2.884  52.019  1.00  0.00     0.002 C 
HETATM   17  C20 UNL     1      21.724   1.956  52.382  1.00  0.00     0.102 C 
ENDROOT
BRANCH   1  18
HETATM   18  N1  UNL     1      25.278   3.301  51.718  1.00  0.00    -0.374 N 
HETATM   19  H6  UNL     1      25.220   4.384  51.806  1.00  0.00     0.161 HD
BRANCH  18  20
HETATM   20  C7  UNL     1      26.415   3.052  50.933  1.00  0.00     0.127 C 
BRANCH  20  21
HETATM   21  C6  UNL     1      26.431   3.204  49.482  1.00  0.00     0.019 C 
BRANCH  21  22
HETATM   22  C5  UNL     1      27.278   4.120  48.968  1.00  0.00     0.031 A 
HETATM   23  C4  UNL     1      26.528   5.367  48.871  1.00  0.00    -0.028 A 
HETATM   24  C3  UNL     1      27.708   5.762  48.449  1.00  0.00     0.020 A 
HETATM   25  C2  UNL     1      28.415   6.127  48.167  1.00  0.00    -0.055 A 
HETATM   26  C1  UNL     1      28.783   6.308  48.029  1.00  0.00    -0.055 A 
HETATM   27  C21 UNL     1      29.501   6.644  47.767  1.00  0.00     0.084 A 
ENDBRANCH  21  22
ENDBRANCH  20  21
ENDBRANCH  18  20
ENDBRANCH   1  18
TORSDOF 5
ENDMDL
MODEL 6
REMARK VINA RESULT:      -8.3      5.770      8.160
REMARK  5 active torsions:
REMARK  status: ('A' for Active; 'I' for Inactive)
REMARK    1  A    between atoms: C3_3  and  C21_26 
REMARK    2  A    between atoms: C5_5  and  C6_6 
REMARK    3  A    between atoms: C6_6  and  C7_7 
REMARK    4  A    between atoms: C7_7  and  N1_8 
REMARK    5  A    between atoms: N1_8  and  C8_9 
ROOT
HETATM    1  C8  UNL     1      27.599   5.498  48.500  1.00  0.00     0.132 C 
HETATM    2  N2  UNL     1      28.736   4.887  48.168  1.00  0.00    -0.224 NA
HETATM    3  C9  UNL     1      30.005   5.719  48.244  1.00  0.00     0.235 C 
HETATM    4  N3  UNL     1      30.131   7.074  48.334  1.00  0.00    -0.246 NA
HETATM    5  C10 UNL     1      29.049   8.011  48.405  1.00  0.00     0.038 C 
HETATM    6  C11 UNL     1      28.760   9.031  49.172  1.00  0.00     0.026 C 
HETATM    7  C12 UNL     1      27.706  10.000  49.283  1.00  0.00     0.197 C 
HETATM    8  O1  UNL     1      27.029   9.973  50.504  1.00  0.00    -0.384 OA
HETATM    9  C13 UNL     1      26.415   8.709  50.629  1.00  0.00     0.196 C 
HETATM   10  C14 UNL     1      25.433   8.437  49.591  1.00  0.00     0.009 C 
HETATM   11  C15 UNL     1      24.904   7.775  48.558  1.00  0.00    -0.027 C 
HETATM   12  C16 UNL     1      23.931   7.443  47.476  1.00  0.00     0.207 C 
HETATM   13  O2  UNL     1      23.863   6.029  47.571  1.00  0.00    -0.382 OA
HETATM   14  C17 UNL     1      24.682   5.809  48.786  1.00  0.00     0.207 C 
HETATM   15  C18 UNL     1      25.784   6.611  48.367  1.00  0.00    -0.016 C 
HETATM   16  C19 UNL     1      27.052   6.803  48.120  1.00  0.00     0.002 C 
HETATM   17  C20 UNL     1      27.867   7.879  47.529  1.00  0.00     0.102 C 
ENDROOT
BRANCH   1  18
HETATM   18  N1  UNL     1      26.941   4.670  49.459  1.00  0.00    -0.374 N 
HETATM   19  H6  UNL     1      26.509   5.282  50.249  1.00  0.00     0.161 HD
BRANCH  18  20
HETATM   20  C7  UNL     1      26.617   3.346  49.794  1.00  0.00     0.127 C 
BRANCH  20  21
HETATM   21  C6  UNL     1      26.124   2.954  51.110  1.00  0.00     0.019 C 
BRANCH  21  22
HETATM   22  C5  UNL     1      26.437   1.714  51.541  1.00  0.00     0.031 A 
HETATM   23  C4  UNL     1      25.265   1.216  52.251  1.00  0.00    -0.028 A 
HETATM   24  C3  UNL     1      26.058   0.172  52.332  1.00  0.00     0.020 A 
HETATM   25  C2  UNL     1      26.475  -0.555  52.444  1.00  0.00    -0.055 A 
HETATM   26  C1  UNL     1      26.692  -0.925  52.492  1.00  0.00    -0.055 A 
HETATM   27  C21 UNL     1      27.124  -1.635  52.574  1.00  0.00     0.084 A 
ENDBRANCH  21  22
ENDBRANCH  20  21
ENDBRANCH  18  20
ENDBRANCH   1  18
TORSDOF 5
ENDMDL
MODEL 7
REMARK VINA RESULT:      -8.1      2.663      6.814
REMARK  5 active torsions:
REMARK  status: ('A' for Active; 'I' for Inactive)
REMARK    1  A    between atoms: C3_3  and  C21_26 
REMARK    2  A    between atoms: C5_5  and  C6_6 
REMARK    3  A    between atoms: C6_6  and  C7_7 
REMARK    4  A    between atoms: C7_7  and  N1_8 
REMARK    5  A    between atoms: N1_8  and  C8_9 
ROOT
HETATM    1  C8  UNL     1      21.838   0.167  52.053  1.00  0.00     0.132 C 
HETATM    2  N2  UNL     1      22.347  -0.858  52.735  1.00  0.00    -0.224 NA
HETATM    3  C9  UNL     1      23.525  -0.556  53.645  1.00  0.00     0.235 C 
HETATM    4  N3  UNL     1      24.322   0.551  53.667  1.00  0.00    -0.246 NA
HETATM    5  C10 UNL     1      24.180   1.699  52.821  1.00  0.00     0.038 C 
HETATM    6  C11 UNL     1      24.154   2.992  53.017  1.00  0.00     0.026 C 
HETATM    7  C12 UNL     1      24.025   4.177  52.215  1.00  0.00     0.197 C 
HETATM    8  O1  UNL     1      22.913   4.962  52.527  1.00  0.00    -0.384 OA
HETATM    9  C13 UNL     1      21.758   4.191  52.277  1.00  0.00     0.196 C 
HETATM   10  C14 UNL     1      21.620   3.789  50.887  1.00  0.00     0.009 C 
HETATM   11  C15 UNL     1      21.522   2.923  49.872  1.00  0.00    -0.027 C 
HETATM   12  C16 UNL     1      21.379   2.448  48.465  1.00  0.00     0.207 C 
HETATM   13  O2  UNL     1      20.477   1.363  48.615  1.00  0.00    -0.382 OA
HETATM   14  C17 UNL     1      20.137   1.503  50.051  1.00  0.00     0.207 C 
HETATM   15  C18 UNL     1      21.483   1.598  50.511  1.00  0.00    -0.016 C 
HETATM   16  C19 UNL     1      22.480   1.224  51.269  1.00  0.00     0.002 C 
HETATM   17  C20 UNL     1      23.913   1.554  51.376  1.00  0.00     0.102 C 
ENDROOT
BRANCH   1  18
HETATM   18  N1  UNL     1      20.429   0.167  52.283  1.00  0.00    -0.374 N 
HETATM   19  H6  UNL     1      19.934   0.837  51.582  1.00  0.00     0.161 HD
BRANCH  18  20
HETATM   20  C7  UNL     1      19.401  -0.373  53.071  1.00  0.00     0.127 C 
BRANCH  20  21
HETATM   21  C6  UNL     1      18.057  -0.630  52.563  1.00  0.00     0.019 C 
BRANCH  21  22
HETATM   22  C5  UNL     1      17.535  -1.853  52.793  1.00  0.00     0.031 A 
HETATM   23  C4  UNL     1      18.325  -2.445  53.866  1.00  0.00    -0.028 A 
HETATM   24  C3  UNL     1      17.434  -3.390  53.674  1.00  0.00     0.020 A 
HETATM   25  C2  UNL     1      16.918  -4.058  53.641  1.00  0.00    -0.055 A 
HETATM   26  C1  UNL     1      16.646  -4.394  53.623  1.00  0.00    -0.055 A 
HETATM   27  C21 UNL     1      16.111  -5.033  53.577  1.00  0.00     0.084 A 
ENDBRANCH  21  22
ENDBRANCH  20  21
ENDBRANCH  18  20
ENDBRANCH   1  18
TORSDOF 5
ENDMDL
MODEL 8
REMARK VINA RESULT:      -8.1      2.905      5.316
REMARK  5 active torsions:
REMARK  status: ('A' for Active; 'I' for Inactive)
REMARK    1  A    between atoms: C3_3  and  C21_26 
REMARK    2  A    between atoms: C5_5  and  C6_6 
REMARK    3  A    between atoms: C6_6  and  C7_7 
REMARK    4  A    between atoms: C7_7  and  N1_8 
REMARK    5  A    between atoms: N1_8  and  C8_9 
ROOT
HETATM    1  C8  UNL     1      22.226   3.113  51.618  1.00  0.00     0.132 C 
HETATM    2  N2  UNL     1      21.011   3.655  51.690  1.00  0.00    -0.224 NA
HETATM    3  C9  UNL     1      20.838   5.031  51.068  1.00  0.00     0.235 C 
HETATM    4  N3  UNL     1      21.800   5.920  50.688  1.00  0.00    -0.246 NA
HETATM    5  C10 UNL     1      23.215   5.710  50.779  1.00  0.00     0.038 C 
HETATM    6  C11 UNL     1      24.225   5.859  49.960  1.00  0.00     0.026 C 
HETATM    7  C12 UNL     1      25.649   5.675  49.999  1.00  0.00     0.197 C 
HETATM    8  O1  UNL     1      26.132   4.744  49.077  1.00  0.00    -0.384 OA
HETATM    9  C13 UNL     1      25.565   3.491  49.391  1.00  0.00     0.196 C 
HETATM   10  C14 UNL     1      25.927   3.007  50.713  1.00  0.00     0.009 C 
HETATM   11  C15 UNL     1      25.700   2.600  51.966  1.00  0.00    -0.027 C 
HETATM   12  C16 UNL     1      26.008   2.100  53.338  1.00  0.00     0.207 C 
HETATM   13  O2  UNL     1      24.974   1.149  53.539  1.00  0.00    -0.382 OA
HETATM   14  C17 UNL     1      24.350   1.153  52.195  1.00  0.00     0.207 C 
HETATM   15  C18 UNL     1      24.234   2.571  52.092  1.00  0.00    -0.016 C 
HETATM   16  C19 UNL     1      23.554   3.668  51.893  1.00  0.00     0.002 C 
HETATM   17  C20 UNL     1      23.822   5.114  51.986  1.00  0.00     0.102 C 
ENDROOT
BRANCH   1  18
HETATM   18  N1  UNL     1      22.069   1.798  51.084  1.00  0.00    -0.374 N 
HETATM   19  H6  UNL     1      23.031   1.408  50.757  1.00  0.00     0.161 HD
BRANCH  18  20
HETATM   20  C7  UNL     1      21.142   0.779  50.814  1.00  0.00     0.127 C 
BRANCH  20  21
HETATM   21  C6  UNL     1      20.587  -0.089  51.847  1.00  0.00     0.019 C 
BRANCH  21  22
HETATM   22  C5  UNL     1      21.389  -0.399  52.887  1.00  0.00     0.031 A 
HETATM   23  C4  UNL     1      20.519  -0.906  53.942  1.00  0.00    -0.028 A 
HETATM   24  C3  UNL     1      21.695  -1.048  54.510  1.00  0.00     0.020 A 
HETATM   25  C2  UNL     1      22.389  -1.187  54.971  1.00  0.00    -0.055 A 
HETATM   26  C1  UNL     1      22.749  -1.260  55.199  1.00  0.00    -0.055 A 
HETATM   27  C21 UNL     1      23.454  -1.399  55.624  1.00  0.00     0.084 A 
ENDBRANCH  21  22
ENDBRANCH  20  21
ENDBRANCH  18  20
ENDBRANCH   1  18
TORSDOF 5
ENDMDL
MODEL 9
REMARK VINA RESULT:      -8.0      3.569      5.720
REMARK  5 active torsions:
REMARK  status: ('A' for Active; 'I' for Inactive)
REMARK    1  A    between atoms: C3_3  and  C21_26 
REMARK    2  A    between atoms: C5_5  and  C6_6 
REMARK    3  A    between atoms: C6_6  and  C7_7 
REMARK    4  A    between atoms: C7_7  and  N1_8 
REMARK    5  A    between atoms: N1_8  and  C8_9 
ROOT
HETATM    1  C8  UNL     1      25.409   4.660  49.205  1.00  0.00     0.132 C 
HETATM    2  N2  UNL     1      26.636   5.080  48.900  1.00  0.00    -0.224 NA
HETATM    3  C9  UNL     1      26.876   6.580  48.947  1.00  0.00     0.235 C 
HETATM    4  N3  UNL     1      25.958   7.588  48.984  1.00  0.00    -0.246 NA
HETATM    5  C10 UNL     1      24.535   7.421  49.015  1.00  0.00     0.038 C 
HETATM    6  C11 UNL     1      23.564   7.914  49.740  1.00  0.00     0.026 C 
HETATM    7  C12 UNL     1      22.134   7.791  49.810  1.00  0.00     0.197 C 
HETATM    8  O1  UNL     1      21.660   7.302  51.029  1.00  0.00    -0.384 OA
HETATM    9  C13 UNL     1      22.175   6.000  51.202  1.00  0.00     0.196 C 
HETATM   10  C14 UNL     1      21.746   5.067  50.174  1.00  0.00     0.009 C 
HETATM   11  C15 UNL     1      21.910   4.204  49.166  1.00  0.00    -0.027 C 
HETATM   12  C16 UNL     1      21.533   3.235  48.096  1.00  0.00     0.207 C 
HETATM   13  O2  UNL     1      22.528   2.235  48.246  1.00  0.00    -0.382 OA
HETATM   14  C17 UNL     1      23.205   2.722  49.471  1.00  0.00     0.207 C 
HETATM   15  C18 UNL     1      23.369   4.066  49.023  1.00  0.00    -0.016 C 
HETATM   16  C19 UNL     1      24.089   5.125  48.772  1.00  0.00     0.002 C 
HETATM   17  C20 UNL     1      23.863   6.438  48.141  1.00  0.00     0.102 C 
ENDROOT
BRANCH   1  18
HETATM   18  N1  UNL     1      25.547   3.640  50.195  1.00  0.00    -0.374 N 
HETATM   19  H6  UNL     1      24.591   3.459  50.682  1.00  0.00     0.161 HD
BRANCH  18  20
HETATM   20  C7  UNL     1      26.449   2.751  50.800  1.00  0.00     0.127 C 
BRANCH  20  21
HETATM   21  C6  UNL     1      26.028   1.659  51.671  1.00  0.00     0.019 C 
BRANCH  21  22
HETATM   22  C5  UNL     1      26.999   0.931  52.260  1.00  0.00     0.031 A 
HETATM   23  C4  UNL     1      26.462  -0.413  52.434  1.00  0.00    -0.028 A 
HETATM   24  C3  UNL     1      27.679  -0.578  52.900  1.00  0.00     0.020 A 
HETATM   25  C2  UNL     1      28.429  -0.802  53.217  1.00  0.00    -0.055 A 
HETATM   26  C1  UNL     1      28.818  -0.910  53.373  1.00  0.00    -0.055 A 
HETATM   27  C21 UNL     1      29.574  -1.104  53.669  1.00  0.00     0.084 A 
ENDBRANCH  21  22
ENDBRANCH  20  21
ENDBRANCH  18  20
ENDBRANCH   1  18
TORSDOF 5
ENDMDL
