MODEL 1
REMARK VINA RESULT:      -7.1      0.000      0.000
REMARK  4 active torsions:
REMARK  status: ('A' for Active; 'I' for Inactive)
REMARK    1  A    between atoms: C2_2  and  N1_3 
REMARK    2  A    between atoms: N2_5  and  C4_6 
REMARK    3  A    between atoms: C4_6  and  C5_7 
REMARK    4  A    between atoms: C5_7  and  O1_8 
ROOT
HETATM    1  N1  UNL     1      25.219   0.769  53.344  1.00  0.00    -0.341 N 
HETATM    2  C3  UNL     1      23.761   0.992  53.308  1.00  0.00     0.246 C 
HETATM    3  N2  UNL     1      22.856   0.294  52.615  1.00  0.00    -0.392 N 
HETATM    4  C7  UNL     1      22.221   0.682  51.462  1.00  0.00     0.145 C 
HETATM    5  C8  UNL     1      21.286   1.815  51.489  1.00  0.00    -0.010 C 
HETATM    6  C9  UNL     1      21.283   2.882  50.616  1.00  0.00     0.000 C 
HETATM    7  C10 UNL     1      22.055   3.355  49.419  1.00  0.00     0.297 C 
HETATM    8  N3  UNL     1      22.376   4.718  49.613  1.00  0.00     0.090 N 
HETATM    9  C11 UNL     1      23.564   5.155  48.790  1.00  0.00     0.297 C 
HETATM   10  C12 UNL     1      24.307   5.733  49.945  1.00  0.00     0.004 C 
HETATM   11  C13 UNL     1      25.141   4.746  50.041  1.00  0.00     0.017 C 
HETATM   12  C14 UNL     1      26.065   3.521  50.048  1.00  0.00     0.116 C 
HETATM   13  N4  UNL     1      26.808   2.867  50.624  1.00  0.00    -0.272 NA
HETATM   14  C15 UNL     1      27.506   2.608  51.764  1.00  0.00     0.138 C 
HETATM   15  C16 UNL     1      27.328   2.148  52.990  1.00  0.00     0.079 C 
HETATM   16  C17 UNL     1      28.179   2.059  53.631  1.00  0.00     0.021 C 
HETATM   17  N5  UNL     1      29.277   1.954  54.489  1.00  0.00    -0.096 N 
HETATM   18  C18 UNL     1      26.127   1.749  53.772  1.00  0.00     0.317 C 
HETATM   19  F1  UNL     1      26.509   1.308  55.056  1.00  0.00    -0.221 F 
HETATM   20  H19 UNL     1      21.587   5.298  49.286  1.00  0.00     0.316 HD
ENDROOT
BRANCH   1  21
HETATM   21  C2  UNL     1      25.566  -0.651  53.025  1.00  0.00     0.080 C 
HETATM   22  C1  UNL     1      26.224  -1.683  52.713  1.00  0.00     0.029 C 
ENDBRANCH   1  21
BRANCH   3  23
HETATM   23  C4  UNL     1      22.361  -0.917  53.178  1.00  0.00     0.145 C 
BRANCH  23  24
HETATM   24  C5  UNL     1      21.652  -0.863  54.514  1.00  0.00     0.186 C 
BRANCH  24  25
HETATM   25  O1  UNL     1      22.117  -1.992  55.273  1.00  0.00    -0.394 OA
HETATM   26  C6  UNL     1      23.358  -1.561  55.739  1.00  0.00     0.201 C 
ENDBRANCH  24  25
ENDBRANCH  23  24
ENDBRANCH   3  23
TORSDOF 4
ENDMDL
MODEL 2
REMARK VINA RESULT:      -7.1      2.556      6.242
REMARK  4 active torsions:
REMARK  status: ('A' for Active; 'I' for Inactive)
REMARK    1  A    between atoms: C2_2  and  N1_3 
REMARK    2  A    between atoms: N2_5  and  C4_6 
REMARK    3  A    between atoms: C4_6  and  C5_7 
REMARK    4  A    between atoms: C5_7  and  O1_8 
ROOT
HETATM    1  N1  UNL     1      24.568   3.660  51.885  1.00  0.00    -0.341 N 
HETATM    2  C3  UNL     1      25.183   2.758  52.877  1.00  0.00     0.246 C 
HETATM    3  N2  UNL     1      25.916   1.667  52.631  1.00  0.00    -0.392 N 
HETATM    4  C7  UNL     1      25.516   0.360  52.753  1.00  0.00     0.145 C 
HETATM    5  C8  UNL     1      25.200  -0.186  54.079  1.00  0.00    -0.010 C 
HETATM    6  C9  UNL     1      24.066  -0.897  54.412  1.00  0.00     0.000 C 
HETATM    7  C10 UNL     1      22.820  -1.399  53.744  1.00  0.00     0.297 C 
HETATM    8  N3  UNL     1      21.717  -1.063  54.561  1.00  0.00     0.090 N 
HETATM    9  C11 UNL     1      20.419  -1.017  53.790  1.00  0.00     0.297 C 
HETATM   10  C12 UNL     1      20.048   0.348  54.257  1.00  0.00     0.004 C 
HETATM   11  C13 UNL     1      20.360   0.931  53.143  1.00  0.00     0.017 C 
HETATM   12  C14 UNL     1      20.763   1.499  51.775  1.00  0.00     0.116 C 
HETATM   13  N4  UNL     1      21.071   2.410  51.154  1.00  0.00    -0.272 NA
HETATM   14  C15 UNL     1      21.336   3.743  51.076  1.00  0.00     0.138 C 
HETATM   15  C16 UNL     1      22.261   4.624  51.416  1.00  0.00     0.079 C 
HETATM   16  C17 UNL     1      22.118   5.647  51.141  1.00  0.00     0.021 C 
HETATM   17  N5  UNL     1      21.939   6.992  50.806  1.00  0.00    -0.096 N 
HETATM   18  C18 UNL     1      23.520   4.537  52.202  1.00  0.00     0.317 C 
HETATM   19  F1  UNL     1      24.149   5.799  52.251  1.00  0.00    -0.221 F 
HETATM   20  H19 UNL     1      21.588  -1.802  55.271  1.00  0.00     0.316 HD
ENDROOT
BRANCH   1  21
HETATM   21  C2  UNL     1      25.300   3.623  50.580  1.00  0.00     0.080 C 
HETATM   22  C1  UNL     1      26.080   3.927  49.635  1.00  0.00     0.029 C 
ENDBRANCH   1  21
BRANCH   3  23
HETATM   23  C4  UNL     1      27.303   1.833  52.356  1.00  0.00     0.145 C 
BRANCH  23  24
HETATM   24  C5  UNL     1      28.189   2.442  53.421  1.00  0.00     0.186 C 
BRANCH  24  25
HETATM   25  O1  UNL     1      28.238   1.499  54.506  1.00  0.00    -0.394 OA
HETATM   26  C6  UNL     1      29.122   0.531  54.032  1.00  0.00     0.201 C 
ENDBRANCH  24  25
ENDBRANCH  23  24
ENDBRANCH   3  23
TORSDOF 4
ENDMDL
MODEL 3
REMARK VINA RESULT:      -6.9      2.933      5.983
REMARK  4 active torsions:
REMARK  status: ('A' for Active; 'I' for Inactive)
REMARK    1  A    between atoms: C2_2  and  N1_3 
REMARK    2  A    between atoms: N2_5  and  C4_6 
REMARK    3  A    between atoms: C4_6  and  C5_7 
REMARK    4  A    between atoms: C5_7  and  O1_8 
ROOT
HETATM    1  N1  UNL     1      21.177   1.235  51.007  1.00  0.00    -0.341 N 
HETATM    2  C3  UNL     1      21.146   0.084  51.929  1.00  0.00     0.246 C 
HETATM    3  N2  UNL     1      20.828   0.100  53.228  1.00  0.00    -0.392 N 
HETATM    4  C7  UNL     1      21.692   0.012  54.290  1.00  0.00     0.145 C 
HETATM    5  C8  UNL     1      22.446  -1.229  54.518  1.00  0.00    -0.010 C 
HETATM    6  C9  UNL     1      23.802  -1.321  54.746  1.00  0.00     0.000 C 
HETATM    7  C10 UNL     1      24.984  -0.405  54.870  1.00  0.00     0.297 C 
HETATM    8  N3  UNL     1      26.029  -0.925  54.072  1.00  0.00     0.090 N 
HETATM    9  C11 UNL     1      27.037   0.130  53.681  1.00  0.00     0.297 C 
HETATM   10  C12 UNL     1      26.971  -0.172  52.224  1.00  0.00     0.004 C 
HETATM   11  C13 UNL     1      26.251   0.865  51.933  1.00  0.00     0.017 C 
HETATM   12  C14 UNL     1      25.402   2.126  51.720  1.00  0.00     0.116 C 
HETATM   13  N4  UNL     1      24.665   2.702  51.058  1.00  0.00    -0.272 NA
HETATM   14  C15 UNL     1      23.923   2.779  49.920  1.00  0.00     0.138 C 
HETATM   15  C16 UNL     1      22.829   2.275  49.376  1.00  0.00     0.079 C 
HETATM   16  C17 UNL     1      22.531   2.625  48.411  1.00  0.00     0.021 C 
HETATM   17  N5  UNL     1      22.136   3.056  47.142  1.00  0.00    -0.096 N 
HETATM   18  C18 UNL     1      21.874   1.213  49.790  1.00  0.00     0.317 C 
HETATM   19  F1  UNL     1      20.852   1.079  48.826  1.00  0.00    -0.221 F 
HETATM   20  H19 UNL     1      26.558  -1.620  54.623  1.00  0.00     0.316 HD
ENDROOT
BRANCH   1  21
HETATM   21  C2  UNL     1      20.263   2.328  51.462  1.00  0.00     0.080 C 
HETATM   22  C1  UNL     1      19.811   3.474  51.741  1.00  0.00     0.029 C 
ENDBRANCH   1  21
BRANCH   3  23
HETATM   23  C4  UNL     1      19.451   0.050  53.587  1.00  0.00     0.145 C 
BRANCH  23  24
HETATM   24  C5  UNL     1      18.500  -0.746  52.720  1.00  0.00     0.186 C 
BRANCH  24  25
HETATM   25  O1  UNL     1      17.315  -0.968  53.503  1.00  0.00    -0.394 OA
HETATM   26  C6  UNL     1      16.597  -1.877  52.727  1.00  0.00     0.201 C 
ENDBRANCH  24  25
ENDBRANCH  23  24
ENDBRANCH   3  23
TORSDOF 4
ENDMDL
MODEL 4
REMARK VINA RESULT:      -6.7      3.368      7.548
REMARK  4 active torsions:
REMARK  status: ('A' for Active; 'I' for Inactive)
REMARK    1  A    between atoms: C2_2  and  N1_3 
REMARK    2  A    between atoms: N2_5  and  C4_6 
REMARK    3  A    between atoms: C4_6  and  C5_7 
REMARK    4  A    between atoms: C5_7  and  O1_8 
ROOT
HETATM    1  N1  UNL     1      22.264   3.947  50.618  1.00  0.00    -0.341 N 
HETATM    2  C3  UNL     1      23.478   3.800  51.443  1.00  0.00     0.246 C 
HETATM    3  N2  UNL     1      24.635   3.235  51.082  1.00  0.00    -0.392 N 
HETATM    4  C7  UNL     1      25.101   1.999  51.454  1.00  0.00     0.145 C 
HETATM    5  C8  UNL     1      25.445   1.740  52.859  1.00  0.00    -0.010 C 
HETATM    6  C9  UNL     1      25.031   0.658  53.607  1.00  0.00     0.000 C 
HETATM    7  C10 UNL     1      24.199  -0.577  53.428  1.00  0.00     0.297 C 
HETATM    8  N3  UNL     1      23.305  -0.668  54.520  1.00  0.00     0.090 N 
HETATM    9  C11 UNL     1      22.094  -1.513  54.207  1.00  0.00     0.297 C 
HETATM   10  C12 UNL     1      21.110  -0.479  54.632  1.00  0.00     0.004 C 
HETATM   11  C13 UNL     1      20.786  -0.136  53.425  1.00  0.00     0.017 C 
HETATM   12  C14 UNL     1      20.490   0.174  51.952  1.00  0.00     0.116 C 
HETATM   13  N4  UNL     1      20.075   0.910  51.178  1.00  0.00    -0.272 NA
HETATM   14  C15 UNL     1      19.497   2.108  50.888  1.00  0.00     0.138 C 
HETATM   15  C16 UNL     1      19.789   3.396  50.825  1.00  0.00     0.079 C 
HETATM   16  C17 UNL     1      19.027   4.077  50.511  1.00  0.00     0.021 C 
HETATM   17  N5  UNL     1      18.039   4.985  50.121  1.00  0.00    -0.096 N 
HETATM   18  C18 UNL     1      20.997   4.192  51.168  1.00  0.00     0.317 C 
HETATM   19  F1  UNL     1      20.774   5.557  50.888  1.00  0.00    -0.221 F 
HETATM   20  H19 UNL     1      23.779  -1.147  55.302  1.00  0.00     0.316 HD
ENDROOT
BRANCH   1  21
HETATM   21  C2  UNL     1      22.590   3.956  49.158  1.00  0.00     0.080 C 
HETATM   22  C1  UNL     1      22.582   4.253  47.930  1.00  0.00     0.029 C 
ENDBRANCH   1  21
BRANCH   3  23
HETATM   23  C4  UNL     1      25.575   4.023  50.360  1.00  0.00     0.145 C 
BRANCH  23  24
HETATM   24  C5  UNL     1      26.619   3.321  49.518  1.00  0.00     0.186 C 
BRANCH  24  25
HETATM   25  O1  UNL     1      27.472   4.347  48.979  1.00  0.00    -0.394 OA
HETATM   26  C6  UNL     1      26.618   5.446  48.897  1.00  0.00     0.201 C 
ENDBRANCH  24  25
ENDBRANCH  23  24
ENDBRANCH   3  23
TORSDOF 4
ENDMDL
MODEL 5
REMARK VINA RESULT:      -6.5      2.841      4.358
REMARK  4 active torsions:
REMARK  status: ('A' for Active; 'I' for Inactive)
REMARK    1  A    between atoms: C2_2  and  N1_3 
REMARK    2  A    between atoms: N2_5  and  C4_6 
REMARK    3  A    between atoms: C4_6  and  C5_7 
REMARK    4  A    between atoms: C5_7  and  O1_8 
ROOT
HETATM    1  N1  UNL     1      23.534   2.899  51.978  1.00  0.00    -0.341 N 
HETATM    2  C3  UNL     1      22.677   4.084  52.174  1.00  0.00     0.246 C 
HETATM    3  N2  UNL     1      21.548   4.379  51.522  1.00  0.00    -0.392 N 
HETATM    4  C7  UNL     1      21.388   5.316  50.532  1.00  0.00     0.145 C 
HETATM    5  C8  UNL     1      21.547   6.743  50.845  1.00  0.00    -0.010 C 
HETATM    6  C9  UNL     1      22.313   7.645  50.138  1.00  0.00     0.000 C 
HETATM    7  C10 UNL     1      23.196   7.660  48.924  1.00  0.00     0.297 C 
HETATM    8  N3  UNL     1      24.395   8.328  49.260  1.00  0.00     0.090 N 
HETATM    9  C11 UNL     1      25.541   7.952  48.351  1.00  0.00     0.297 C 
HETATM   10  C12 UNL     1      26.468   7.599  49.462  1.00  0.00     0.004 C 
HETATM   11  C13 UNL     1      26.343   6.319  49.304  1.00  0.00     0.017 C 
HETATM   12  C14 UNL     1      26.110   4.831  49.013  1.00  0.00     0.116 C 
HETATM   13  N4  UNL     1      26.157   3.748  49.385  1.00  0.00    -0.272 NA
HETATM   14  C15 UNL     1      26.454   2.858  50.371  1.00  0.00     0.138 C 
HETATM   15  C16 UNL     1      25.995   2.428  51.534  1.00  0.00     0.079 C 
HETATM   16  C17 UNL     1      26.522   1.644  52.033  1.00  0.00     0.021 C 
HETATM   17  N5  UNL     1      27.210   0.632  52.709  1.00  0.00    -0.096 N 
HETATM   18  C18 UNL     1      24.868   2.848  52.410  1.00  0.00     0.317 C 
HETATM   19  F1  UNL     1      24.814   2.026  53.555  1.00  0.00    -0.221 F 
HETATM   20  H19 UNL     1      24.262   9.344  49.129  1.00  0.00     0.316 HD
ENDROOT
BRANCH   1  21
HETATM   21  C2  UNL     1      22.760   1.747  51.420  1.00  0.00     0.080 C 
HETATM   22  C1  UNL     1      22.150   0.645  51.328  1.00  0.00     0.029 C 
ENDBRANCH   1  21
BRANCH   3  23
HETATM   23  C4  UNL     1      20.333   3.789  51.972  1.00  0.00     0.145 C 
BRANCH  23  24
HETATM   24  C5  UNL     1      19.093   3.932  51.117  1.00  0.00     0.186 C 
BRANCH  24  25
HETATM   25  O1  UNL     1      17.972   3.608  51.958  1.00  0.00    -0.394 OA
HETATM   26  C6  UNL     1      16.888   4.091  51.227  1.00  0.00     0.201 C 
ENDBRANCH  24  25
ENDBRANCH  23  24
ENDBRANCH   3  23
TORSDOF 4
ENDMDL
MODEL 6
REMARK VINA RESULT:      -6.4      2.591      5.601
REMARK  4 active torsions:
REMARK  status: ('A' for Active; 'I' for Inactive)
REMARK    1  A    between atoms: C2_2  and  N1_3 
REMARK    2  A    between atoms: N2_5  and  C4_6 
REMARK    3  A    between atoms: C4_6  and  C5_7 
REMARK    4  A    between atoms: C5_7  and  O1_8 
ROOT
HETATM    1  N1  UNL     1      24.282   3.960  51.566  1.00  0.00    -0.341 N 
HETATM    2  C3  UNL     1      24.124   3.093  52.748  1.00  0.00     0.246 C 
HETATM    3  N2  UNL     1      24.607   1.858  52.912  1.00  0.00    -0.392 N 
HETATM    4  C7  UNL     1      23.904   0.681  52.847  1.00  0.00     0.145 C 
HETATM    5  C8  UNL     1      22.880   0.385  53.858  1.00  0.00    -0.010 C 
HETATM    6  C9  UNL     1      21.593  -0.041  53.605  1.00  0.00     0.000 C 
HETATM    7  C10 UNL     1      20.733  -0.373  52.421  1.00  0.00     0.297 C 
HETATM    8  N3  UNL     1      19.488   0.276  52.586  1.00  0.00     0.090 N 
HETATM    9  C11 UNL     1      18.761   0.474  51.278  1.00  0.00     0.297 C 
HETATM   10  C12 UNL     1      18.545   1.935  51.478  1.00  0.00     0.004 C 
HETATM   11  C13 UNL     1      19.473   2.295  50.649  1.00  0.00     0.017 C 
HETATM   12  C14 UNL     1      20.596   2.590  49.645  1.00  0.00     0.116 C 
HETATM   13  N4  UNL     1      21.365   3.335  49.237  1.00  0.00    -0.272 NA
HETATM   14  C15 UNL     1      21.939   4.568  49.275  1.00  0.00     0.138 C 
HETATM   15  C16 UNL     1      22.770   5.288  50.009  1.00  0.00     0.079 C 
HETATM   16  C17 UNL     1      23.018   6.274  49.680  1.00  0.00     0.021 C 
HETATM   17  N5  UNL     1      23.340   7.573  49.276  1.00  0.00    -0.096 N 
HETATM   18  C18 UNL     1      23.447   5.059  51.313  1.00  0.00     0.317 C 
HETATM   19  F1  UNL     1      24.254   6.169  51.641  1.00  0.00    -0.221 F 
HETATM   20  H19 UNL     1      18.870  -0.324  53.156  1.00  0.00     0.316 HD
ENDROOT
BRANCH   1  21
HETATM   21  C2  UNL     1      25.512   3.611  50.788  1.00  0.00     0.080 C 
HETATM   22  C1  UNL     1      26.291   3.361  49.826  1.00  0.00     0.029 C 
ENDBRANCH   1  21
BRANCH   3  23
HETATM   23  C4  UNL     1      25.954   1.712  53.350  1.00  0.00     0.145 C 
BRANCH  23  24
HETATM   24  C5  UNL     1      26.374   0.407  53.993  1.00  0.00     0.186 C 
BRANCH  24  25
HETATM   25  O1  UNL     1      27.217   0.749  55.107  1.00  0.00    -0.394 OA
HETATM   26  C6  UNL     1      28.421   0.125  54.785  1.00  0.00     0.201 C 
ENDBRANCH  24  25
ENDBRANCH  23  24
ENDBRANCH   3  23
TORSDOF 4
ENDMDL
MODEL 7
REMARK VINA RESULT:      -6.0      8.871     11.540
REMARK  4 active torsions:
REMARK  status: ('A' for Active; 'I' for Inactive)
REMARK    1  A    between atoms: C2_2  and  N1_3 
REMARK    2  A    between atoms: N2_5  and  C4_6 
REMARK    3  A    between atoms: C4_6  and  C5_7 
REMARK    4  A    between atoms: C5_7  and  O1_8 
ROOT
HETATM    1  N1  UNL     1      31.286   6.767  48.244  1.00  0.00    -0.341 N 
HETATM    2  C3  UNL     1      31.429   8.189  48.611  1.00  0.00     0.246 C 
HETATM    3  N2  UNL     1      30.535   9.164  48.423  1.00  0.00    -0.392 N 
HETATM    4  C7  UNL     1      30.576  10.148  47.468  1.00  0.00     0.145 C 
HETATM    5  C8  UNL     1      31.635  11.166  47.512  1.00  0.00    -0.010 C 
HETATM    6  C9  UNL     1      32.431  11.552  46.455  1.00  0.00     0.000 C 
HETATM    7  C10 UNL     1      32.603  11.222  45.001  1.00  0.00     0.297 C 
HETATM    8  N3  UNL     1      33.981  11.027  44.753  1.00  0.00     0.090 N 
HETATM    9  C11 UNL     1      34.234  10.191  43.522  1.00  0.00     0.297 C 
HETATM   10  C12 UNL     1      35.128   9.221  44.214  1.00  0.00     0.004 C 
HETATM   11  C13 UNL     1      34.238   8.282  44.279  1.00  0.00     0.017 C 
HETATM   12  C14 UNL     1      33.099   7.254  44.291  1.00  0.00     0.116 C 
HETATM   13  N4  UNL     1      32.654   6.302  44.746  1.00  0.00    -0.272 NA
HETATM   14  C15 UNL     1      32.736   5.278  45.639  1.00  0.00     0.138 C 
HETATM   15  C16 UNL     1      32.610   5.035  46.932  1.00  0.00     0.079 C 
HETATM   16  C17 UNL     1      32.731   4.031  47.278  1.00  0.00     0.021 C 
HETATM   17  N5  UNL     1      32.903   2.727  47.751  1.00  0.00    -0.096 N 
HETATM   18  C18 UNL     1      32.382   5.901  48.120  1.00  0.00     0.317 C 
HETATM   19  F1  UNL     1      32.314   5.112  49.288  1.00  0.00    -0.221 F 
HETATM   20  H19 UNL     1      34.419  11.942  44.559  1.00  0.00     0.316 HD
ENDROOT
BRANCH   1  21
HETATM   21  C2  UNL     1      29.848   6.358  48.183  1.00  0.00     0.080 C 
HETATM   22  C1  UNL     1      28.789   5.681  48.303  1.00  0.00     0.029 C 
ENDBRANCH   1  21
BRANCH   3  23
HETATM   23  C4  UNL     1      29.497   9.324  49.384  1.00  0.00     0.145 C 
BRANCH  23  24
HETATM   24  C5  UNL     1      28.188   9.945  48.946  1.00  0.00     0.186 C 
BRANCH  24  25
HETATM   25  O1  UNL     1      27.317   9.922  50.090  1.00  0.00    -0.394 OA
HETATM   26  C6  UNL     1      26.783   8.635  50.045  1.00  0.00     0.201 C 
ENDBRANCH  24  25
ENDBRANCH  23  24
ENDBRANCH   3  23
TORSDOF 4
ENDMDL
MODEL 8
REMARK VINA RESULT:      -6.0      3.400      6.425
REMARK  4 active torsions:
REMARK  status: ('A' for Active; 'I' for Inactive)
REMARK    1  A    between atoms: C2_2  and  N1_3 
REMARK    2  A    between atoms: N2_5  and  C4_6 
REMARK    3  A    between atoms: C4_6  and  C5_7 
REMARK    4  A    between atoms: C5_7  and  O1_8 
ROOT
HETATM    1  N1  UNL     1      22.027   3.930  49.906  1.00  0.00    -0.341 N 
HETATM    2  C3  UNL     1      20.898   2.981  49.866  1.00  0.00     0.246 C 
HETATM    3  N2  UNL     1      19.735   3.084  50.518  1.00  0.00    -0.392 N 
HETATM    4  C7  UNL     1      19.350   2.385  51.634  1.00  0.00     0.145 C 
HETATM    5  C8  UNL     1      19.143   0.933  51.550  1.00  0.00    -0.010 C 
HETATM    6  C9  UNL     1      19.661  -0.009  52.414  1.00  0.00     0.000 C 
HETATM    7  C10 UNL     1      20.519  -0.052  53.644  1.00  0.00     0.297 C 
HETATM    8  N3  UNL     1      21.509  -1.043  53.456  1.00  0.00     0.090 N 
HETATM    9  C11 UNL     1      22.718  -0.827  54.334  1.00  0.00     0.297 C 
HETATM   10  C12 UNL     1      23.698  -0.897  53.214  1.00  0.00     0.004 C 
HETATM   11  C13 UNL     1      23.900   0.382  53.169  1.00  0.00     0.017 C 
HETATM   12  C14 UNL     1      24.051   1.909  53.219  1.00  0.00     0.116 C 
HETATM   13  N4  UNL     1      24.368   2.872  52.686  1.00  0.00    -0.272 NA
HETATM   14  C15 UNL     1      24.873   3.494  51.586  1.00  0.00     0.138 C 
HETATM   15  C16 UNL     1      24.530   3.835  50.356  1.00  0.00     0.079 C 
HETATM   16  C17 UNL     1      25.235   4.374  49.760  1.00  0.00     0.021 C 
HETATM   17  N5  UNL     1      26.151   5.062  48.960  1.00  0.00    -0.096 N 
HETATM   18  C18 UNL     1      23.329   3.578  49.517  1.00  0.00     0.317 C 
HETATM   19  F1  UNL     1      23.476   4.196  48.258  1.00  0.00    -0.221 F 
HETATM   20  H19 UNL     1      21.125  -1.960  53.738  1.00  0.00     0.316 HD
ENDROOT
BRANCH   1  21
HETATM   21  C2  UNL     1      21.572   5.312  50.254  1.00  0.00     0.080 C 
HETATM   22  C1  UNL     1      21.585   6.546  50.520  1.00  0.00     0.029 C 
ENDBRANCH   1  21
BRANCH   3  23
HETATM   23  C4  UNL     1      18.706   3.880  49.941  1.00  0.00     0.145 C 
BRANCH  23  24
HETATM   24  C5  UNL     1      17.566   4.348  50.821  1.00  0.00     0.186 C 
BRANCH  24  25
HETATM   25  O1  UNL     1      16.383   4.338  50.004  1.00  0.00    -0.394 OA
HETATM   26  C6  UNL     1      16.147   2.977  49.819  1.00  0.00     0.201 C 
ENDBRANCH  24  25
ENDBRANCH  23  24
ENDBRANCH   3  23
TORSDOF 4
ENDMDL
MODEL 9
REMARK VINA RESULT:      -5.9      4.194      8.383
REMARK  4 active torsions:
REMARK  status: ('A' for Active; 'I' for Inactive)
REMARK    1  A    between atoms: C2_2  and  N1_3 
REMARK    2  A    between atoms: N2_5  and  C4_6 
REMARK    3  A    between atoms: C4_6  and  C5_7 
REMARK    4  A    between atoms: C5_7  and  O1_8 
ROOT
HETATM    1  N1  UNL     1      19.443   4.054  50.782  1.00  0.00    -0.341 N 
HETATM    2  C3  UNL     1      20.708   4.491  51.404  1.00  0.00     0.246 C 
HETATM    3  N2  UNL     1      21.901   4.603  50.812  1.00  0.00    -0.392 N 
HETATM    4  C7  UNL     1      22.968   3.749  50.938  1.00  0.00     0.145 C 
HETATM    5  C8  UNL     1      23.653   3.622  52.231  1.00  0.00    -0.010 C 
HETATM    6  C9  UNL     1      23.965   2.441  52.870  1.00  0.00     0.000 C 
HETATM    7  C10 UNL     1      23.818   0.966  52.635  1.00  0.00     0.297 C 
HETATM    8  N3  UNL     1      23.305   0.381  53.815  1.00  0.00     0.090 N 
HETATM    9  C11 UNL     1      22.621  -0.939  53.556  1.00  0.00     0.297 C 
HETATM   10  C12 UNL     1      21.359  -0.562  54.254  1.00  0.00     0.004 C 
HETATM   11  C13 UNL     1      20.688  -0.364  53.163  1.00  0.00     0.017 C 
HETATM   12  C14 UNL     1      20.006  -0.165  51.803  1.00  0.00     0.116 C 
HETATM   13  N4  UNL     1      19.149   0.304  51.205  1.00  0.00    -0.272 NA
HETATM   14  C15 UNL     1      18.021   1.064  51.169  1.00  0.00     0.138 C 
HETATM   15  C16 UNL     1      17.634   2.326  51.248  1.00  0.00     0.079 C 
HETATM   16  C17 UNL     1      16.595   2.549  51.141  1.00  0.00     0.021 C 
HETATM   17  N5  UNL     1      15.237   2.858  51.022  1.00  0.00    -0.096 N 
HETATM   18  C18 UNL     1      18.346   3.601  51.531  1.00  0.00     0.317 C 
HETATM   19  F1  UNL     1      17.442   4.682  51.479  1.00  0.00    -0.221 F 
HETATM   20  H19 UNL     1      24.090   0.164  54.450  1.00  0.00     0.316 HD
ENDROOT
BRANCH   1  21
HETATM   21  C2  UNL     1      19.440   4.304  49.307  1.00  0.00     0.080 C 
HETATM   22  C1  UNL     1      19.211   4.181  48.072  1.00  0.00     0.029 C 
ENDBRANCH   1  21
BRANCH   3  23
HETATM   23  C4  UNL     1      22.186   5.794  50.085  1.00  0.00     0.145 C 
BRANCH  23  24
HETATM   24  C5  UNL     1      21.720   7.119  50.648  1.00  0.00     0.186 C 
BRANCH  24  25
HETATM   25  O1  UNL     1      22.675   8.107  50.222  1.00  0.00    -0.394 OA
HETATM   26  C6  UNL     1      23.854   7.676  50.828  1.00  0.00     0.201 C 
ENDBRANCH  24  25
ENDBRANCH  23  24
ENDBRANCH   3  23
TORSDOF 4
ENDMDL
