MODEL 1
REMARK VINA RESULT:      -9.2      0.000      0.000
REMARK  4 active torsions:
REMARK  status: ('A' for Active; 'I' for Inactive)
REMARK    1  A    between atoms: O1_2  and  C2_3 
REMARK    2  A    between atoms: C7_8  and  O2_9 
REMARK    3  A    between atoms: O2_9  and  C8_10 
REMARK    4  A    between atoms: C10_12  and  N1_13 
ROOT
HETATM    1  C8  UNL     1      24.860   0.353  53.276  1.00  0.00     0.146 C 
HETATM    2  C9  UNL     1      23.741  -0.232  53.608  1.00  0.00     0.070 C 
HETATM    3  C10 UNL     1      22.400  -0.428  53.011  1.00  0.00     0.285 C 
HETATM    4  C11 UNL     1      21.659   0.854  53.159  1.00  0.00     0.124 C 
HETATM    5  N2  UNL     1      20.763   1.097  52.278  1.00  0.00    -0.284 NA
HETATM    6  C12 UNL     1      20.035   2.326  52.397  1.00  0.00     0.274 C 
HETATM    7  N3  UNL     1      18.979   2.417  51.397  1.00  0.00    -0.341 N 
HETATM    8  C13 UNL     1      19.228   2.132  50.023  1.00  0.00     0.049 C 
HETATM    9  C14 UNL     1      18.279   2.810  49.348  1.00  0.00     0.114 C 
HETATM   10  N4  UNL     1      17.428   3.525  50.274  1.00  0.00    -0.376 N 
HETATM   11  C15 UNL     1      17.577   2.774  51.532  1.00  0.00     0.181 C 
HETATM   12  C16 UNL     1      16.680   1.559  51.457  1.00  0.00     0.056 C 
HETATM   13  C17 UNL     1      20.200   1.346  49.322  1.00  0.00     0.048 C 
HETATM   14  C18 UNL     1      21.480   1.512  49.091  1.00  0.00     0.093 C 
HETATM   15  N5  UNL     1      22.287   2.593  49.504  1.00  0.00    -0.334 N 
HETATM   16  C19 UNL     1      23.407   2.826  50.316  1.00  0.00     0.246 C 
HETATM   17  O3  UNL     1      23.247   1.587  50.431  1.00  0.00    -0.268 OA
HETATM   18  C20 UNL     1      24.557   3.085  51.147  1.00  0.00     0.091 C 
HETATM   19  C21 UNL     1      25.422   2.488  51.932  1.00  0.00     0.096 C 
HETATM   20  N6  UNL     1      25.396   1.101  52.193  1.00  0.00    -0.347 N 
HETATM   21  H16 UNL     1      16.850   4.386  50.049  1.00  0.00     0.161 HD
HETATM   22  H23 UNL     1      21.860   3.395  49.017  1.00  0.00     0.168 HD
HETATM   23  H26 UNL     1      25.907   0.890  51.312  1.00  0.00     0.167 HD
ENDROOT
BRANCH   1  24
HETATM   24  O2  UNL     1      26.084   0.511  53.863  1.00  0.00    -0.291 OA
BRANCH  24  25
HETATM   25  C7  UNL     1      27.127  -0.365  53.625  1.00  0.00     0.111 A 
HETATM   26  C2  UNL     1      28.401   0.032  53.960  1.00  0.00     0.102 A 
HETATM   27  C3  UNL     1      29.531  -0.761  53.769  1.00  0.00     0.039 A 
HETATM   28  C4  UNL     1      29.377  -2.009  53.218  1.00  0.00     0.003 A 
HETATM   29  C5  UNL     1      28.107  -2.445  52.869  1.00  0.00     0.003 A 
HETATM   30  C6  UNL     1      27.023  -1.644  53.069  1.00  0.00     0.040 A 
BRANCH  26  31
HETATM   31  O1  UNL     1      28.582   1.290  54.518  1.00  0.00    -0.353 OA
HETATM   32  C1  UNL     1      28.843   2.442  53.752  1.00  0.00     0.210 C 
ENDBRANCH  26  31
ENDBRANCH  24  25
ENDBRANCH   1  24
BRANCH   3  33
HETATM   33  N1  UNL     1      21.697  -1.406  53.814  1.00  0.00     0.091 N 
HETATM   34  H10 UNL     1      22.218  -2.322  53.659  1.00  0.00     0.314 HD
HETATM   35  H11 UNL     1      20.733  -1.535  53.444  1.00  0.00     0.314 HD
ENDBRANCH   3  33
TORSDOF 4
ENDMDL
MODEL 2
REMARK VINA RESULT:      -8.7      2.149      3.864
REMARK  4 active torsions:
REMARK  status: ('A' for Active; 'I' for Inactive)
REMARK    1  A    between atoms: O1_2  and  C2_3 
REMARK    2  A    between atoms: C7_8  and  O2_9 
REMARK    3  A    between atoms: O2_9  and  C8_10 
REMARK    4  A    between atoms: C10_12  and  N1_13 
ROOT
HETATM    1  C8  UNL     1      24.928   1.816  52.929  1.00  0.00     0.146 C 
HETATM    2  C9  UNL     1      25.430   2.594  52.009  1.00  0.00     0.070 C 
HETATM    3  C10 UNL     1      24.921   3.569  51.015  1.00  0.00     0.285 C 
HETATM    4  C11 UNL     1      24.333   2.788  49.893  1.00  0.00     0.124 C 
HETATM    5  N2  UNL     1      23.389   3.355  49.241  1.00  0.00    -0.284 NA
HETATM    6  C12 UNL     1      22.804   2.623  48.155  1.00  0.00     0.274 C 
HETATM    7  N3  UNL     1      21.825   3.430  47.438  1.00  0.00    -0.341 N 
HETATM    8  C13 UNL     1      20.816   4.163  48.128  1.00  0.00     0.049 C 
HETATM    9  C14 UNL     1      19.821   4.314  47.233  1.00  0.00     0.114 C 
HETATM   10  N4  UNL     1      20.180   3.686  45.982  1.00  0.00    -0.376 N 
HETATM   11  C15 UNL     1      21.652   3.663  46.015  1.00  0.00     0.181 C 
HETATM   12  C16 UNL     1      22.147   5.033  45.608  1.00  0.00     0.056 C 
HETATM   13  C17 UNL     1      20.694   4.700  49.451  1.00  0.00     0.048 C 
HETATM   14  C18 UNL     1      20.506   4.143  50.624  1.00  0.00     0.093 C 
HETATM   15  N5  UNL     1      20.363   2.767  50.900  1.00  0.00    -0.334 N 
HETATM   16  C19 UNL     1      21.019   1.759  51.622  1.00  0.00     0.246 C 
HETATM   17  O3  UNL     1      21.743   2.760  51.841  1.00  0.00    -0.268 OA
HETATM   18  C20 UNL     1      21.681   0.711  52.359  1.00  0.00     0.091 C 
HETATM   19  C21 UNL     1      22.723   0.482  53.122  1.00  0.00     0.096 C 
HETATM   20  N6  UNL     1      23.658   1.480  53.470  1.00  0.00    -0.347 N 
HETATM   21  H16 UNL     1      19.502   3.338  45.242  1.00  0.00     0.161 HD
HETATM   22  H23 UNL     1      19.502   2.520  50.388  1.00  0.00     0.168 HD
HETATM   23  H26 UNL     1      23.052   1.829  54.240  1.00  0.00     0.167 HD
ENDROOT
BRANCH   1  24
HETATM   24  O2  UNL     1      25.439   0.925  53.831  1.00  0.00    -0.291 OA
BRANCH  24  25
HETATM   25  C7  UNL     1      26.377  -0.024  53.470  1.00  0.00     0.111 A 
HETATM   26  C2  UNL     1      27.698   0.221  53.760  1.00  0.00     0.102 A 
HETATM   27  C3  UNL     1      28.733  -0.659  53.448  1.00  0.00     0.039 A 
HETATM   28  C4  UNL     1      28.429  -1.839  52.814  1.00  0.00     0.003 A 
HETATM   29  C5  UNL     1      27.106  -2.121  52.505  1.00  0.00     0.003 A 
HETATM   30  C6  UNL     1      26.119  -1.239  52.826  1.00  0.00     0.040 A 
BRANCH  26  31
HETATM   31  O1  UNL     1      28.031   1.408  54.400  1.00  0.00    -0.353 OA
HETATM   32  C1  UNL     1      28.717   2.459  53.764  1.00  0.00     0.210 C 
ENDBRANCH  26  31
ENDBRANCH  24  25
ENDBRANCH   1  24
BRANCH   3  33
HETATM   33  N1  UNL     1      26.058   4.280  50.472  1.00  0.00     0.091 N 
HETATM   34  H10 UNL     1      25.827   4.433  49.443  1.00  0.00     0.314 HD
HETATM   35  H11 UNL     1      26.902   3.672  50.510  1.00  0.00     0.314 HD
ENDBRANCH   3  33
TORSDOF 4
ENDMDL
MODEL 3
REMARK VINA RESULT:      -8.6      1.674      3.591
REMARK  4 active torsions:
REMARK  status: ('A' for Active; 'I' for Inactive)
REMARK    1  A    between atoms: O1_2  and  C2_3 
REMARK    2  A    between atoms: C7_8  and  O2_9 
REMARK    3  A    between atoms: O2_9  and  C8_10 
REMARK    4  A    between atoms: C10_12  and  N1_13 
ROOT
HETATM    1  C8  UNL     1      25.068   0.892  53.494  1.00  0.00     0.146 C 
HETATM    2  C9  UNL     1      25.235   1.909  52.693  1.00  0.00     0.070 C 
HETATM    3  C10 UNL     1      24.375   2.881  51.978  1.00  0.00     0.285 C 
HETATM    4  C11 UNL     1      23.795   2.176  50.802  1.00  0.00     0.124 C 
HETATM    5  N2  UNL     1      22.659   2.597  50.391  1.00  0.00    -0.284 NA
HETATM    6  C12 UNL     1      22.079   1.934  49.260  1.00  0.00     0.274 C 
HETATM    7  N3  UNL     1      20.845   2.587  48.838  1.00  0.00    -0.341 N 
HETATM    8  C13 UNL     1      19.828   2.932  49.774  1.00  0.00     0.049 C 
HETATM    9  C14 UNL     1      18.692   2.983  49.051  1.00  0.00     0.114 C 
HETATM   10  N4  UNL     1      18.972   2.673  47.666  1.00  0.00    -0.376 N 
HETATM   11  C15 UNL     1      20.399   3.002  47.519  1.00  0.00     0.181 C 
HETATM   12  C16 UNL     1      20.515   4.498  47.333  1.00  0.00     0.056 C 
HETATM   13  C17 UNL     1      19.808   3.199  51.181  1.00  0.00     0.048 C 
HETATM   14  C18 UNL     1      19.936   2.429  52.235  1.00  0.00     0.093 C 
HETATM   15  N5  UNL     1      20.139   1.033  52.250  1.00  0.00    -0.334 N 
HETATM   16  C19 UNL     1      21.105   0.109  52.676  1.00  0.00     0.246 C 
HETATM   17  O3  UNL     1      21.622   1.205  53.001  1.00  0.00    -0.268 OA
HETATM   18  C20 UNL     1      22.086  -0.854  53.108  1.00  0.00     0.091 C 
HETATM   19  C21 UNL     1      23.262  -0.948  53.682  1.00  0.00     0.096 C 
HETATM   20  N6  UNL     1      24.004   0.175  54.106  1.00  0.00    -0.347 N 
HETATM   21  H16 UNL     1      18.274   2.298  46.959  1.00  0.00     0.161 HD
HETATM   22  H23 UNL     1      19.280   0.673  51.806  1.00  0.00     0.168 HD
HETATM   23  H26 UNL     1      23.470   0.237  54.996  1.00  0.00     0.167 HD
ENDROOT
BRANCH   1  24
HETATM   24  O2  UNL     1      25.897   0.016  54.136  1.00  0.00    -0.291 OA
BRANCH  24  25
HETATM   25  C7  UNL     1      27.270   0.066  53.986  1.00  0.00     0.111 A 
HETATM   26  C2  UNL     1      27.914  -1.048  53.500  1.00  0.00     0.102 A 
HETATM   27  C3  UNL     1      29.292  -1.119  53.305  1.00  0.00     0.039 A 
HETATM   28  C4  UNL     1      30.061  -0.023  53.612  1.00  0.00     0.003 A 
HETATM   29  C5  UNL     1      29.446   1.119  54.104  1.00  0.00     0.003 A 
HETATM   30  C6  UNL     1      28.096   1.155  54.282  1.00  0.00     0.040 A 
BRANCH  26  31
HETATM   31  O1  UNL     1      27.159  -2.169  53.182  1.00  0.00    -0.353 OA
HETATM   32  C1  UNL     1      26.595  -2.383  51.911  1.00  0.00     0.210 C 
ENDBRANCH  26  31
ENDBRANCH  24  25
ENDBRANCH   1  24
BRANCH   3  33
HETATM   33  N1  UNL     1      25.229   3.925  51.453  1.00  0.00     0.091 N 
HETATM   34  H10 UNL     1      25.339   3.703  50.418  1.00  0.00     0.314 HD
HETATM   35  H11 UNL     1      26.174   3.853  51.884  1.00  0.00     0.314 HD
ENDBRANCH   3  33
TORSDOF 4
ENDMDL
MODEL 4
REMARK VINA RESULT:      -8.3      3.746      6.980
REMARK  4 active torsions:
REMARK  status: ('A' for Active; 'I' for Inactive)
REMARK    1  A    between atoms: O1_2  and  C2_3 
REMARK    2  A    between atoms: C7_8  and  O2_9 
REMARK    3  A    between atoms: O2_9  and  C8_10 
REMARK    4  A    between atoms: C10_12  and  N1_13 
ROOT
HETATM    1  C8  UNL     1      22.111   2.341  51.562  1.00  0.00     0.146 C 
HETATM    2  C9  UNL     1      22.816   3.220  52.219  1.00  0.00     0.070 C 
HETATM    3  C10 UNL     1      23.334   4.589  51.988  1.00  0.00     0.285 C 
HETATM    4  C11 UNL     1      24.509   4.470  51.082  1.00  0.00     0.124 C 
HETATM    5  N2  UNL     1      24.754   5.478  50.334  1.00  0.00    -0.284 NA
HETATM    6  C12 UNL     1      25.880   5.388  49.452  1.00  0.00     0.274 C 
HETATM    7  N3  UNL     1      26.102   6.644  48.745  1.00  0.00    -0.341 N 
HETATM    8  C13 UNL     1      25.035   7.334  48.101  1.00  0.00     0.049 C 
HETATM    9  C14 UNL     1      25.627   8.076  47.144  1.00  0.00     0.114 C 
HETATM   10  N4  UNL     1      27.057   7.867  47.169  1.00  0.00    -0.376 N 
HETATM   11  C15 UNL     1      27.318   7.414  48.545  1.00  0.00     0.181 C 
HETATM   12  C16 UNL     1      27.360   8.635  49.437  1.00  0.00     0.056 C 
HETATM   13  C17 UNL     1      23.613   7.368  48.274  1.00  0.00     0.048 C 
HETATM   14  C18 UNL     1      22.663   6.504  48.006  1.00  0.00     0.093 C 
HETATM   15  N5  UNL     1      22.813   5.224  47.432  1.00  0.00    -0.334 N 
HETATM   16  C19 UNL     1      22.587   3.881  47.768  1.00  0.00     0.246 C 
HETATM   17  O3  UNL     1      22.207   4.483  48.801  1.00  0.00    -0.268 OA
HETATM   18  C20 UNL     1      22.361   2.496  48.097  1.00  0.00     0.091 C 
HETATM   19  C21 UNL     1      21.925   1.718  49.060  1.00  0.00     0.096 C 
HETATM   20  N6  UNL     1      21.468   2.211  50.301  1.00  0.00    -0.347 N 
HETATM   21  H16 UNL     1      27.723   8.019  46.356  1.00  0.00     0.161 HD
HETATM   22  H23 UNL     1      23.200   5.437  46.500  1.00  0.00     0.168 HD
HETATM   23  H26 UNL     1      20.525   2.416  49.912  1.00  0.00     0.167 HD
ENDROOT
BRANCH   1  24
HETATM   24  O2  UNL     1      21.652   1.079  51.815  1.00  0.00    -0.291 OA
BRANCH  24  25
HETATM   25  C7  UNL     1      22.134   0.324  52.868  1.00  0.00     0.111 A 
HETATM   26  C2  UNL     1      21.234  -0.161  53.789  1.00  0.00     0.102 A 
HETATM   27  C3  UNL     1      21.598  -0.933  54.890  1.00  0.00     0.039 A 
HETATM   28  C4  UNL     1      22.925  -1.232  55.079  1.00  0.00     0.003 A 
HETATM   29  C5  UNL     1      23.861  -0.761  54.171  1.00  0.00     0.003 A 
HETATM   30  C6  UNL     1      23.471  -0.010  53.104  1.00  0.00     0.040 A 
BRANCH  26  31
HETATM   31  O1  UNL     1      19.886   0.129  53.620  1.00  0.00    -0.353 OA
HETATM   32  C1  UNL     1      18.945  -0.818  53.175  1.00  0.00     0.210 C 
ENDBRANCH  26  31
ENDBRANCH  24  25
ENDBRANCH   1  24
BRANCH   3  33
HETATM   33  N1  UNL     1      23.835   5.091  53.250  1.00  0.00     0.091 N 
HETATM   34  H10 UNL     1      23.008   5.588  53.701  1.00  0.00     0.314 HD
HETATM   35  H11 UNL     1      24.567   5.810  53.074  1.00  0.00     0.314 HD
ENDBRANCH   3  33
TORSDOF 4
ENDMDL
MODEL 5
REMARK VINA RESULT:      -8.3      3.870      5.745
REMARK  4 active torsions:
REMARK  status: ('A' for Active; 'I' for Inactive)
REMARK    1  A    between atoms: O1_2  and  C2_3 
REMARK    2  A    between atoms: C7_8  and  O2_9 
REMARK    3  A    between atoms: O2_9  and  C8_10 
REMARK    4  A    between atoms: C10_12  and  N1_13 
ROOT
HETATM    1  C8  UNL     1      25.775   2.887  51.453  1.00  0.00     0.146 C 
HETATM    2  C9  UNL     1      26.308   3.408  50.382  1.00  0.00     0.070 C 
HETATM    3  C10 UNL     1      26.204   4.677  49.624  1.00  0.00     0.285 C 
HETATM    4  C11 UNL     1      24.936   4.623  48.846  1.00  0.00     0.124 C 
HETATM    5  N2  UNL     1      24.381   5.746  48.586  1.00  0.00    -0.284 NA
HETATM    6  C12 UNL     1      23.158   5.721  47.839  1.00  0.00     0.274 C 
HETATM    7  N3  UNL     1      22.701   7.070  47.524  1.00  0.00    -0.341 N 
HETATM    8  C13 UNL     1      22.641   8.087  48.520  1.00  0.00     0.049 C 
HETATM    9  C14 UNL     1      21.717   8.959  48.073  1.00  0.00     0.114 C 
HETATM   10  N4  UNL     1      21.186   8.511  46.805  1.00  0.00    -0.376 N 
HETATM   11  C15 UNL     1      22.250   7.646  46.269  1.00  0.00     0.181 C 
HETATM   12  C16 UNL     1      23.305   8.535  45.650  1.00  0.00     0.056 C 
HETATM   13  C17 UNL     1      23.312   8.311  49.766  1.00  0.00     0.048 C 
HETATM   14  C18 UNL     1      23.223   7.735  50.942  1.00  0.00     0.093 C 
HETATM   15  N5  UNL     1      22.376   6.667  51.305  1.00  0.00    -0.334 N 
HETATM   16  C19 UNL     1      22.479   5.343  51.757  1.00  0.00     0.246 C 
HETATM   17  O3  UNL     1      23.682   5.680  51.641  1.00  0.00    -0.268 OA
HETATM   18  C20 UNL     1      22.566   3.981  52.222  1.00  0.00     0.091 C 
HETATM   19  C21 UNL     1      23.432   3.047  52.533  1.00  0.00     0.096 C 
HETATM   20  N6  UNL     1      24.829   3.234  52.455  1.00  0.00    -0.347 N 
HETATM   21  H16 UNL     1      20.241   8.774  46.398  1.00  0.00     0.161 HD
HETATM   22  H23 UNL     1      21.435   7.068  51.174  1.00  0.00     0.168 HD
HETATM   23  H26 UNL     1      24.854   3.700  53.385  1.00  0.00     0.167 HD
ENDROOT
BRANCH   1  24
HETATM   24  O2  UNL     1      25.902   1.702  52.123  1.00  0.00    -0.291 OA
BRANCH  24  25
HETATM   25  C7  UNL     1      26.971   1.448  52.962  1.00  0.00     0.111 A 
HETATM   26  C2  UNL     1      26.983   0.265  53.663  1.00  0.00     0.102 A 
HETATM   27  C3  UNL     1      28.003  -0.104  54.537  1.00  0.00     0.039 A 
HETATM   28  C4  UNL     1      29.061   0.753  54.718  1.00  0.00     0.003 A 
HETATM   29  C5  UNL     1      29.084   1.956  54.028  1.00  0.00     0.003 A 
HETATM   30  C6  UNL     1      28.070   2.285  53.180  1.00  0.00     0.040 A 
BRANCH  26  31
HETATM   31  O1  UNL     1      25.924  -0.619  53.497  1.00  0.00    -0.353 OA
HETATM   32  C1  UNL     1      24.888  -0.764  54.439  1.00  0.00     0.210 C 
ENDBRANCH  26  31
ENDBRANCH  24  25
ENDBRANCH   1  24
BRANCH   3  33
HETATM   33  N1  UNL     1      27.280   4.704  48.657  1.00  0.00     0.091 N 
HETATM   34  H10 UNL     1      27.531   5.733  48.546  1.00  0.00     0.314 HD
HETATM   35  H11 UNL     1      26.930   4.372  47.734  1.00  0.00     0.314 HD
ENDBRANCH   3  33
TORSDOF 4
ENDMDL
MODEL 6
REMARK VINA RESULT:      -8.3      2.228      8.385
REMARK  4 active torsions:
REMARK  status: ('A' for Active; 'I' for Inactive)
REMARK    1  A    between atoms: O1_2  and  C2_3 
REMARK    2  A    between atoms: C7_8  and  O2_9 
REMARK    3  A    between atoms: O2_9  and  C8_10 
REMARK    4  A    between atoms: C10_12  and  N1_13 
ROOT
HETATM    1  C8  UNL     1      19.753   0.274  51.839  1.00  0.00     0.146 C 
HETATM    2  C9  UNL     1      20.258  -0.126  52.974  1.00  0.00     0.070 C 
HETATM    3  C10 UNL     1      21.422   0.215  53.825  1.00  0.00     0.285 C 
HETATM    4  C11 UNL     1      22.625  -0.389  53.190  1.00  0.00     0.124 C 
HETATM    5  N2  UNL     1      23.738   0.204  53.404  1.00  0.00    -0.284 NA
HETATM    6  C12 UNL     1      24.912  -0.357  52.803  1.00  0.00     0.274 C 
HETATM    7  N3  UNL     1      26.115   0.355  53.220  1.00  0.00    -0.341 N 
HETATM    8  C13 UNL     1      26.186   1.777  53.188  1.00  0.00     0.049 C 
HETATM    9  C14 UNL     1      27.500   2.059  53.091  1.00  0.00     0.114 C 
HETATM   10  N4  UNL     1      28.268   0.834  53.059  1.00  0.00    -0.376 N 
HETATM   11  C15 UNL     1      27.386  -0.146  53.715  1.00  0.00     0.181 C 
HETATM   12  C16 UNL     1      27.516   0.038  55.210  1.00  0.00     0.056 C 
HETATM   13  C17 UNL     1      25.217   2.832  53.234  1.00  0.00     0.048 C 
HETATM   14  C18 UNL     1      24.338   3.271  52.364  1.00  0.00     0.093 C 
HETATM   15  N5  UNL     1      24.110   2.780  51.062  1.00  0.00    -0.334 N 
HETATM   16  C19 UNL     1      23.079   2.181  50.323  1.00  0.00     0.246 C 
HETATM   17  O3  UNL     1      22.544   2.342  51.447  1.00  0.00    -0.268 OA
HETATM   18  C20 UNL     1      22.030   1.565  49.550  1.00  0.00     0.091 C 
HETATM   19  C21 UNL     1      20.791   1.142  49.637  1.00  0.00     0.096 C 
HETATM   20  N6  UNL     1      20.029   1.227  50.822  1.00  0.00    -0.347 N 
HETATM   21  H16 UNL     1      29.240   0.718  52.647  1.00  0.00     0.161 HD
HETATM   22  H23 UNL     1      25.009   2.959  50.590  1.00  0.00     0.168 HD
HETATM   23  H26 UNL     1      19.777   2.219  50.631  1.00  0.00     0.167 HD
ENDROOT
BRANCH   1  24
HETATM   24  O2  UNL     1      18.668  -0.072  51.084  1.00  0.00    -0.291 OA
BRANCH  24  25
HETATM   25  C7  UNL     1      17.387  -0.077  51.605  1.00  0.00     0.111 A 
HETATM   26  C2  UNL     1      16.662   1.091  51.567  1.00  0.00     0.102 A 
HETATM   27  C3  UNL     1      15.364   1.210  52.058  1.00  0.00     0.039 A 
HETATM   28  C4  UNL     1      14.764   0.107  52.615  1.00  0.00     0.003 A 
HETATM   29  C5  UNL     1      15.464  -1.090  52.671  1.00  0.00     0.003 A 
HETATM   30  C6  UNL     1      16.732  -1.171  52.180  1.00  0.00     0.040 A 
BRANCH  26  31
HETATM   31  O1  UNL     1      17.247   2.220  51.009  1.00  0.00    -0.353 OA
HETATM   32  C1  UNL     1      17.245   3.479  51.640  1.00  0.00     0.210 C 
ENDBRANCH  26  31
ENDBRANCH  24  25
ENDBRANCH   1  24
BRANCH   3  33
HETATM   33  N1  UNL     1      21.249  -0.451  55.098  1.00  0.00     0.091 N 
HETATM   34  H10 UNL     1      22.082  -0.147  55.689  1.00  0.00     0.314 HD
HETATM   35  H11 UNL     1      21.325  -1.481  54.968  1.00  0.00     0.314 HD
ENDBRANCH   3  33
TORSDOF 4
ENDMDL
MODEL 7
REMARK VINA RESULT:      -8.2      3.865      6.091
REMARK  4 active torsions:
REMARK  status: ('A' for Active; 'I' for Inactive)
REMARK    1  A    between atoms: O1_2  and  C2_3 
REMARK    2  A    between atoms: C7_8  and  O2_9 
REMARK    3  A    between atoms: O2_9  and  C8_10 
REMARK    4  A    between atoms: C10_12  and  N1_13 
ROOT
HETATM    1  C8  UNL     1      25.541   4.782  49.565  1.00  0.00     0.146 C 
HETATM    2  C9  UNL     1      26.000   3.796  50.285  1.00  0.00     0.070 C 
HETATM    3  C10 UNL     1      25.523   2.469  50.741  1.00  0.00     0.285 C 
HETATM    4  C11 UNL     1      24.562   2.703  51.852  1.00  0.00     0.124 C 
HETATM    5  N2  UNL     1      23.651   1.819  52.011  1.00  0.00    -0.284 NA
HETATM    6  C12 UNL     1      22.712   2.021  53.075  1.00  0.00     0.274 C 
HETATM    7  N3  UNL     1      21.805   0.887  53.206  1.00  0.00    -0.341 N 
HETATM    8  C13 UNL     1      21.143   0.329  52.074  1.00  0.00     0.049 C 
HETATM    9  C14 UNL     1      20.042  -0.267  52.572  1.00  0.00     0.114 C 
HETATM   10  N4  UNL     1      19.993  -0.095  54.007  1.00  0.00    -0.376 N 
HETATM   11  C15 UNL     1      21.399   0.131  54.378  1.00  0.00     0.181 C 
HETATM   12  C16 UNL     1      22.086  -1.215  54.442  1.00  0.00     0.056 C 
HETATM   13  C17 UNL     1      21.415   0.300  50.667  1.00  0.00     0.048 C 
HETATM   14  C18 UNL     1      21.354   1.215  49.729  1.00  0.00     0.093 C 
HETATM   15  N5  UNL     1      20.975   2.566  49.881  1.00  0.00    -0.334 N 
HETATM   16  C19 UNL     1      21.531   3.844  49.724  1.00  0.00     0.246 C 
HETATM   17  O3  UNL     1      22.484   3.096  49.397  1.00  0.00    -0.268 OA
HETATM   18  C20 UNL     1      22.085   5.165  49.567  1.00  0.00     0.091 C 
HETATM   19  C21 UNL     1      23.186   5.792  49.226  1.00  0.00     0.096 C 
HETATM   20  N6  UNL     1      24.367   5.122  48.841  1.00  0.00    -0.347 N 
HETATM   21  H16 UNL     1      19.119  -0.133  54.609  1.00  0.00     0.161 HD
HETATM   22  H23 UNL     1      19.995   2.493  50.194  1.00  0.00     0.168 HD
HETATM   23  H26 UNL     1      24.022   5.000  47.867  1.00  0.00     0.167 HD
ENDROOT
BRANCH   1  24
HETATM   24  O2  UNL     1      26.020   5.999  49.168  1.00  0.00    -0.291 OA
BRANCH  24  25
HETATM   25  C7  UNL     1      27.324   6.168  48.743  1.00  0.00     0.111 A 
HETATM   26  C2  UNL     1      27.814   7.448  48.631  1.00  0.00     0.102 A 
HETATM   27  C3  UNL     1      29.110   7.745  48.215  1.00  0.00     0.039 A 
HETATM   28  C4  UNL     1      29.955   6.711  47.895  1.00  0.00     0.003 A 
HETATM   29  C5  UNL     1      29.497   5.405  47.996  1.00  0.00     0.003 A 
HETATM   30  C6  UNL     1      28.224   5.150  48.408  1.00  0.00     0.040 A 
BRANCH  26  31
HETATM   31  O1  UNL     1      26.978   8.511  48.948  1.00  0.00    -0.353 OA
HETATM   32  C1  UNL     1      27.085   9.244  50.145  1.00  0.00     0.210 C 
ENDBRANCH  26  31
ENDBRANCH  24  25
ENDBRANCH   1  24
BRANCH   3  33
HETATM   33  N1  UNL     1      26.651   1.765  51.311  1.00  0.00     0.091 N 
HETATM   34  H10 UNL     1      26.406   0.732  51.233  1.00  0.00     0.314 HD
HETATM   35  H11 UNL     1      26.726   1.987  52.326  1.00  0.00     0.314 HD
ENDBRANCH   3  33
TORSDOF 4
ENDMDL
MODEL 8
REMARK VINA RESULT:      -7.9      2.326      8.695
REMARK  4 active torsions:
REMARK  status: ('A' for Active; 'I' for Inactive)
REMARK    1  A    between atoms: O1_2  and  C2_3 
REMARK    2  A    between atoms: C7_8  and  O2_9 
REMARK    3  A    between atoms: O2_9  and  C8_10 
REMARK    4  A    between atoms: C10_12  and  N1_13 
ROOT
HETATM    1  C8  UNL     1      20.748   1.184  52.073  1.00  0.00     0.146 C 
HETATM    2  C9  UNL     1      21.642   1.871  51.417  1.00  0.00     0.070 C 
HETATM    3  C10 UNL     1      23.102   1.803  51.175  1.00  0.00     0.285 C 
HETATM    4  C11 UNL     1      23.777   2.289  52.409  1.00  0.00     0.124 C 
HETATM    5  N2  UNL     1      24.945   1.819  52.640  1.00  0.00    -0.284 NA
HETATM    6  C12 UNL     1      25.617   2.270  53.823  1.00  0.00     0.274 C 
HETATM    7  N3  UNL     1      26.972   1.738  53.899  1.00  0.00    -0.341 N 
HETATM    8  C13 UNL     1      27.242   0.356  53.685  1.00  0.00     0.049 C 
HETATM    9  C14 UNL     1      28.397   0.121  54.339  1.00  0.00     0.114 C 
HETATM   10  N4  UNL     1      28.866   1.335  54.969  1.00  0.00    -0.376 N 
HETATM   11  C15 UNL     1      28.234   2.403  54.176  1.00  0.00     0.181 C 
HETATM   12  C16 UNL     1      29.053   2.596  52.919  1.00  0.00     0.056 C 
HETATM   13  C17 UNL     1      26.576  -0.699  52.981  1.00  0.00     0.048 C 
HETATM   14  C18 UNL     1      25.480  -1.378  53.224  1.00  0.00     0.093 C 
HETATM   15  N5  UNL     1      24.614  -1.231  54.328  1.00  0.00    -0.334 N 
HETATM   16  C19 UNL     1      23.281  -0.879  54.587  1.00  0.00     0.246 C 
HETATM   17  O3  UNL     1      23.345  -0.785  53.337  1.00  0.00    -0.268 OA
HETATM   18  C20 UNL     1      21.915  -0.520  54.871  1.00  0.00     0.091 C 
HETATM   19  C21 UNL     1      20.800  -0.147  54.289  1.00  0.00     0.096 C 
HETATM   20  N6  UNL     1      20.679   0.025  52.893  1.00  0.00    -0.347 N 
HETATM   21  H16 UNL     1      29.515   1.391  55.807  1.00  0.00     0.161 HD
HETATM   22  H23 UNL     1      25.219  -1.478  55.126  1.00  0.00     0.168 HD
HETATM   23  H26 UNL     1      20.527  -0.994  52.746  1.00  0.00     0.167 HD
ENDROOT
BRANCH   1  24
HETATM   24  O2  UNL     1      19.400   1.284  52.272  1.00  0.00    -0.291 OA
BRANCH  24  25
HETATM   25  C7  UNL     1      18.497   1.161  51.232  1.00  0.00     0.111 A 
HETATM   26  C2  UNL     1      17.791  -0.014  51.116  1.00  0.00     0.102 A 
HETATM   27  C3  UNL     1      16.855  -0.256  50.113  1.00  0.00     0.039 A 
HETATM   28  C4  UNL     1      16.615   0.725  49.182  1.00  0.00     0.003 A 
HETATM   29  C5  UNL     1      17.307   1.924  49.267  1.00  0.00     0.003 A 
HETATM   30  C6  UNL     1      18.216   2.128  50.262  1.00  0.00     0.040 A 
BRANCH  26  31
HETATM   31  O1  UNL     1      18.017  -1.021  52.045  1.00  0.00    -0.353 OA
HETATM   32  C1  UNL     1      17.197  -1.230  53.169  1.00  0.00     0.210 C 
ENDBRANCH  26  31
ENDBRANCH  24  25
ENDBRANCH   1  24
BRANCH   3  33
HETATM   33  N1  UNL     1      23.422   2.751  50.129  1.00  0.00     0.091 N 
HETATM   34  H10 UNL     1      23.792   3.612  50.634  1.00  0.00     0.314 HD
HETATM   35  H11 UNL     1      22.549   3.035  49.636  1.00  0.00     0.314 HD
ENDBRANCH   3  33
TORSDOF 4
ENDMDL
MODEL 9
REMARK VINA RESULT:      -7.8      5.754      9.858
REMARK  4 active torsions:
REMARK  status: ('A' for Active; 'I' for Inactive)
REMARK    1  A    between atoms: O1_2  and  C2_3 
REMARK    2  A    between atoms: C7_8  and  O2_9 
REMARK    3  A    between atoms: O2_9  and  C8_10 
REMARK    4  A    between atoms: C10_12  and  N1_13 
ROOT
HETATM    1  C8  UNL     1      23.655   4.988  48.495  1.00  0.00     0.146 C 
HETATM    2  C9  UNL     1      24.721   4.528  49.090  1.00  0.00     0.070 C 
HETATM    3  C10 UNL     1      25.937   5.087  49.727  1.00  0.00     0.285 C 
HETATM    4  C11 UNL     1      26.851   5.514  48.633  1.00  0.00     0.124 C 
HETATM    5  N2  UNL     1      27.649   6.477  48.903  1.00  0.00    -0.284 NA
HETATM    6  C12 UNL     1      28.539   6.909  47.866  1.00  0.00     0.274 C 
HETATM    7  N3  UNL     1      29.459   7.932  48.348  1.00  0.00    -0.341 N 
HETATM    8  C13 UNL     1      28.998   9.057  49.091  1.00  0.00     0.049 C 
HETATM    9  C14 UNL     1      29.931  10.010  48.896  1.00  0.00     0.114 C 
HETATM   10  N4  UNL     1      30.981   9.507  48.039  1.00  0.00    -0.376 N 
HETATM   11  C15 UNL     1      30.901   8.047  48.212  1.00  0.00     0.181 C 
HETATM   12  C16 UNL     1      31.615   7.692  49.497  1.00  0.00     0.056 C 
HETATM   13  C17 UNL     1      27.849   9.318  49.907  1.00  0.00     0.048 C 
HETATM   14  C18 UNL     1      26.582   9.508  49.626  1.00  0.00     0.093 C 
HETATM   15  N5  UNL     1      25.984   9.507  48.348  1.00  0.00    -0.334 N 
HETATM   16  C19 UNL     1      25.020   8.781  47.633  1.00  0.00     0.246 C 
HETATM   17  O3  UNL     1      25.030   8.192  48.741  1.00  0.00    -0.268 OA
HETATM   18  C20 UNL     1      24.031   8.046  46.883  1.00  0.00     0.091 C 
HETATM   19  C21 UNL     1      23.205   7.031  46.976  1.00  0.00     0.096 C 
HETATM   20  N6  UNL     1      23.084   6.240  48.139  1.00  0.00    -0.347 N 
HETATM   21  H16 UNL     1      31.632  10.096  47.442  1.00  0.00     0.161 HD
HETATM   22  H23 UNL     1      26.444  10.301  47.880  1.00  0.00     0.168 HD
HETATM   23  H26 UNL     1      22.440   6.926  48.581  1.00  0.00     0.167 HD
ENDROOT
BRANCH   1  24
HETATM   24  O2  UNL     1      22.549   4.431  47.917  1.00  0.00    -0.291 OA
BRANCH  24  25
HETATM   25  C7  UNL     1      21.924   3.321  48.455  1.00  0.00     0.111 A 
HETATM   26  C2  UNL     1      20.963   3.517  49.419  1.00  0.00     0.102 A 
HETATM   27  C3  UNL     1      20.265   2.480  50.035  1.00  0.00     0.039 A 
HETATM   28  C4  UNL     1      20.541   1.186  49.666  1.00  0.00     0.003 A 
HETATM   29  C5  UNL     1      21.503   0.950  48.695  1.00  0.00     0.003 A 
HETATM   30  C6  UNL     1      22.168   1.987  48.113  1.00  0.00     0.040 A 
BRANCH  26  31
HETATM   31  O1  UNL     1      20.666   4.816  49.810  1.00  0.00    -0.353 OA
HETATM   32  C1  UNL     1      21.061   5.357  51.048  1.00  0.00     0.210 C 
ENDBRANCH  26  31
ENDBRANCH  24  25
ENDBRANCH   1  24
BRANCH   3  33
HETATM   33  N1  UNL     1      26.604   4.011  50.426  1.00  0.00     0.091 N 
HETATM   34  H10 UNL     1      27.073   4.470  51.265  1.00  0.00     0.314 HD
HETATM   35  H11 UNL     1      27.361   3.620  49.827  1.00  0.00     0.314 HD
ENDBRANCH   3  33
TORSDOF 4
ENDMDL
