MODEL 1
REMARK VINA RESULT:      -9.0      0.000      0.000
REMARK  5 active torsions:
REMARK  status: ('A' for Active; 'I' for Inactive)
REMARK    1  A    between atoms: C2_2  and  N1_3 
REMARK    2  A    between atoms: C5_7  and  N3_8 
REMARK    3  A    between atoms: N3_8  and  C6_9 
REMARK    4  A    between atoms: C12_17  and  C13_18 
REMARK    5  A    between atoms: C17_23  and  N5_24 
ROOT
HETATM    1  N1  UNL     1      21.681   0.756  53.514  1.00  0.00    -0.324 N 
HETATM    2  C3  UNL     1      20.771   1.442  52.798  1.00  0.00     0.212 A 
HETATM    3  N2  UNL     1      21.400   2.231  51.893  1.00  0.00    -0.236 NA
HETATM    4  C4  UNL     1      22.710   2.069  52.008  1.00  0.00     0.150 A 
HETATM    5  C5  UNL     1      23.850   2.577  51.389  1.00  0.00     0.163 A 
HETATM    6  N4  UNL     1      25.073   2.164  51.787  1.00  0.00    -0.212 NA
HETATM    7  C12 UNL     1      25.227   1.271  52.769  1.00  0.00     0.150 A 
HETATM    8  N6  UNL     1      24.126   0.788  53.359  1.00  0.00    -0.211 NA
HETATM    9  C19 UNL     1      22.873   1.146  53.023  1.00  0.00     0.165 A 
ENDROOT
BRANCH   7  10
HETATM   10  C13 UNL     1      26.510   0.750  53.284  1.00  0.00     0.082 C 
HETATM   11 BR1  UNL     1      26.208  -0.142  54.997  1.00  0.00    -0.077 Br
HETATM   12  C14 UNL     1      27.169  -0.259  52.383  1.00  0.00     0.029 C 
HETATM   13  C15 UNL     1      28.183  -0.986  53.265  1.00  0.00     0.004 C 
HETATM   14  C16 UNL     1      29.191  -0.015  53.787  1.00  0.00     0.035 C 
HETATM   15  C17 UNL     1      28.618   1.229  54.390  1.00  0.00     0.220 C 
HETATM   16  C18 UNL     1      27.509   1.844  53.561  1.00  0.00     0.064 C 
BRANCH  15  17
HETATM   17  N5  UNL     1      29.732   2.180  54.509  1.00  0.00     0.083 N 
HETATM   18  H19 UNL     1      29.991   2.453  53.541  1.00  0.00     0.313 HD
HETATM   19  H20 UNL     1      30.563   1.681  54.910  1.00  0.00     0.313 HD
ENDBRANCH  15  17
ENDBRANCH   7  10
BRANCH   5  20
HETATM   20  N3  UNL     1      23.695   3.525  50.346  1.00  0.00    -0.339 N 
HETATM   21  H7  UNL     1      22.997   3.171  49.656  1.00  0.00     0.167 HD
BRANCH  20  22
HETATM   22  C6  UNL     1      24.375   4.764  50.242  1.00  0.00     0.035 A 
HETATM   23  C7  UNL     1      23.906   5.812  51.006  1.00  0.00     0.029 A 
HETATM   24  C8  UNL     1      24.592   7.023  50.887  1.00  0.00     0.004 A 
HETATM   25  C9  UNL     1      25.676   7.102  50.031  1.00  0.00     0.024 A 
HETATM   26  C10 UNL     1      26.117   6.025  49.278  1.00  0.00     0.036 A 
HETATM   27 CL1  UNL     1      27.490   6.133  48.195  1.00  0.00    -0.084 Cl
HETATM   28  C11 UNL     1      25.448   4.803  49.379  1.00  0.00     0.053 A 
ENDBRANCH  20  22
ENDBRANCH   5  20
BRANCH   1  29
HETATM   29  C2  UNL     1      21.442  -0.209  54.595  1.00  0.00     0.127 C 
HETATM   30  C1  UNL     1      21.559  -1.628  54.074  1.00  0.00     0.027 C 
ENDBRANCH   1  29
TORSDOF 5
ENDMDL
MODEL 2
REMARK VINA RESULT:      -8.7      2.564      5.777
REMARK  5 active torsions:
REMARK  status: ('A' for Active; 'I' for Inactive)
REMARK    1  A    between atoms: C2_2  and  N1_3 
REMARK    2  A    between atoms: C5_7  and  N3_8 
REMARK    3  A    between atoms: N3_8  and  C6_9 
REMARK    4  A    between atoms: C12_17  and  C13_18 
REMARK    5  A    between atoms: C17_23  and  N5_24 
ROOT
HETATM    1  N1  UNL     1      21.244   0.074  53.336  1.00  0.00    -0.324 N 
HETATM    2  C3  UNL     1      21.445  -0.989  54.138  1.00  0.00     0.212 A 
HETATM    3  N2  UNL     1      22.774  -1.202  54.292  1.00  0.00    -0.236 NA
HETATM    4  C4  UNL     1      23.445  -0.292  53.601  1.00  0.00     0.150 A 
HETATM    5  C5  UNL     1      24.784   0.013  53.364  1.00  0.00     0.163 A 
HETATM    6  N4  UNL     1      25.106   1.059  52.572  1.00  0.00    -0.212 NA
HETATM    7  C12 UNL     1      24.169   1.821  52.001  1.00  0.00     0.150 A 
HETATM    8  N6  UNL     1      22.885   1.522  52.235  1.00  0.00    -0.211 NA
HETATM    9  C19 UNL     1      22.479   0.499  53.009  1.00  0.00     0.165 A 
ENDROOT
BRANCH   7  10
HETATM   10  C13 UNL     1      24.405   2.985  51.121  1.00  0.00     0.082 C 
HETATM   11 BR1  UNL     1      23.387   2.765  49.468  1.00  0.00    -0.077 Br
HETATM   12  C14 UNL     1      23.982   4.301  51.717  1.00  0.00     0.029 C 
HETATM   13  C15 UNL     1      23.875   5.262  50.534  1.00  0.00     0.004 C 
HETATM   14  C16 UNL     1      25.204   5.395  49.865  1.00  0.00     0.035 C 
HETATM   15  C17 UNL     1      25.890   4.101  49.557  1.00  0.00     0.220 C 
HETATM   16  C18 UNL     1      25.848   3.110  50.703  1.00  0.00     0.064 C 
BRANCH  15  17
HETATM   17  N5  UNL     1      27.286   4.438  49.246  1.00  0.00     0.083 N 
HETATM   18  H19 UNL     1      27.268   4.989  48.367  1.00  0.00     0.313 HD
HETATM   19  H20 UNL     1      27.808   3.554  49.033  1.00  0.00     0.313 HD
ENDBRANCH  15  17
ENDBRANCH   7  10
BRANCH   5  20
HETATM   20  N3  UNL     1      25.784  -0.792  53.966  1.00  0.00    -0.339 N 
HETATM   21  H7  UNL     1      25.332  -1.539  54.537  1.00  0.00     0.167 HD
BRANCH  20  22
HETATM   22  C6  UNL     1      27.184  -0.623  53.823  1.00  0.00     0.035 A 
HETATM   23  C7  UNL     1      27.889  -1.642  53.218  1.00  0.00     0.029 A 
HETATM   24  C8  UNL     1      29.267  -1.451  53.089  1.00  0.00     0.004 A 
HETATM   25  C9  UNL     1      29.833  -0.281  53.561  1.00  0.00     0.024 A 
HETATM   26  C10 UNL     1      29.090   0.721  54.164  1.00  0.00     0.036 A 
HETATM   27 CL1  UNL     1      29.814   2.201  54.762  1.00  0.00    -0.084 Cl
HETATM   28  C11 UNL     1      27.710   0.556  54.306  1.00  0.00     0.053 A 
ENDBRANCH  20  22
ENDBRANCH   5  20
BRANCH   1  29
HETATM   29  C2  UNL     1      19.966   0.655  52.906  1.00  0.00     0.127 C 
HETATM   30  C1  UNL     1      19.632   0.215  51.494  1.00  0.00     0.027 C 
ENDBRANCH   1  29
TORSDOF 5
ENDMDL
MODEL 3
REMARK VINA RESULT:      -8.6      2.953      6.049
REMARK  5 active torsions:
REMARK  status: ('A' for Active; 'I' for Inactive)
REMARK    1  A    between atoms: C2_2  and  N1_3 
REMARK    2  A    between atoms: C5_7  and  N3_8 
REMARK    3  A    between atoms: N3_8  and  C6_9 
REMARK    4  A    between atoms: C12_17  and  C13_18 
REMARK    5  A    between atoms: C17_23  and  N5_24 
ROOT
HETATM    1  N1  UNL     1      21.806   0.177  53.686  1.00  0.00    -0.324 N 
HETATM    2  C3  UNL     1      22.572  -0.899  53.948  1.00  0.00     0.212 A 
HETATM    3  N2  UNL     1      23.797  -0.736  53.392  1.00  0.00    -0.236 NA
HETATM    4  C4  UNL     1      23.842   0.433  52.769  1.00  0.00     0.150 A 
HETATM    5  C5  UNL     1      24.783   1.152  52.035  1.00  0.00     0.163 A 
HETATM    6  N4  UNL     1      24.461   2.364  51.532  1.00  0.00    -0.212 NA
HETATM    7  C12 UNL     1      23.253   2.903  51.719  1.00  0.00     0.150 A 
HETATM    8  N6  UNL     1      22.355   2.206  52.426  1.00  0.00    -0.211 NA
HETATM    9  C19 UNL     1      22.594   0.994  52.960  1.00  0.00     0.165 A 
ENDROOT
BRANCH   7  10
HETATM   10  C13 UNL     1      22.794   4.215  51.217  1.00  0.00     0.082 C 
HETATM   11 BR1  UNL     1      22.913   4.241  49.267  1.00  0.00    -0.077 Br
HETATM   12  C14 UNL     1      21.367   4.540  51.567  1.00  0.00     0.029 C 
HETATM   13  C15 UNL     1      20.962   5.659  50.608  1.00  0.00     0.004 C 
HETATM   14  C16 UNL     1      21.837   6.851  50.819  1.00  0.00     0.035 C 
HETATM   15  C17 UNL     1      23.304   6.561  50.855  1.00  0.00     0.220 C 
HETATM   16  C18 UNL     1      23.658   5.352  51.698  1.00  0.00     0.064 C 
BRANCH  15  17
HETATM   17  N5  UNL     1      23.948   7.758  51.414  1.00  0.00     0.083 N 
HETATM   18  H19 UNL     1      24.956   7.533  51.513  1.00  0.00     0.313 HD
HETATM   19  H20 UNL     1      23.581   7.918  52.384  1.00  0.00     0.313 HD
ENDBRANCH  15  17
ENDBRANCH   7  10
BRANCH   5  20
HETATM   20  N3  UNL     1      26.067   0.587  51.832  1.00  0.00    -0.339 N 
HETATM   21  H7  UNL     1      26.038  -0.055  51.010  1.00  0.00     0.167 HD
BRANCH  20  22
HETATM   22  C6  UNL     1      27.221   0.844  52.614  1.00  0.00     0.035 A 
HETATM   23  C7  UNL     1      27.435   2.142  53.024  1.00  0.00     0.029 A 
HETATM   24  C8  UNL     1      28.578   2.370  53.793  1.00  0.00     0.004 A 
HETATM   25  C9  UNL     1      29.411   1.308  54.094  1.00  0.00     0.024 A 
HETATM   26  C10 UNL     1      29.163   0.014  53.663  1.00  0.00     0.036 A 
HETATM   27 CL1  UNL     1      30.223  -1.327  54.046  1.00  0.00    -0.084 Cl
HETATM   28  C11 UNL     1      28.026  -0.240  52.891  1.00  0.00     0.053 A 
ENDBRANCH  20  22
ENDBRANCH   5  20
BRANCH   1  29
HETATM   29  C2  UNL     1      20.418   0.421  54.096  1.00  0.00     0.127 C 
HETATM   30  C1  UNL     1      19.455  -0.214  53.112  1.00  0.00     0.027 C 
ENDBRANCH   1  29
TORSDOF 5
ENDMDL
MODEL 4
REMARK VINA RESULT:      -8.5      2.635      5.983
REMARK  5 active torsions:
REMARK  status: ('A' for Active; 'I' for Inactive)
REMARK    1  A    between atoms: C2_2  and  N1_3 
REMARK    2  A    between atoms: C5_7  and  N3_8 
REMARK    3  A    between atoms: N3_8  and  C6_9 
REMARK    4  A    between atoms: C12_17  and  C13_18 
REMARK    5  A    between atoms: C17_23  and  N5_24 
ROOT
HETATM    1  N1  UNL     1      21.191  -0.175  53.701  1.00  0.00    -0.324 N 
HETATM    2  C3  UNL     1      21.463  -1.192  54.540  1.00  0.00     0.212 A 
HETATM    3  N2  UNL     1      22.804  -1.357  54.641  1.00  0.00    -0.236 NA
HETATM    4  C4  UNL     1      23.413  -0.459  53.879  1.00  0.00     0.150 A 
HETATM    5  C5  UNL     1      24.729  -0.124  53.566  1.00  0.00     0.163 A 
HETATM    6  N4  UNL     1      24.980   0.894  52.714  1.00  0.00    -0.212 NA
HETATM    7  C12 UNL     1      23.992   1.599  52.154  1.00  0.00     0.150 A 
HETATM    8  N6  UNL     1      22.731   1.271  52.460  1.00  0.00    -0.211 NA
HETATM    9  C19 UNL     1      22.396   0.273  53.298  1.00  0.00     0.165 A 
ENDROOT
BRANCH   7  10
HETATM   10  C13 UNL     1      24.150   2.727  51.212  1.00  0.00     0.082 C 
HETATM   11 BR1  UNL     1      23.620   4.388  52.096  1.00  0.00    -0.077 Br
HETATM   12  C14 UNL     1      25.559   2.928  50.725  1.00  0.00     0.029 C 
HETATM   13  C15 UNL     1      25.594   4.351  50.169  1.00  0.00     0.004 C 
HETATM   14  C16 UNL     1      24.627   4.478  49.037  1.00  0.00     0.035 C 
HETATM   15  C17 UNL     1      23.254   3.951  49.315  1.00  0.00     0.220 C 
HETATM   16  C18 UNL     1      23.257   2.601  50.004  1.00  0.00     0.064 C 
BRANCH  15  17
HETATM   17  N5  UNL     1      22.584   3.838  48.012  1.00  0.00     0.083 N 
HETATM   18  H19 UNL     1      23.168   4.363  47.333  1.00  0.00     0.313 HD
HETATM   19  H20 UNL     1      21.663   4.337  48.061  1.00  0.00     0.313 HD
ENDBRANCH  15  17
ENDBRANCH   7  10
BRANCH   5  20
HETATM   20  N3  UNL     1      25.782  -0.868  54.157  1.00  0.00    -0.339 N 
HETATM   21  H7  UNL     1      25.380  -1.603  54.779  1.00  0.00     0.167 HD
BRANCH  20  22
HETATM   22  C6  UNL     1      27.167  -0.659  53.944  1.00  0.00     0.035 A 
HETATM   23  C7  UNL     1      27.857  -1.630  53.249  1.00  0.00     0.029 A 
HETATM   24  C8  UNL     1      29.221  -1.401  53.052  1.00  0.00     0.004 A 
HETATM   25  C9  UNL     1      29.789  -0.244  53.552  1.00  0.00     0.024 A 
HETATM   26  C10 UNL     1      29.062   0.710  54.247  1.00  0.00     0.036 A 
HETATM   27 CL1  UNL     1      29.789   2.173  54.879  1.00  0.00    -0.084 Cl
HETATM   28  C11 UNL     1      27.696   0.505  54.458  1.00  0.00     0.053 A 
ENDBRANCH  20  22
ENDBRANCH   5  20
BRANCH   1  29
HETATM   29  C2  UNL     1      19.876   0.345  53.305  1.00  0.00     0.127 C 
HETATM   30  C1  UNL     1      19.628   0.091  51.831  1.00  0.00     0.027 C 
ENDBRANCH   1  29
TORSDOF 5
ENDMDL
MODEL 5
REMARK VINA RESULT:      -8.5      2.046      5.112
REMARK  5 active torsions:
REMARK  status: ('A' for Active; 'I' for Inactive)
REMARK    1  A    between atoms: C2_2  and  N1_3 
REMARK    2  A    between atoms: C5_7  and  N3_8 
REMARK    3  A    between atoms: N3_8  and  C6_9 
REMARK    4  A    between atoms: C12_17  and  C13_18 
REMARK    5  A    between atoms: C17_23  and  N5_24 
ROOT
HETATM    1  N1  UNL     1      26.707   1.484  53.379  1.00  0.00    -0.324 N 
HETATM    2  C3  UNL     1      27.787   2.049  52.808  1.00  0.00     0.212 A 
HETATM    3  N2  UNL     1      27.430   2.655  51.650  1.00  0.00    -0.236 NA
HETATM    4  C4  UNL     1      26.128   2.494  51.456  1.00  0.00     0.150 A 
HETATM    5  C5  UNL     1      25.196   2.865  50.490  1.00  0.00     0.163 A 
HETATM    6  N4  UNL     1      23.901   2.508  50.631  1.00  0.00    -0.212 NA
HETATM    7  C12 UNL     1      23.480   1.800  51.684  1.00  0.00     0.150 A 
HETATM    8  N6  UNL     1      24.382   1.447  52.608  1.00  0.00    -0.211 NA
HETATM    9  C19 UNL     1      25.688   1.761  52.542  1.00  0.00     0.165 A 
ENDROOT
BRANCH   7  10
HETATM   10  C13 UNL     1      22.093   1.357  51.940  1.00  0.00     0.082 C 
HETATM   11 BR1  UNL     1      20.956   2.919  52.234  1.00  0.00    -0.077 Br
HETATM   12  C14 UNL     1      21.477   0.582  50.807  1.00  0.00     0.029 C 
HETATM   13  C15 UNL     1      19.972   0.623  51.062  1.00  0.00     0.004 C 
HETATM   14  C16 UNL     1      19.659  -0.027  52.370  1.00  0.00     0.035 C 
HETATM   15  C17 UNL     1      20.500   0.430  53.521  1.00  0.00     0.220 C 
HETATM   16  C18 UNL     1      21.976   0.521  53.189  1.00  0.00     0.064 C 
BRANCH  15  17
HETATM   17  N5  UNL     1      20.295  -0.550  54.596  1.00  0.00     0.083 N 
HETATM   18  H19 UNL     1      21.036  -0.374  55.302  1.00  0.00     0.313 HD
HETATM   19  H20 UNL     1      20.468  -1.512  54.216  1.00  0.00     0.313 HD
ENDBRANCH  15  17
ENDBRANCH   7  10
BRANCH   5  20
HETATM   20  N3  UNL     1      25.636   3.616  49.370  1.00  0.00    -0.339 N 
HETATM   21  H7  UNL     1      25.649   3.004  48.525  1.00  0.00     0.167 HD
BRANCH  20  22
HETATM   22  C6  UNL     1      26.003   4.985  49.381  1.00  0.00     0.035 A 
HETATM   23  C7  UNL     1      25.238   5.842  50.142  1.00  0.00     0.029 A 
HETATM   24  C8  UNL     1      25.620   7.186  50.136  1.00  0.00     0.004 A 
HETATM   25  C9  UNL     1      26.716   7.572  49.387  1.00  0.00     0.024 A 
HETATM   26  C10 UNL     1      27.461   6.679  48.633  1.00  0.00     0.036 A 
HETATM   27 CL1  UNL     1      28.849   7.175  47.684  1.00  0.00    -0.084 Cl
HETATM   28  C11 UNL     1      27.100   5.329  48.621  1.00  0.00     0.053 A 
ENDBRANCH  20  22
ENDBRANCH   5  20
BRANCH   1  29
HETATM   29  C2  UNL     1      26.638   0.731  54.638  1.00  0.00     0.127 C 
HETATM   30  C1  UNL     1      27.964   0.054  54.923  1.00  0.00     0.027 C 
ENDBRANCH   1  29
TORSDOF 5
ENDMDL
MODEL 6
REMARK VINA RESULT:      -8.3      2.788      5.519
REMARK  5 active torsions:
REMARK  status: ('A' for Active; 'I' for Inactive)
REMARK    1  A    between atoms: C2_2  and  N1_3 
REMARK    2  A    between atoms: C5_7  and  N3_8 
REMARK    3  A    between atoms: N3_8  and  C6_9 
REMARK    4  A    between atoms: C12_17  and  C13_18 
REMARK    5  A    between atoms: C17_23  and  N5_24 
ROOT
HETATM    1  N1  UNL     1      25.825   4.251  49.574  1.00  0.00    -0.324 N 
HETATM    2  C3  UNL     1      24.705   4.957  49.328  1.00  0.00     0.212 A 
HETATM    3  N2  UNL     1      23.704   4.526  50.133  1.00  0.00    -0.236 NA
HETATM    4  C4  UNL     1      24.155   3.545  50.903  1.00  0.00     0.150 A 
HETATM    5  C5  UNL     1      23.634   2.722  51.899  1.00  0.00     0.163 A 
HETATM    6  N4  UNL     1      24.423   1.795  52.486  1.00  0.00    -0.212 NA
HETATM    7  C12 UNL     1      25.704   1.641  52.137  1.00  0.00     0.150 A 
HETATM    8  N6  UNL     1      26.196   2.437  51.179  1.00  0.00    -0.211 NA
HETATM    9  C19 UNL     1      25.479   3.383  50.545  1.00  0.00     0.165 A 
ENDROOT
BRANCH   7  10
HETATM   10  C13 UNL     1      26.654   0.665  52.709  1.00  0.00     0.082 C 
HETATM   11 BR1  UNL     1      26.121   0.237  54.540  1.00  0.00    -0.077 Br
HETATM   12  C14 UNL     1      26.718  -0.640  51.962  1.00  0.00     0.029 C 
HETATM   13  C15 UNL     1      27.365  -1.628  52.931  1.00  0.00     0.004 C 
HETATM   14  C16 UNL     1      28.739  -1.163  53.289  1.00  0.00     0.035 C 
HETATM   15  C17 UNL     1      28.834   0.272  53.705  1.00  0.00     0.220 C 
HETATM   16  C18 UNL     1      28.056   1.211  52.806  1.00  0.00     0.064 C 
BRANCH  15  17
HETATM   17  N5  UNL     1      30.261   0.619  53.666  1.00  0.00     0.083 N 
HETATM   18  H19 UNL     1      30.748  -0.061  54.281  1.00  0.00     0.313 HD
HETATM   19  H20 UNL     1      30.392   1.563  54.103  1.00  0.00     0.313 HD
ENDBRANCH  15  17
ENDBRANCH   7  10
BRANCH   5  20
HETATM   20  N3  UNL     1      22.276   2.879  52.274  1.00  0.00    -0.339 N 
HETATM   21  H7  UNL     1      22.184   3.702  52.909  1.00  0.00     0.167 HD
BRANCH  20  22
HETATM   22  C6  UNL     1      21.199   2.057  51.859  1.00  0.00     0.035 A 
HETATM   23  C7  UNL     1      20.670   2.285  50.607  1.00  0.00     0.029 A 
HETATM   24  C8  UNL     1      19.610   1.462  50.221  1.00  0.00     0.004 A 
HETATM   25  C9  UNL     1      19.161   0.487  51.093  1.00  0.00     0.024 A 
HETATM   26  C10 UNL     1      19.719   0.288  52.346  1.00  0.00     0.036 A 
HETATM   27 CL1  UNL     1      19.145  -0.948  53.448  1.00  0.00    -0.084 Cl
HETATM   28  C11 UNL     1      20.780   1.098  52.757  1.00  0.00     0.053 A 
ENDBRANCH  20  22
ENDBRANCH   5  20
BRANCH   1  29
HETATM   29  C2  UNL     1      27.139   4.386  48.935  1.00  0.00     0.127 C 
HETATM   30  C1  UNL     1      27.373   5.820  48.502  1.00  0.00     0.027 C 
ENDBRANCH   1  29
TORSDOF 5
ENDMDL
MODEL 7
REMARK VINA RESULT:      -8.2      2.774      6.638
REMARK  5 active torsions:
REMARK  status: ('A' for Active; 'I' for Inactive)
REMARK    1  A    between atoms: C2_2  and  N1_3 
REMARK    2  A    between atoms: C5_7  and  N3_8 
REMARK    3  A    between atoms: N3_8  and  C6_9 
REMARK    4  A    between atoms: C12_17  and  C13_18 
REMARK    5  A    between atoms: C17_23  and  N5_24 
ROOT
HETATM    1  N1  UNL     1      23.899   5.496  49.072  1.00  0.00    -0.324 N 
HETATM    2  C3  UNL     1      25.174   5.897  48.913  1.00  0.00     0.212 A 
HETATM    3  N2  UNL     1      25.997   5.106  49.645  1.00  0.00    -0.236 NA
HETATM    4  C4  UNL     1      25.276   4.193  50.280  1.00  0.00     0.150 A 
HETATM    5  C5  UNL     1      25.524   3.135  51.151  1.00  0.00     0.163 A 
HETATM    6  N4  UNL     1      24.497   2.390  51.615  1.00  0.00    -0.212 NA
HETATM    7  C12 UNL     1      23.233   2.639  51.259  1.00  0.00     0.150 A 
HETATM    8  N6  UNL     1      23.004   3.657  50.421  1.00  0.00    -0.211 NA
HETATM    9  C19 UNL     1      23.968   4.447  49.914  1.00  0.00     0.165 A 
ENDROOT
BRANCH   7  10
HETATM   10  C13 UNL     1      22.037   1.892  51.703  1.00  0.00     0.082 C 
HETATM   11 BR1  UNL     1      20.527   3.122  51.864  1.00  0.00    -0.077 Br
HETATM   12  C14 UNL     1      21.608   0.804  50.756  1.00  0.00     0.029 C 
HETATM   13  C15 UNL     1      20.163   0.486  51.138  1.00  0.00     0.004 C 
HETATM   14  C16 UNL     1      20.104   0.003  52.551  1.00  0.00     0.035 C 
HETATM   15  C17 UNL     1      20.838   0.853  53.540  1.00  0.00     0.220 C 
HETATM   16  C18 UNL     1      22.214   1.276  53.067  1.00  0.00     0.064 C 
BRANCH  15  17
HETATM   17  N5  UNL     1      20.962   0.047  54.763  1.00  0.00     0.083 N 
HETATM   18  H19 UNL     1      20.030  -0.378  54.933  1.00  0.00     0.313 HD
HETATM   19  H20 UNL     1      21.150   0.686  55.573  1.00  0.00     0.313 HD
ENDBRANCH  15  17
ENDBRANCH   7  10
BRANCH   5  20
HETATM   20  N3  UNL     1      26.863   2.866  51.533  1.00  0.00    -0.339 N 
HETATM   21  H7  UNL     1      27.497   3.569  51.096  1.00  0.00     0.167 HD
BRANCH  20  22
HETATM   22  C6  UNL     1      27.289   1.811  52.378  1.00  0.00     0.035 A 
HETATM   23  C7  UNL     1      28.019   2.149  53.498  1.00  0.00     0.029 A 
HETATM   24  C8  UNL     1      28.427   1.091  54.315  1.00  0.00     0.004 A 
HETATM   25  C9  UNL     1      28.085  -0.202  53.965  1.00  0.00     0.024 A 
HETATM   26  C10 UNL     1      27.349  -0.502  52.829  1.00  0.00     0.036 A 
HETATM   27 CL1  UNL     1      26.920  -2.143  52.391  1.00  0.00    -0.084 Cl
HETATM   28  C11 UNL     1      26.929   0.537  51.995  1.00  0.00     0.053 A 
ENDBRANCH  20  22
ENDBRANCH   5  20
BRANCH   1  29
HETATM   29  C2  UNL     1      22.689   6.067  48.467  1.00  0.00     0.127 C 
HETATM   30  C1  UNL     1      22.284   5.271  47.241  1.00  0.00     0.027 C 
ENDBRANCH   1  29
TORSDOF 5
ENDMDL
MODEL 8
REMARK VINA RESULT:      -8.0      3.533      7.038
REMARK  5 active torsions:
REMARK  status: ('A' for Active; 'I' for Inactive)
REMARK    1  A    between atoms: C2_2  and  N1_3 
REMARK    2  A    between atoms: C5_7  and  N3_8 
REMARK    3  A    between atoms: N3_8  and  C6_9 
REMARK    4  A    between atoms: C12_17  and  C13_18 
REMARK    5  A    between atoms: C17_23  and  N5_24 
ROOT
HETATM    1  N1  UNL     1      25.503   0.023  52.746  1.00  0.00    -0.324 N 
HETATM    2  C3  UNL     1      24.885  -0.896  53.511  1.00  0.00     0.212 A 
HETATM    3  N2  UNL     1      23.593  -0.538  53.705  1.00  0.00    -0.236 NA
HETATM    4  C4  UNL     1      23.358   0.605  53.075  1.00  0.00     0.150 A 
HETATM    5  C5  UNL     1      22.269   1.457  52.899  1.00  0.00     0.163 A 
HETATM    6  N4  UNL     1      22.407   2.581  52.162  1.00  0.00    -0.212 NA
HETATM    7  C12 UNL     1      23.569   2.906  51.589  1.00  0.00     0.150 A 
HETATM    8  N6  UNL     1      24.610   2.082  51.763  1.00  0.00    -0.211 NA
HETATM    9  C19 UNL     1      24.558   0.945  52.481  1.00  0.00     0.165 A 
ENDROOT
BRANCH   7  10
HETATM   10  C13 UNL     1      23.832   4.104  50.765  1.00  0.00     0.082 C 
HETATM   11 BR1  UNL     1      25.662   4.033  50.083  1.00  0.00    -0.077 Br
HETATM   12  C14 UNL     1      22.930   4.236  49.568  1.00  0.00     0.029 C 
HETATM   13  C15 UNL     1      23.635   5.225  48.640  1.00  0.00     0.004 C 
HETATM   14  C16 UNL     1      23.791   6.544  49.325  1.00  0.00     0.035 C 
HETATM   15  C17 UNL     1      24.357   6.475  50.708  1.00  0.00     0.220 C 
HETATM   16  C18 UNL     1      23.738   5.383  51.558  1.00  0.00     0.064 C 
BRANCH  15  17
HETATM   17  N5  UNL     1      24.100   7.784  51.324  1.00  0.00     0.083 N 
HETATM   18  H19 UNL     1      23.422   7.621  52.092  1.00  0.00     0.313 HD
HETATM   19  H20 UNL     1      23.617   8.399  50.625  1.00  0.00     0.313 HD
ENDBRANCH  15  17
ENDBRANCH   7  10
BRANCH   5  20
HETATM   20  N3  UNL     1      21.033   1.118  53.504  1.00  0.00    -0.339 N 
HETATM   21  H7  UNL     1      21.051   1.395  54.510  1.00  0.00     0.167 HD
BRANCH  20  22
HETATM   22  C6  UNL     1      19.932   0.502  52.858  1.00  0.00     0.035 A 
HETATM   23  C7  UNL     1      19.487   1.068  51.683  1.00  0.00     0.029 A 
HETATM   24  C8  UNL     1      18.402   0.442  51.064  1.00  0.00     0.004 A 
HETATM   25  C9  UNL     1      17.849  -0.682  51.650  1.00  0.00     0.024 A 
HETATM   26  C10 UNL     1      18.324  -1.222  52.835  1.00  0.00     0.036 A 
HETATM   27 CL1  UNL     1      17.618  -2.645  53.572  1.00  0.00    -0.084 Cl
HETATM   28  C11 UNL     1      19.409  -0.615  53.473  1.00  0.00     0.053 A 
ENDBRANCH  20  22
ENDBRANCH   5  20
BRANCH   1  29
HETATM   29  C2  UNL     1      26.900   0.032  52.292  1.00  0.00     0.127 C 
HETATM   30  C1  UNL     1      27.697  -1.041  53.008  1.00  0.00     0.027 C 
ENDBRANCH   1  29
TORSDOF 5
ENDMDL
MODEL 9
REMARK VINA RESULT:      -7.9      2.308      5.236
REMARK  5 active torsions:
REMARK  status: ('A' for Active; 'I' for Inactive)
REMARK    1  A    between atoms: C2_2  and  N1_3 
REMARK    2  A    between atoms: C5_7  and  N3_8 
REMARK    3  A    between atoms: N3_8  and  C6_9 
REMARK    4  A    between atoms: C12_17  and  C13_18 
REMARK    5  A    between atoms: C17_23  and  N5_24 
ROOT
HETATM    1  N1  UNL     1      26.475   0.576  52.809  1.00  0.00    -0.324 N 
HETATM    2  C3  UNL     1      27.603   1.283  52.604  1.00  0.00     0.212 A 
HETATM    3  N2  UNL     1      27.311   2.432  51.948  1.00  0.00    -0.236 NA
HETATM    4  C4  UNL     1      26.006   2.485  51.721  1.00  0.00     0.150 A 
HETATM    5  C5  UNL     1      25.121   3.374  51.114  1.00  0.00     0.163 A 
HETATM    6  N4  UNL     1      23.802   3.084  51.068  1.00  0.00    -0.212 NA
HETATM    7  C12 UNL     1      23.312   1.957  51.594  1.00  0.00     0.150 A 
HETATM    8  N6  UNL     1      24.170   1.109  52.175  1.00  0.00    -0.211 NA
HETATM    9  C19 UNL     1      25.495   1.321  52.263  1.00  0.00     0.165 A 
ENDROOT
BRANCH   7  10
HETATM   10  C13 UNL     1      21.895   1.540  51.601  1.00  0.00     0.082 C 
HETATM   11 BR1  UNL     1      20.759   3.104  51.889  1.00  0.00    -0.077 Br
HETATM   12  C14 UNL     1      21.436   0.904  50.317  1.00  0.00     0.029 C 
HETATM   13  C15 UNL     1      19.910   0.974  50.355  1.00  0.00     0.004 C 
HETATM   14  C16 UNL     1      19.396   0.208  51.530  1.00  0.00     0.035 C 
HETATM   15  C17 UNL     1      20.068   0.518  52.831  1.00  0.00     0.220 C 
HETATM   16  C18 UNL     1      21.578   0.589  52.727  1.00  0.00     0.064 C 
BRANCH  15  17
HETATM   17  N5  UNL     1      19.687  -0.557  53.759  1.00  0.00     0.083 N 
HETATM   18  H19 UNL     1      20.318  -1.357  53.558  1.00  0.00     0.313 HD
HETATM   19  H20 UNL     1      18.716  -0.878  53.525  1.00  0.00     0.313 HD
ENDBRANCH  15  17
ENDBRANCH   7  10
BRANCH   5  20
HETATM   20  N3  UNL     1      25.633   4.571  50.554  1.00  0.00    -0.339 N 
HETATM   21  H7  UNL     1      26.670   4.499  50.469  1.00  0.00     0.167 HD
BRANCH  20  22
HETATM   22  C6  UNL     1      24.868   5.699  50.164  1.00  0.00     0.035 A 
HETATM   23  C7  UNL     1      24.471   6.571  51.155  1.00  0.00     0.029 A 
HETATM   24  C8  UNL     1      23.719   7.675  50.745  1.00  0.00     0.004 A 
HETATM   25  C9  UNL     1      23.423   7.828  49.402  1.00  0.00     0.024 A 
HETATM   26  C10 UNL     1      23.840   6.928  48.435  1.00  0.00     0.036 A 
HETATM   27 CL1  UNL     1      23.461   7.128  46.736  1.00  0.00    -0.084 Cl
HETATM   28  C11 UNL     1      24.594   5.816  48.818  1.00  0.00     0.053 A 
ENDBRANCH  20  22
ENDBRANCH   5  20
BRANCH   1  29
HETATM   29  C2  UNL     1      26.330  -0.723  53.479  1.00  0.00     0.127 C 
HETATM   30  C1  UNL     1      25.712  -0.545  54.852  1.00  0.00     0.027 C 
ENDBRANCH   1  29
TORSDOF 5
ENDMDL
