MODEL 1
REMARK VINA RESULT:      -7.0      0.000      0.000
REMARK  7 active torsions:
REMARK  status: ('A' for Active; 'I' for Inactive)
REMARK    1  A    between atoms: C4_5  and  O1_6 
REMARK    2  A    between atoms: O1_6  and  C5_7 
REMARK    3  A    between atoms: C10_12  and  C11_13 
REMARK    4  A    between atoms: C11_13  and  N2_14 
REMARK    5  A    between atoms: N2_14  and  C12_15 
REMARK    6  A    between atoms: C12_15  and  C13_16 
REMARK    7  A    between atoms: C14_17  and  C15_19 
ROOT
HETATM    1  C5  UNL     1      23.066   0.167  52.761  1.00  0.00     0.077 A 
HETATM    2  C6  UNL     1      21.664   0.103  52.666  1.00  0.00     0.037 A 
HETATM    3  C7  UNL     1      20.861  -0.561  53.604  1.00  0.00     0.003 A 
HETATM    4  C8  UNL     1      21.495  -1.178  54.673  1.00  0.00     0.001 A 
HETATM    5  C9  UNL     1      22.859  -1.135  54.797  1.00  0.00     0.011 A 
HETATM    6  C10 UNL     1      23.609  -0.465  53.842  1.00  0.00    -0.007 A 
ENDROOT
BRANCH   1   7
HETATM    7  O1  UNL     1      23.465   0.850  51.723  1.00  0.00    -0.341 OA
BRANCH   7   8
HETATM    8  C4  UNL     1      24.048   1.969  51.297  1.00  0.00     0.157 C 
HETATM    9  C3  UNL     1      23.274   2.635  50.120  1.00  0.00     0.067 C 
HETATM   10  C2  UNL     1      23.685   4.063  50.084  1.00  0.00     0.275 C 
HETATM   11  N1  UNL     1      22.810   4.928  50.853  1.00  0.00     0.088 N 
HETATM   12  C1  UNL     1      23.513   6.179  51.072  1.00  0.00     0.310 C 
HETATM   13  C16 UNL     1      22.530   4.361  52.161  1.00  0.00     0.304 C 
HETATM   14  P1  UNL     1      24.041   3.333  52.610  1.00  0.00    -0.068 P 
HETATM   15  H21 UNL     1      25.174   4.198  52.467  1.00  0.00     0.061 HD
ENDBRANCH   7   8
ENDBRANCH   1   7
BRANCH   6  16
HETATM   16  C11 UNL     1      25.055  -0.395  54.065  1.00  0.00     0.156 C 
BRANCH  16  17
HETATM   17  N2  UNL     1      25.878  -1.157  53.217  1.00  0.00    -0.414 N 
HETATM   18  H15 UNL     1      25.806  -2.176  53.236  1.00  0.00     0.153 HD
BRANCH  17  19
HETATM   19  C12 UNL     1      26.789  -0.551  52.336  1.00  0.00     0.143 C 
BRANCH  19  20
HETATM   20  C13 UNL     1      27.192   0.832  52.828  1.00  0.00     0.014 C 
HETATM   21  C14 UNL     1      28.387   1.095  53.330  1.00  0.00     0.038 C 
HETATM   22 CL1  UNL     1      29.725  -0.006  53.544  1.00  0.00    -0.087 Cl
BRANCH  21  23
HETATM   23  C15 UNL     1      28.749   2.451  53.799  1.00  0.00     0.273 C 
HETATM   24  F1  UNL     1      29.794   2.468  54.697  1.00  0.00    -0.250 F 
ENDBRANCH  21  23
ENDBRANCH  19  20
ENDBRANCH  17  19
ENDBRANCH  16  17
ENDBRANCH   6  16
TORSDOF 7
ENDMDL
MODEL 2
REMARK VINA RESULT:      -6.9      2.995      5.078
REMARK  7 active torsions:
REMARK  status: ('A' for Active; 'I' for Inactive)
REMARK    1  A    between atoms: C4_5  and  O1_6 
REMARK    2  A    between atoms: O1_6  and  C5_7 
REMARK    3  A    between atoms: C10_12  and  C11_13 
REMARK    4  A    between atoms: C11_13  and  N2_14 
REMARK    5  A    between atoms: N2_14  and  C12_15 
REMARK    6  A    between atoms: C12_15  and  C13_16 
REMARK    7  A    between atoms: C14_17  and  C15_19 
ROOT
HETATM    1  C5  UNL     1      23.303  -0.178  53.208  1.00  0.00     0.077 A 
HETATM    2  C6  UNL     1      22.803  -0.887  54.316  1.00  0.00     0.037 A 
HETATM    3  C7  UNL     1      21.525  -0.670  54.851  1.00  0.00     0.003 A 
HETATM    4  C8  UNL     1      20.729   0.292  54.248  1.00  0.00     0.001 A 
HETATM    5  C9  UNL     1      21.184   1.001  53.167  1.00  0.00     0.011 A 
HETATM    6  C10 UNL     1      22.455   0.749  52.675  1.00  0.00    -0.007 A 
ENDROOT
BRANCH   1   7
HETATM    7  O1  UNL     1      24.508  -0.637  53.004  1.00  0.00    -0.341 OA
BRANCH   7   8
HETATM    8  C4  UNL     1      25.687  -0.924  53.554  1.00  0.00     0.157 C 
HETATM    9  C3  UNL     1      26.795  -1.183  52.491  1.00  0.00     0.067 C 
HETATM   10  C2  UNL     1      28.102  -0.977  53.167  1.00  0.00     0.275 C 
HETATM   11  N1  UNL     1      28.606   0.377  53.033  1.00  0.00     0.088 N 
HETATM   12  C1  UNL     1      29.639   0.562  54.035  1.00  0.00     0.310 C 
HETATM   13  C16 UNL     1      27.564   1.353  53.308  1.00  0.00     0.304 C 
HETATM   14  P1  UNL     1      26.400   0.530  54.535  1.00  0.00    -0.068 P 
HETATM   15  H21 UNL     1      27.215   0.074  55.621  1.00  0.00     0.061 HD
ENDBRANCH   7   8
ENDBRANCH   1   7
BRANCH   6  16
HETATM   16  C11 UNL     1      22.860   1.488  51.476  1.00  0.00     0.156 C 
BRANCH  16  17
HETATM   17  N2  UNL     1      24.228   1.780  51.329  1.00  0.00    -0.414 N 
HETATM   18  H15 UNL     1      24.858   1.056  50.980  1.00  0.00     0.153 HD
BRANCH  17  19
HETATM   19  C12 UNL     1      24.747   3.048  51.642  1.00  0.00     0.143 C 
BRANCH  19  20
HETATM   20  C13 UNL     1      25.778   3.489  50.613  1.00  0.00     0.014 C 
HETATM   21  C14 UNL     1      25.696   4.638  49.963  1.00  0.00     0.038 C 
HETATM   22 CL1  UNL     1      24.464   5.867  50.111  1.00  0.00    -0.087 Cl
BRANCH  21  23
HETATM   23  C15 UNL     1      26.715   5.040  48.968  1.00  0.00     0.273 C 
HETATM   24  F1  UNL     1      27.592   4.030  48.632  1.00  0.00    -0.250 F 
ENDBRANCH  21  23
ENDBRANCH  19  20
ENDBRANCH  17  19
ENDBRANCH  16  17
ENDBRANCH   6  16
TORSDOF 7
ENDMDL
MODEL 3
REMARK VINA RESULT:      -6.8      1.816      2.102
REMARK  7 active torsions:
REMARK  status: ('A' for Active; 'I' for Inactive)
REMARK    1  A    between atoms: C4_5  and  O1_6 
REMARK    2  A    between atoms: O1_6  and  C5_7 
REMARK    3  A    between atoms: C10_12  and  C11_13 
REMARK    4  A    between atoms: C11_13  and  N2_14 
REMARK    5  A    between atoms: N2_14  and  C12_15 
REMARK    6  A    between atoms: C12_15  and  C13_16 
REMARK    7  A    between atoms: C14_17  and  C15_19 
ROOT
HETATM    1  C5  UNL     1      22.723   0.588  53.025  1.00  0.00     0.077 A 
HETATM    2  C6  UNL     1      21.324   0.708  53.101  1.00  0.00     0.037 A 
HETATM    3  C7  UNL     1      20.528  -0.106  53.919  1.00  0.00     0.003 A 
HETATM    4  C8  UNL     1      21.166  -1.072  54.684  1.00  0.00     0.001 A 
HETATM    5  C9  UNL     1      22.528  -1.216  54.635  1.00  0.00     0.011 A 
HETATM    6  C10 UNL     1      23.271  -0.385  53.811  1.00  0.00    -0.007 A 
ENDROOT
BRANCH   1   7
HETATM    7  O1  UNL     1      23.115   1.493  52.171  1.00  0.00    -0.341 OA
BRANCH   7   8
HETATM    8  C4  UNL     1      22.912   2.720  51.693  1.00  0.00     0.157 C 
HETATM    9  C3  UNL     1      23.921   3.759  52.265  1.00  0.00     0.067 C 
HETATM   10  C2  UNL     1      23.944   4.907  51.320  1.00  0.00     0.275 C 
HETATM   11  N1  UNL     1      24.979   4.793  50.310  1.00  0.00     0.088 N 
HETATM   12  C1  UNL     1      24.656   5.723  49.245  1.00  0.00     0.310 C 
HETATM   13  C16 UNL     1      24.996   3.463  49.725  1.00  0.00     0.304 C 
HETATM   14  P1  UNL     1      23.226   2.833  49.829  1.00  0.00    -0.068 P 
HETATM   15  H21 UNL     1      22.404   3.837  49.223  1.00  0.00     0.061 HD
ENDBRANCH   7   8
ENDBRANCH   1   7
BRANCH   6  16
HETATM   16  C11 UNL     1      24.727  -0.541  53.852  1.00  0.00     0.156 C 
BRANCH  16  17
HETATM   17  N2  UNL     1      25.507   0.591  53.557  1.00  0.00    -0.414 N 
HETATM   18  H15 UNL     1      25.392   1.436  54.120  1.00  0.00     0.153 HD
BRANCH  17  19
HETATM   19  C12 UNL     1      26.447   0.587  52.514  1.00  0.00     0.143 C 
BRANCH  19  20
HETATM   20  C13 UNL     1      27.525  -0.462  52.749  1.00  0.00     0.014 C 
HETATM   21  C14 UNL     1      28.635  -0.211  53.423  1.00  0.00     0.038 C 
HETATM   22 CL1  UNL     1      29.118   1.291  54.169  1.00  0.00    -0.087 Cl
BRANCH  21  23
HETATM   23  C15 UNL     1      29.664  -1.253  53.636  1.00  0.00     0.273 C 
HETATM   24  F1  UNL     1      29.247  -2.523  53.297  1.00  0.00    -0.250 F 
ENDBRANCH  21  23
ENDBRANCH  19  20
ENDBRANCH  17  19
ENDBRANCH  16  17
ENDBRANCH   6  16
TORSDOF 7
ENDMDL
MODEL 4
REMARK VINA RESULT:      -6.7      2.016      2.600
REMARK  7 active torsions:
REMARK  status: ('A' for Active; 'I' for Inactive)
REMARK    1  A    between atoms: C4_5  and  O1_6 
REMARK    2  A    between atoms: O1_6  and  C5_7 
REMARK    3  A    between atoms: C10_12  and  C11_13 
REMARK    4  A    between atoms: C11_13  and  N2_14 
REMARK    5  A    between atoms: N2_14  and  C12_15 
REMARK    6  A    between atoms: C12_15  and  C13_16 
REMARK    7  A    between atoms: C14_17  and  C15_19 
ROOT
HETATM    1  C5  UNL     1      23.065   1.881  51.568  1.00  0.00     0.077 A 
HETATM    2  C6  UNL     1      22.005   1.012  51.249  1.00  0.00     0.037 A 
HETATM    3  C7  UNL     1      21.711  -0.142  51.988  1.00  0.00     0.003 A 
HETATM    4  C8  UNL     1      22.513  -0.428  53.083  1.00  0.00     0.001 A 
HETATM    5  C9  UNL     1      23.553   0.397  53.423  1.00  0.00     0.011 A 
HETATM    6  C10 UNL     1      23.803   1.527  52.661  1.00  0.00    -0.007 A 
ENDROOT
BRANCH   1   7
HETATM    7  O1  UNL     1      23.036   2.827  50.669  1.00  0.00    -0.341 OA
BRANCH   7   8
HETATM    8  C4  UNL     1      22.640   4.067  50.386  1.00  0.00     0.157 C 
HETATM    9  C3  UNL     1      22.604   4.985  51.643  1.00  0.00     0.067 C 
HETATM   10  C2  UNL     1      22.664   6.388  51.157  1.00  0.00     0.275 C 
HETATM   11  N1  UNL     1      24.016   6.911  51.091  1.00  0.00     0.088 N 
HETATM   12  C1  UNL     1      23.987   8.094  50.251  1.00  0.00     0.310 C 
HETATM   13  C16 UNL     1      24.915   5.961  50.459  1.00  0.00     0.304 C 
HETATM   14  P1  UNL     1      23.857   4.975  49.255  1.00  0.00    -0.068 P 
HETATM   15  H21 UNL     1      23.184   5.934  48.430  1.00  0.00     0.061 HD
ENDBRANCH   7   8
ENDBRANCH   1   7
BRANCH   6  16
HETATM   16  C11 UNL     1      24.884   2.406  53.113  1.00  0.00     0.156 C 
BRANCH  16  17
HETATM   17  N2  UNL     1      25.798   2.857  52.144  1.00  0.00    -0.414 N 
HETATM   18  H15 UNL     1      25.743   3.823  51.818  1.00  0.00     0.153 HD
BRANCH  17  19
HETATM   19  C12 UNL     1      26.792   2.013  51.620  1.00  0.00     0.143 C 
BRANCH  19  20
HETATM   20  C13 UNL     1      27.732   1.525  52.712  1.00  0.00     0.014 C 
HETATM   21  C14 UNL     1      27.762   0.269  53.126  1.00  0.00     0.038 C 
HETATM   22 CL1  UNL     1      26.792  -1.068  52.560  1.00  0.00    -0.087 Cl
BRANCH  21  23
HETATM   23  C15 UNL     1      28.689  -0.174  54.191  1.00  0.00     0.273 C 
HETATM   24  F1  UNL     1      30.018  -0.113  53.831  1.00  0.00    -0.250 F 
ENDBRANCH  21  23
ENDBRANCH  19  20
ENDBRANCH  17  19
ENDBRANCH  16  17
ENDBRANCH   6  16
TORSDOF 7
ENDMDL
MODEL 5
REMARK VINA RESULT:      -6.6      2.982      5.060
REMARK  7 active torsions:
REMARK  status: ('A' for Active; 'I' for Inactive)
REMARK    1  A    between atoms: C4_5  and  O1_6 
REMARK    2  A    between atoms: O1_6  and  C5_7 
REMARK    3  A    between atoms: C10_12  and  C11_13 
REMARK    4  A    between atoms: C11_13  and  N2_14 
REMARK    5  A    between atoms: N2_14  and  C12_15 
REMARK    6  A    between atoms: C12_15  and  C13_16 
REMARK    7  A    between atoms: C14_17  and  C15_19 
ROOT
HETATM    1  C5  UNL     1      26.700   1.356  52.818  1.00  0.00     0.077 A 
HETATM    2  C6  UNL     1      27.742   2.302  52.839  1.00  0.00     0.037 A 
HETATM    3  C7  UNL     1      28.873   2.179  53.657  1.00  0.00     0.003 A 
HETATM    4  C8  UNL     1      28.955   1.066  54.481  1.00  0.00     0.001 A 
HETATM    5  C9  UNL     1      27.959   0.125  54.486  1.00  0.00     0.011 A 
HETATM    6  C10 UNL     1      26.861   0.291  53.657  1.00  0.00    -0.007 A 
ENDROOT
BRANCH   1   7
HETATM    7  O1  UNL     1      25.828   1.801  51.955  1.00  0.00    -0.341 OA
BRANCH   7   8
HETATM    8  C4  UNL     1      24.573   2.204  51.763  1.00  0.00     0.157 C 
HETATM    9  C3  UNL     1      24.086   3.187  52.869  1.00  0.00     0.067 C 
HETATM   10  C2  UNL     1      22.938   3.942  52.304  1.00  0.00     0.275 C 
HETATM   11  N1  UNL     1      23.330   5.193  51.681  1.00  0.00     0.088 N 
HETATM   12  C1  UNL     1      22.230   5.627  50.839  1.00  0.00     0.310 C 
HETATM   13  C16 UNL     1      24.483   5.009  50.815  1.00  0.00     0.304 C 
HETATM   14  P1  UNL     1      24.377   3.237  50.189  1.00  0.00    -0.068 P 
HETATM   15  H21 UNL     1      23.068   3.085  49.627  1.00  0.00     0.061 HD
ENDBRANCH   7   8
ENDBRANCH   1   7
BRANCH   6  16
HETATM   16  C11 UNL     1      25.863  -0.781  53.656  1.00  0.00     0.156 C 
BRANCH  16  17
HETATM   17  N2  UNL     1      25.177  -1.028  54.859  1.00  0.00    -0.414 N 
HETATM   18  H15 UNL     1      25.707  -1.096  55.730  1.00  0.00     0.153 HD
BRANCH  17  19
HETATM   19  C12 UNL     1      23.780  -1.173  54.894  1.00  0.00     0.143 C 
BRANCH  19  20
HETATM   20  C13 UNL     1      23.141  -0.654  53.614  1.00  0.00     0.014 C 
HETATM   21  C14 UNL     1      21.964  -0.051  53.593  1.00  0.00     0.038 C 
HETATM   22 CL1  UNL     1      20.909   0.285  54.943  1.00  0.00    -0.087 Cl
BRANCH  21  23
HETATM   23  C15 UNL     1      21.370   0.444  52.332  1.00  0.00     0.273 C 
HETATM   24  F1  UNL     1      22.099   0.118  51.208  1.00  0.00    -0.250 F 
ENDBRANCH  21  23
ENDBRANCH  19  20
ENDBRANCH  17  19
ENDBRANCH  16  17
ENDBRANCH   6  16
TORSDOF 7
ENDMDL
MODEL 6
REMARK VINA RESULT:      -6.6      3.649      6.866
REMARK  7 active torsions:
REMARK  status: ('A' for Active; 'I' for Inactive)
REMARK    1  A    between atoms: C4_5  and  O1_6 
REMARK    2  A    between atoms: O1_6  and  C5_7 
REMARK    3  A    between atoms: C10_12  and  C11_13 
REMARK    4  A    between atoms: C11_13  and  N2_14 
REMARK    5  A    between atoms: N2_14  and  C12_15 
REMARK    6  A    between atoms: C12_15  and  C13_16 
REMARK    7  A    between atoms: C14_17  and  C15_19 
ROOT
HETATM    1  C5  UNL     1      25.125   2.864  50.668  1.00  0.00     0.077 A 
HETATM    2  C6  UNL     1      26.398   2.929  50.072  1.00  0.00     0.037 A 
HETATM    3  C7  UNL     1      26.849   4.041  49.347  1.00  0.00     0.003 A 
HETATM    4  C8  UNL     1      25.987   5.120  49.221  1.00  0.00     0.001 A 
HETATM    5  C9  UNL     1      24.740   5.091  49.789  1.00  0.00     0.011 A 
HETATM    6  C10 UNL     1      24.341   3.968  50.496  1.00  0.00    -0.007 A 
ENDROOT
BRANCH   1   7
HETATM    7  O1  UNL     1      25.057   1.693  51.242  1.00  0.00    -0.341 OA
BRANCH   7   8
HETATM    8  C4  UNL     1      25.460   0.942  52.266  1.00  0.00     0.157 C 
HETATM    9  C3  UNL     1      26.629  -0.013  51.883  1.00  0.00     0.067 C 
HETATM   10  C2  UNL     1      27.312  -0.391  53.148  1.00  0.00     0.275 C 
HETATM   11  N1  UNL     1      28.427   0.477  53.475  1.00  0.00     0.088 N 
HETATM   12  C1  UNL     1      28.746   0.274  54.876  1.00  0.00     0.310 C 
HETATM   13  C16 UNL     1      28.066   1.877  53.319  1.00  0.00     0.304 C 
HETATM   14  P1  UNL     1      26.218   1.971  53.663  1.00  0.00    -0.068 P 
HETATM   15  H21 UNL     1      26.013   1.348  54.937  1.00  0.00     0.061 HD
ENDBRANCH   7   8
ENDBRANCH   1   7
BRANCH   6  16
HETATM   16  C11 UNL     1      23.025   4.022  51.138  1.00  0.00     0.156 C 
BRANCH  16  17
HETATM   17  N2  UNL     1      22.777   3.113  52.182  1.00  0.00    -0.414 N 
HETATM   18  H15 UNL     1      23.422   3.074  52.973  1.00  0.00     0.153 HD
BRANCH  17  19
HETATM   19  C12 UNL     1      21.659   2.262  52.167  1.00  0.00     0.143 C 
BRANCH  19  20
HETATM   20  C13 UNL     1      21.858   1.075  53.098  1.00  0.00     0.014 C 
HETATM   21  C14 UNL     1      20.980   0.092  53.205  1.00  0.00     0.038 C 
HETATM   22 CL1  UNL     1      19.463  -0.085  52.360  1.00  0.00    -0.087 Cl
BRANCH  21  23
HETATM   23  C15 UNL     1      21.203  -1.050  54.120  1.00  0.00     0.273 C 
HETATM   24  F1  UNL     1      20.153  -1.942  54.161  1.00  0.00    -0.250 F 
ENDBRANCH  21  23
ENDBRANCH  19  20
ENDBRANCH  17  19
ENDBRANCH  16  17
ENDBRANCH   6  16
TORSDOF 7
ENDMDL
MODEL 7
REMARK VINA RESULT:      -6.5      1.856      2.031
REMARK  7 active torsions:
REMARK  status: ('A' for Active; 'I' for Inactive)
REMARK    1  A    between atoms: C4_5  and  O1_6 
REMARK    2  A    between atoms: O1_6  and  C5_7 
REMARK    3  A    between atoms: C10_12  and  C11_13 
REMARK    4  A    between atoms: C11_13  and  N2_14 
REMARK    5  A    between atoms: N2_14  and  C12_15 
REMARK    6  A    between atoms: C12_15  and  C13_16 
REMARK    7  A    between atoms: C14_17  and  C15_19 
ROOT
HETATM    1  C5  UNL     1      22.306   0.721  53.377  1.00  0.00     0.077 A 
HETATM    2  C6  UNL     1      20.900   0.702  53.365  1.00  0.00     0.037 A 
HETATM    3  C7  UNL     1      20.144  -0.394  53.803  1.00  0.00     0.003 A 
HETATM    4  C8  UNL     1      20.830  -1.506  54.269  1.00  0.00     0.001 A 
HETATM    5  C9  UNL     1      22.200  -1.522  54.295  1.00  0.00     0.011 A 
HETATM    6  C10 UNL     1      22.902  -0.412  53.851  1.00  0.00    -0.007 A 
ENDROOT
BRANCH   1   7
HETATM    7  O1  UNL     1      22.654   1.884  52.898  1.00  0.00    -0.341 OA
BRANCH   7   8
HETATM    8  C4  UNL     1      22.918   2.589  51.799  1.00  0.00     0.157 C 
HETATM    9  C3  UNL     1      22.816   1.734  50.501  1.00  0.00     0.067 C 
HETATM   10  C2  UNL     1      22.615   2.681  49.373  1.00  0.00     0.275 C 
HETATM   11  N1  UNL     1      21.217   2.910  49.063  1.00  0.00     0.088 N 
HETATM   12  C1  UNL     1      21.138   4.112  48.254  1.00  0.00     0.310 C 
HETATM   13  C16 UNL     1      20.446   3.157  50.271  1.00  0.00     0.304 C 
HETATM   14  P1  UNL     1      21.641   3.951  51.488  1.00  0.00    -0.068 P 
HETATM   15  H21 UNL     1      22.226   5.068  50.809  1.00  0.00     0.061 HD
ENDBRANCH   7   8
ENDBRANCH   1   7
BRANCH   6  16
HETATM   16  C11 UNL     1      24.362  -0.462  53.967  1.00  0.00     0.156 C 
BRANCH  16  17
HETATM   17  N2  UNL     1      25.097   0.544  53.314  1.00  0.00    -0.414 N 
HETATM   18  H15 UNL     1      24.971   1.517  53.598  1.00  0.00     0.153 HD
BRANCH  17  19
HETATM   19  C12 UNL     1      26.007   0.241  52.288  1.00  0.00     0.143 C 
BRANCH  19  20
HETATM   20  C13 UNL     1      27.241  -0.461  52.836  1.00  0.00     0.014 C 
HETATM   21  C14 UNL     1      28.250   0.190  53.391  1.00  0.00     0.038 C 
HETATM   22 CL1  UNL     1      28.415   1.912  53.623  1.00  0.00    -0.087 Cl
BRANCH  21  23
HETATM   23  C15 UNL     1      29.436  -0.523  53.916  1.00  0.00     0.273 C 
HETATM   24  F1  UNL     1      30.632  -0.057  53.412  1.00  0.00    -0.250 F 
ENDBRANCH  21  23
ENDBRANCH  19  20
ENDBRANCH  17  19
ENDBRANCH  16  17
ENDBRANCH   6  16
TORSDOF 7
ENDMDL
MODEL 8
REMARK VINA RESULT:      -6.4      2.375      4.334
REMARK  7 active torsions:
REMARK  status: ('A' for Active; 'I' for Inactive)
REMARK    1  A    between atoms: C4_5  and  O1_6 
REMARK    2  A    between atoms: O1_6  and  C5_7 
REMARK    3  A    between atoms: C10_12  and  C11_13 
REMARK    4  A    between atoms: C11_13  and  N2_14 
REMARK    5  A    between atoms: N2_14  and  C12_15 
REMARK    6  A    between atoms: C12_15  and  C13_16 
REMARK    7  A    between atoms: C14_17  and  C15_19 
ROOT
HETATM    1  C5  UNL     1      23.891   2.902  50.931  1.00  0.00     0.077 A 
HETATM    2  C6  UNL     1      24.481   3.562  49.838  1.00  0.00     0.037 A 
HETATM    3  C7  UNL     1      25.855   3.516  49.565  1.00  0.00     0.003 A 
HETATM    4  C8  UNL     1      26.658   2.779  50.423  1.00  0.00     0.001 A 
HETATM    5  C9  UNL     1      26.117   2.122  51.497  1.00  0.00     0.011 A 
HETATM    6  C10 UNL     1      24.751   2.199  51.724  1.00  0.00    -0.007 A 
ENDROOT
BRANCH   1   7
HETATM    7  O1  UNL     1      22.616   3.174  50.869  1.00  0.00    -0.341 OA
BRANCH   7   8
HETATM    8  C4  UNL     1      21.393   2.685  50.668  1.00  0.00     0.157 C 
HETATM    9  C3  UNL     1      21.407   1.176  50.283  1.00  0.00     0.067 C 
HETATM   10  C2  UNL     1      20.057   0.637  50.590  1.00  0.00     0.275 C 
HETATM   11  N1  UNL     1      19.960   0.066  51.920  1.00  0.00     0.088 N 
HETATM   12  C1  UNL     1      18.550  -0.052  52.245  1.00  0.00     0.310 C 
HETATM   13  C16 UNL     1      20.555   0.944  52.913  1.00  0.00     0.304 C 
HETATM   14  P1  UNL     1      20.344   2.691  52.245  1.00  0.00    -0.068 P 
HETATM   15  H21 UNL     1      18.952   2.843  51.943  1.00  0.00     0.061 HD
ENDBRANCH   7   8
ENDBRANCH   1   7
BRANCH   6  16
HETATM   16  C11 UNL     1      24.221   1.421  52.847  1.00  0.00     0.156 C 
BRANCH  16  17
HETATM   17  N2  UNL     1      24.668   0.095  52.982  1.00  0.00    -0.414 N 
HETATM   18  H15 UNL     1      24.708  -0.505  52.156  1.00  0.00     0.153 HD
BRANCH  17  19
HETATM   19  C12 UNL     1      25.068  -0.424  54.225  1.00  0.00     0.143 C 
BRANCH  19  20
HETATM   20  C13 UNL     1      26.360   0.224  54.701  1.00  0.00     0.014 C 
HETATM   21  C14 UNL     1      27.545  -0.090  54.204  1.00  0.00     0.038 C 
HETATM   22 CL1  UNL     1      27.909  -1.254  52.954  1.00  0.00    -0.087 Cl
BRANCH  21  23
HETATM   23  C15 UNL     1      28.784   0.559  54.688  1.00  0.00     0.273 C 
HETATM   24  F1  UNL     1      29.830   0.496  53.792  1.00  0.00    -0.250 F 
ENDBRANCH  21  23
ENDBRANCH  19  20
ENDBRANCH  17  19
ENDBRANCH  16  17
ENDBRANCH   6  16
TORSDOF 7
ENDMDL
MODEL 9
REMARK VINA RESULT:      -6.3      4.016      5.945
REMARK  7 active torsions:
REMARK  status: ('A' for Active; 'I' for Inactive)
REMARK    1  A    between atoms: C4_5  and  O1_6 
REMARK    2  A    between atoms: O1_6  and  C5_7 
REMARK    3  A    between atoms: C10_12  and  C11_13 
REMARK    4  A    between atoms: C11_13  and  N2_14 
REMARK    5  A    between atoms: N2_14  and  C12_15 
REMARK    6  A    between atoms: C12_15  and  C13_16 
REMARK    7  A    between atoms: C14_17  and  C15_19 
ROOT
HETATM    1  C5  UNL     1      24.662   0.981  52.051  1.00  0.00     0.077 A 
HETATM    2  C6  UNL     1      26.032   1.219  51.835  1.00  0.00     0.037 A 
HETATM    3  C7  UNL     1      27.046   0.525  52.509  1.00  0.00     0.003 A 
HETATM    4  C8  UNL     1      26.665  -0.440  53.429  1.00  0.00     0.001 A 
HETATM    5  C9  UNL     1      25.340  -0.699  53.664  1.00  0.00     0.011 A 
HETATM    6  C10 UNL     1      24.374   0.014  52.971  1.00  0.00    -0.007 A 
ENDROOT
BRANCH   1   7
HETATM    7  O1  UNL     1      24.026   1.806  51.265  1.00  0.00    -0.341 OA
BRANCH   7   8
HETATM    8  C4  UNL     1      23.236   2.876  51.197  1.00  0.00     0.157 C 
HETATM    9  C3  UNL     1      23.439   3.846  52.399  1.00  0.00     0.067 C 
HETATM   10  C2  UNL     1      22.932   5.176  51.974  1.00  0.00     0.275 C 
HETATM   11  N1  UNL     1      23.963   6.025  51.406  1.00  0.00     0.088 N 
HETATM   12  C1  UNL     1      23.301   7.094  50.681  1.00  0.00     0.310 C 
HETATM   13  C16 UNL     1      24.771   5.294  50.444  1.00  0.00     0.304 C 
HETATM   14  P1  UNL     1      23.638   3.981  49.713  1.00  0.00    -0.068 P 
HETATM   15  H21 UNL     1      22.472   4.668  49.245  1.00  0.00     0.061 HD
ENDBRANCH   7   8
ENDBRANCH   1   7
BRANCH   6  16
HETATM   16  C11 UNL     1      22.977  -0.354  53.214  1.00  0.00     0.156 C 
BRANCH  16  17
HETATM   17  N2  UNL     1      22.094   0.674  53.592  1.00  0.00    -0.414 N 
HETATM   18  H15 UNL     1      22.377   1.332  54.320  1.00  0.00     0.153 HD
BRANCH  17  19
HETATM   19  C12 UNL     1      20.836   0.823  52.985  1.00  0.00     0.143 C 
BRANCH  19  20
HETATM   20  C13 UNL     1      19.848  -0.211  53.506  1.00  0.00     0.014 C 
HETATM   21  C14 UNL     1      18.796  -0.612  52.812  1.00  0.00     0.038 C 
HETATM   22 CL1  UNL     1      18.303  -0.093  51.220  1.00  0.00    -0.087 Cl
BRANCH  21  23
HETATM   23  C15 UNL     1      17.854  -1.620  53.346  1.00  0.00     0.273 C 
HETATM   24  F1  UNL     1      18.469  -2.654  54.019  1.00  0.00    -0.250 F 
ENDBRANCH  21  23
ENDBRANCH  19  20
ENDBRANCH  17  19
ENDBRANCH  16  17
ENDBRANCH   6  16
TORSDOF 7
ENDMDL
