MODEL 1
REMARK VINA RESULT:      -7.3      0.000      0.000
REMARK  7 active torsions:
REMARK  status: ('A' for Active; 'I' for Inactive)
REMARK    1  A    between atoms: N1_1  and  C1_2 
REMARK    2  A    between atoms: C1_2  and  C2_4 
REMARK    3  A    between atoms: C2_4  and  C3_5 
REMARK    4  A    between atoms: C3_5  and  C4_6 
REMARK    5  A    between atoms: C4_6  and  C5_7 
REMARK    6  A    between atoms: C5_7  and  C6_8 
REMARK    7  A    between atoms: C6_8  and  C7_9 
ROOT
HETATM    1  C6  UNL     1      25.883  -0.150  53.004  1.00  0.00     0.106 C 
HETATM    2  C13 UNL     1      26.538   0.414  54.208  1.00  0.00     0.016 C 
HETATM    3  C14 UNL     1      27.774   0.337  54.739  1.00  0.00    -0.001 C 
HETATM    4  C15 UNL     1      28.843  -0.458  54.088  1.00  0.00    -0.002 C 
HETATM    5  C16 UNL     1      28.691  -1.484  53.231  1.00  0.00    -0.001 C 
HETATM    6  C17 UNL     1      27.349  -2.007  52.777  1.00  0.00     0.197 C 
HETATM    7  O1  UNL     1      26.488  -1.112  52.318  1.00  0.00    -0.368 OA
ENDROOT
BRANCH   1   8
HETATM    8  C5  UNL     1      24.465  -0.552  53.364  1.00  0.00     0.047 C 
BRANCH   8   9
HETATM    9  C4  UNL     1      24.217  -0.900  54.775  1.00  0.00     0.004 C 
BRANCH   9  10
HETATM   10  C3  UNL     1      22.763  -1.252  54.970  1.00  0.00     0.007 C 
BRANCH  10  11
HETATM   11  C2  UNL     1      22.049  -1.184  53.651  1.00  0.00     0.069 C 
BRANCH  11  12
HETATM   12  C1  UNL     1      20.702  -0.514  53.808  1.00  0.00     0.071 C 
HETATM   13  S1  UNL     1      19.286  -0.431  52.988  1.00  0.00    -0.066 SA
BRANCH  12  14
HETATM   14  N1  UNL     1      20.704   0.236  54.995  1.00  0.00    -0.394 N 
HETATM   15  H1  UNL     1      20.949   0.018  55.979  1.00  0.00     0.156 HD
HETATM   16  H2  UNL     1      20.427   1.238  55.077  1.00  0.00     0.156 HD
ENDBRANCH  12  14
ENDBRANCH  11  12
ENDBRANCH  10  11
ENDBRANCH   9  10
ENDBRANCH   8   9
ENDBRANCH   1   8
BRANCH   1  17
HETATM   17  C7  UNL     1      25.735   1.011  52.078  1.00  0.00    -0.020 A 
HETATM   18  C8  UNL     1      24.410   1.367  51.839  1.00  0.00     0.010 A 
HETATM   19  C9  UNL     1      24.106   2.436  50.989  1.00  0.00     0.001 A 
HETATM   20  C10 UNL     1      25.099   3.175  50.359  1.00  0.00     0.000 A 
HETATM   21  C11 UNL     1      26.405   2.810  50.606  1.00  0.00     0.001 A 
HETATM   22  C12 UNL     1      26.680   1.774  51.430  1.00  0.00     0.010 A 
ENDBRANCH   1  17
TORSDOF 7
ENDMDL
MODEL 2
REMARK VINA RESULT:      -7.2      3.491      6.029
REMARK  7 active torsions:
REMARK  status: ('A' for Active; 'I' for Inactive)
REMARK    1  A    between atoms: N1_1  and  C1_2 
REMARK    2  A    between atoms: C1_2  and  C2_4 
REMARK    3  A    between atoms: C2_4  and  C3_5 
REMARK    4  A    between atoms: C3_5  and  C4_6 
REMARK    5  A    between atoms: C4_6  and  C5_7 
REMARK    6  A    between atoms: C5_7  and  C6_8 
REMARK    7  A    between atoms: C6_8  and  C7_9 
ROOT
HETATM    1  C6  UNL     1      24.022   1.459  52.213  1.00  0.00     0.106 C 
HETATM    2  C13 UNL     1      24.261   2.697  52.991  1.00  0.00     0.016 C 
HETATM    3  C14 UNL     1      23.804   3.963  52.925  1.00  0.00    -0.001 C 
HETATM    4  C15 UNL     1      22.828   4.374  51.889  1.00  0.00    -0.002 C 
HETATM    5  C16 UNL     1      22.599   3.784  50.701  1.00  0.00    -0.001 C 
HETATM    6  C17 UNL     1      23.332   2.555  50.220  1.00  0.00     0.197 C 
HETATM    7  O1  UNL     1      23.378   1.527  51.053  1.00  0.00    -0.368 OA
ENDROOT
BRANCH   1   8
HETATM    8  C5  UNL     1      25.336   0.716  52.060  1.00  0.00     0.047 C 
BRANCH   8   9
HETATM    9  C4  UNL     1      26.515   1.328  52.697  1.00  0.00     0.004 C 
BRANCH   9  10
HETATM   10  C3  UNL     1      27.140   0.354  53.666  1.00  0.00     0.007 C 
BRANCH  10  11
HETATM   11  C2  UNL     1      27.185  -1.012  53.044  1.00  0.00     0.069 C 
BRANCH  11  12
HETATM   12  C1  UNL     1      28.539  -1.651  53.263  1.00  0.00     0.071 C 
HETATM   13  S1  UNL     1      30.056  -1.174  53.655  1.00  0.00    -0.066 SA
BRANCH  12  14
HETATM   14  N1  UNL     1      28.424  -3.037  53.067  1.00  0.00    -0.394 N 
HETATM   15  H1  UNL     1      27.980  -3.802  53.610  1.00  0.00     0.156 HD
HETATM   16  H2  UNL     1      28.809  -3.567  52.256  1.00  0.00     0.156 HD
ENDBRANCH  12  14
ENDBRANCH  11  12
ENDBRANCH  10  11
ENDBRANCH   9  10
ENDBRANCH   8   9
ENDBRANCH   1   8
BRANCH   1  17
HETATM   17  C7  UNL     1      23.194   0.603  53.114  1.00  0.00    -0.020 A 
HETATM   18  C8  UNL     1      21.848   0.958  53.136  1.00  0.00     0.010 A 
HETATM   19  C9  UNL     1      20.942   0.251  53.934  1.00  0.00     0.001 A 
HETATM   20  C10 UNL     1      21.343  -0.818  54.726  1.00  0.00     0.000 A 
HETATM   21  C11 UNL     1      22.679  -1.156  54.693  1.00  0.00     0.001 A 
HETATM   22  C12 UNL     1      23.540  -0.462  53.915  1.00  0.00     0.010 A 
ENDBRANCH   1  17
TORSDOF 7
ENDMDL
MODEL 3
REMARK VINA RESULT:      -7.0      2.386      4.506
REMARK  7 active torsions:
REMARK  status: ('A' for Active; 'I' for Inactive)
REMARK    1  A    between atoms: N1_1  and  C1_2 
REMARK    2  A    between atoms: C1_2  and  C2_4 
REMARK    3  A    between atoms: C2_4  and  C3_5 
REMARK    4  A    between atoms: C3_5  and  C4_6 
REMARK    5  A    between atoms: C4_6  and  C5_7 
REMARK    6  A    between atoms: C5_7  and  C6_8 
REMARK    7  A    between atoms: C6_8  and  C7_9 
ROOT
HETATM    1  C6  UNL     1      26.179   0.403  53.046  1.00  0.00     0.106 C 
HETATM    2  C13 UNL     1      26.988  -0.757  52.603  1.00  0.00     0.016 C 
HETATM    3  C14 UNL     1      28.184  -1.269  52.952  1.00  0.00    -0.001 C 
HETATM    4  C15 UNL     1      29.008  -0.642  54.013  1.00  0.00    -0.002 C 
HETATM    5  C16 UNL     1      28.957   0.632  54.442  1.00  0.00    -0.001 C 
HETATM    6  C17 UNL     1      28.008   1.667  53.886  1.00  0.00     0.197 C 
HETATM    7  O1  UNL     1      26.729   1.328  53.823  1.00  0.00    -0.368 OA
ENDROOT
BRANCH   1   8
HETATM    8  C5  UNL     1      25.525   1.036  51.832  1.00  0.00     0.047 C 
BRANCH   8   9
HETATM    9  C4  UNL     1      26.116   2.297  51.349  1.00  0.00     0.004 C 
BRANCH   9  10
HETATM   10  C3  UNL     1      25.030   3.317  51.114  1.00  0.00     0.007 C 
BRANCH  10  11
HETATM   11  C2  UNL     1      24.137   3.384  52.320  1.00  0.00     0.069 C 
BRANCH  11  12
HETATM   12  C1  UNL     1      23.338   4.669  52.319  1.00  0.00     0.071 C 
HETATM   13  S1  UNL     1      22.013   5.272  51.569  1.00  0.00    -0.066 SA
BRANCH  12  14
HETATM   14  N1  UNL     1      23.925   5.569  53.223  1.00  0.00    -0.394 N 
HETATM   15  H1  UNL     1      23.566   6.381  53.760  1.00  0.00     0.156 HD
HETATM   16  H2  UNL     1      24.923   5.558  53.524  1.00  0.00     0.156 HD
ENDBRANCH  12  14
ENDBRANCH  11  12
ENDBRANCH  10  11
ENDBRANCH   9  10
ENDBRANCH   8   9
ENDBRANCH   1   8
BRANCH   1  17
HETATM   17  C7  UNL     1      25.055  -0.198  53.824  1.00  0.00    -0.020 A 
HETATM   18  C8  UNL     1      23.820  -0.090  53.190  1.00  0.00     0.010 A 
HETATM   19  C9  UNL     1      22.667  -0.604  53.794  1.00  0.00     0.001 A 
HETATM   20  C10 UNL     1      22.707  -1.235  55.031  1.00  0.00     0.000 A 
HETATM   21  C11 UNL     1      23.938  -1.334  55.645  1.00  0.00     0.001 A 
HETATM   22  C12 UNL     1      25.041  -0.831  55.047  1.00  0.00     0.010 A 
ENDBRANCH   1  17
TORSDOF 7
ENDMDL
MODEL 4
REMARK VINA RESULT:      -7.0      3.388      6.217
REMARK  7 active torsions:
REMARK  status: ('A' for Active; 'I' for Inactive)
REMARK    1  A    between atoms: N1_1  and  C1_2 
REMARK    2  A    between atoms: C1_2  and  C2_4 
REMARK    3  A    between atoms: C2_4  and  C3_5 
REMARK    4  A    between atoms: C3_5  and  C4_6 
REMARK    5  A    between atoms: C4_6  and  C5_7 
REMARK    6  A    between atoms: C5_7  and  C6_8 
REMARK    7  A    between atoms: C6_8  and  C7_9 
ROOT
HETATM    1  C6  UNL     1      23.663   1.909  51.990  1.00  0.00     0.106 C 
HETATM    2  C13 UNL     1      23.872   3.165  52.748  1.00  0.00     0.016 C 
HETATM    3  C14 UNL     1      23.394   4.422  52.654  1.00  0.00    -0.001 C 
HETATM    4  C15 UNL     1      22.425   4.798  51.598  1.00  0.00    -0.002 C 
HETATM    5  C16 UNL     1      22.221   4.182  50.418  1.00  0.00    -0.001 C 
HETATM    6  C17 UNL     1      22.981   2.957  49.969  1.00  0.00     0.197 C 
HETATM    7  O1  UNL     1      23.034   1.945  50.822  1.00  0.00    -0.368 OA
ENDROOT
BRANCH   1   8
HETATM    8  C5  UNL     1      24.991   1.187  51.867  1.00  0.00     0.047 C 
BRANCH   8   9
HETATM    9  C4  UNL     1      26.172   2.022  51.584  1.00  0.00     0.004 C 
BRANCH   9  10
HETATM   10  C3  UNL     1      27.354   1.529  52.380  1.00  0.00     0.007 C 
BRANCH  10  11
HETATM   11  C2  UNL     1      27.176   0.070  52.690  1.00  0.00     0.069 C 
BRANCH  11  12
HETATM   12  C1  UNL     1      28.239  -0.402  53.658  1.00  0.00     0.071 C 
HETATM   13  S1  UNL     1      29.773  -0.972  53.591  1.00  0.00    -0.066 SA
BRANCH  12  14
HETATM   14  N1  UNL     1      27.734  -0.313  54.966  1.00  0.00    -0.394 N 
HETATM   15  H1  UNL     1      28.111   0.067  55.855  1.00  0.00     0.156 HD
HETATM   16  H2  UNL     1      26.798  -0.653  55.276  1.00  0.00     0.156 HD
ENDBRANCH  12  14
ENDBRANCH  11  12
ENDBRANCH  10  11
ENDBRANCH   9  10
ENDBRANCH   8   9
ENDBRANCH   1   8
BRANCH   1  17
HETATM   17  C7  UNL     1      22.838   1.056  52.896  1.00  0.00    -0.020 A 
HETATM   18  C8  UNL     1      23.560   0.035  53.508  1.00  0.00     0.010 A 
HETATM   19  C9  UNL     1      22.927  -0.853  54.385  1.00  0.00     0.001 A 
HETATM   20  C10 UNL     1      21.572  -0.752  54.677  1.00  0.00     0.000 A 
HETATM   21  C11 UNL     1      20.872   0.265  54.064  1.00  0.00     0.001 A 
HETATM   22  C12 UNL     1      21.501   1.113  53.219  1.00  0.00     0.010 A 
ENDBRANCH   1  17
TORSDOF 7
ENDMDL
MODEL 5
REMARK VINA RESULT:      -6.9      3.448      5.579
REMARK  7 active torsions:
REMARK  status: ('A' for Active; 'I' for Inactive)
REMARK    1  A    between atoms: N1_1  and  C1_2 
REMARK    2  A    between atoms: C1_2  and  C2_4 
REMARK    3  A    between atoms: C2_4  and  C3_5 
REMARK    4  A    between atoms: C3_5  and  C4_6 
REMARK    5  A    between atoms: C4_6  and  C5_7 
REMARK    6  A    between atoms: C5_7  and  C6_8 
REMARK    7  A    between atoms: C6_8  and  C7_9 
ROOT
HETATM    1  C6  UNL     1      25.969   0.612  53.035  1.00  0.00     0.106 C 
HETATM    2  C13 UNL     1      26.611  -0.541  52.360  1.00  0.00     0.016 C 
HETATM    3  C14 UNL     1      27.717  -1.277  52.584  1.00  0.00    -0.001 C 
HETATM    4  C15 UNL     1      28.607  -0.995  53.735  1.00  0.00    -0.002 C 
HETATM    5  C16 UNL     1      28.732   0.164  54.407  1.00  0.00    -0.001 C 
HETATM    6  C17 UNL     1      27.948   1.413  54.080  1.00  0.00     0.197 C 
HETATM    7  O1  UNL     1      26.636   1.278  53.971  1.00  0.00    -0.368 OA
ENDROOT
BRANCH   1   8
HETATM    8  C5  UNL     1      25.430   1.558  51.979  1.00  0.00     0.047 C 
BRANCH   8   9
HETATM    9  C4  UNL     1      26.424   2.204  51.103  1.00  0.00     0.004 C 
BRANCH   9  10
HETATM   10  C3  UNL     1      25.728   3.081  50.093  1.00  0.00     0.007 C 
BRANCH  10  11
HETATM   11  C2  UNL     1      26.751   3.862  49.319  1.00  0.00     0.069 C 
BRANCH  11  12
HETATM   12  C1  UNL     1      26.439   5.342  49.368  1.00  0.00     0.071 C 
HETATM   13  S1  UNL     1      25.155   6.300  49.710  1.00  0.00    -0.066 SA
BRANCH  12  14
HETATM   14  N1  UNL     1      27.593   6.061  49.016  1.00  0.00    -0.394 N 
HETATM   15  H1  UNL     1      28.357   5.899  48.333  1.00  0.00     0.156 HD
HETATM   16  H2  UNL     1      27.890   6.968  49.435  1.00  0.00     0.156 HD
ENDBRANCH  12  14
ENDBRANCH  11  12
ENDBRANCH  10  11
ENDBRANCH   9  10
ENDBRANCH   8   9
ENDBRANCH   1   8
BRANCH   1  17
HETATM   17  C7  UNL     1      24.761   0.036  53.695  1.00  0.00    -0.020 A 
HETATM   18  C8  UNL     1      23.563   0.444  53.116  1.00  0.00     0.010 A 
HETATM   19  C9  UNL     1      22.340  -0.008  53.624  1.00  0.00     0.001 A 
HETATM   20  C10 UNL     1      22.273  -0.872  54.711  1.00  0.00     0.000 A 
HETATM   21  C11 UNL     1      23.468  -1.266  55.272  1.00  0.00     0.001 A 
HETATM   22  C12 UNL     1      24.640  -0.819  54.768  1.00  0.00     0.010 A 
ENDBRANCH   1  17
TORSDOF 7
ENDMDL
MODEL 6
REMARK VINA RESULT:      -6.4      3.510      5.794
REMARK  7 active torsions:
REMARK  status: ('A' for Active; 'I' for Inactive)
REMARK    1  A    between atoms: N1_1  and  C1_2 
REMARK    2  A    between atoms: C1_2  and  C2_4 
REMARK    3  A    between atoms: C2_4  and  C3_5 
REMARK    4  A    between atoms: C3_5  and  C4_6 
REMARK    5  A    between atoms: C4_6  and  C5_7 
REMARK    6  A    between atoms: C5_7  and  C6_8 
REMARK    7  A    between atoms: C6_8  and  C7_9 
ROOT
HETATM    1  C6  UNL     1      24.565   2.979  50.982  1.00  0.00     0.106 C 
HETATM    2  C13 UNL     1      24.014   4.257  51.489  1.00  0.00     0.016 C 
HETATM    3  C14 UNL     1      24.104   5.547  51.109  1.00  0.00    -0.001 C 
HETATM    4  C15 UNL     1      24.904   5.945  49.927  1.00  0.00    -0.002 C 
HETATM    5  C16 UNL     1      25.924   5.271  49.365  1.00  0.00    -0.001 C 
HETATM    6  C17 UNL     1      26.433   3.943  49.873  1.00  0.00     0.197 C 
HETATM    7  O1  UNL     1      25.528   2.996  50.068  1.00  0.00    -0.368 OA
ENDROOT
BRANCH   1   8
HETATM    8  C5  UNL     1      24.957   2.113  52.164  1.00  0.00     0.047 C 
BRANCH   8   9
HETATM    9  C4  UNL     1      26.012   1.112  51.926  1.00  0.00     0.004 C 
BRANCH   9  10
HETATM   10  C3  UNL     1      25.692  -0.161  52.670  1.00  0.00     0.007 C 
BRANCH  10  11
HETATM   11  C2  UNL     1      26.932  -1.002  52.778  1.00  0.00     0.069 C 
BRANCH  11  12
HETATM   12  C1  UNL     1      27.918  -0.375  53.738  1.00  0.00     0.071 C 
HETATM   13  S1  UNL     1      29.449   0.206  53.696  1.00  0.00    -0.066 SA
BRANCH  12  14
HETATM   14  N1  UNL     1      27.322  -0.283  55.006  1.00  0.00    -0.394 N 
HETATM   15  H1  UNL     1      27.590   0.189  55.891  1.00  0.00     0.156 HD
HETATM   16  H2  UNL     1      26.419  -0.724  55.283  1.00  0.00     0.156 HD
ENDBRANCH  12  14
ENDBRANCH  11  12
ENDBRANCH  10  11
ENDBRANCH   9  10
ENDBRANCH   8   9
ENDBRANCH   1   8
BRANCH   1  17
HETATM   17  C7  UNL     1      23.397   2.285  50.362  1.00  0.00    -0.020 A 
HETATM   18  C8  UNL     1      23.193   2.624  49.027  1.00  0.00     0.010 A 
HETATM   19  C9  UNL     1      22.136   2.058  48.306  1.00  0.00     0.001 A 
HETATM   20  C10 UNL     1      21.259   1.149  48.885  1.00  0.00     0.000 A 
HETATM   21  C11 UNL     1      21.475   0.824  50.207  1.00  0.00     0.001 A 
HETATM   22  C12 UNL     1      22.502   1.380  50.888  1.00  0.00     0.010 A 
ENDBRANCH   1  17
TORSDOF 7
ENDMDL
MODEL 7
REMARK VINA RESULT:      -6.4      2.084      4.386
REMARK  7 active torsions:
REMARK  status: ('A' for Active; 'I' for Inactive)
REMARK    1  A    between atoms: N1_1  and  C1_2 
REMARK    2  A    between atoms: C1_2  and  C2_4 
REMARK    3  A    between atoms: C2_4  and  C3_5 
REMARK    4  A    between atoms: C3_5  and  C4_6 
REMARK    5  A    between atoms: C4_6  and  C5_7 
REMARK    6  A    between atoms: C5_7  and  C6_8 
REMARK    7  A    between atoms: C6_8  and  C7_9 
ROOT
HETATM    1  C6  UNL     1      25.361   0.923  53.264  1.00  0.00     0.106 C 
HETATM    2  C13 UNL     1      25.844   0.046  52.171  1.00  0.00     0.016 C 
HETATM    3  C14 UNL     1      26.873  -0.811  52.026  1.00  0.00    -0.001 C 
HETATM    4  C15 UNL     1      27.839  -1.045  53.125  1.00  0.00    -0.002 C 
HETATM    5  C16 UNL     1      28.119  -0.225  54.156  1.00  0.00    -0.001 C 
HETATM    6  C17 UNL     1      27.460   1.117  54.363  1.00  0.00     0.197 C 
HETATM    7  O1  UNL     1      26.137   1.143  54.319  1.00  0.00    -0.368 OA
ENDROOT
BRANCH   1   8
HETATM    8  C5  UNL     1      24.880   2.231  52.665  1.00  0.00     0.047 C 
BRANCH   8   9
HETATM    9  C4  UNL     1      25.454   2.608  51.361  1.00  0.00     0.004 C 
BRANCH   9  10
HETATM   10  C3  UNL     1      24.563   3.617  50.679  1.00  0.00     0.007 C 
BRANCH  10  11
HETATM   11  C2  UNL     1      23.763   2.934  49.608  1.00  0.00     0.069 C 
BRANCH  11  12
HETATM   12  C1  UNL     1      22.367   2.621  50.103  1.00  0.00     0.071 C 
HETATM   13  S1  UNL     1      21.191   3.368  50.964  1.00  0.00    -0.066 SA
BRANCH  12  14
HETATM   14  N1  UNL     1      22.019   1.324  49.692  1.00  0.00    -0.394 N 
HETATM   15  H1  UNL     1      21.568   0.520  50.168  1.00  0.00     0.156 HD
HETATM   16  H2  UNL     1      22.181   0.928  48.742  1.00  0.00     0.156 HD
ENDBRANCH  12  14
ENDBRANCH  11  12
ENDBRANCH  10  11
ENDBRANCH   9  10
ENDBRANCH   8   9
ENDBRANCH   1   8
BRANCH   1  17
HETATM   17  C7  UNL     1      24.129   0.249  53.770  1.00  0.00    -0.020 A 
HETATM   18  C8  UNL     1      22.951   0.785  53.257  1.00  0.00     0.010 A 
HETATM   19  C9  UNL     1      21.710   0.263  53.637  1.00  0.00     0.001 A 
HETATM   20  C10 UNL     1      21.604  -0.797  54.529  1.00  0.00     0.000 A 
HETATM   21  C11 UNL     1      22.779  -1.317  55.027  1.00  0.00     0.001 A 
HETATM   22  C12 UNL     1      23.969  -0.799  54.649  1.00  0.00     0.010 A 
ENDBRANCH   1  17
TORSDOF 7
ENDMDL
MODEL 8
REMARK VINA RESULT:      -6.4      3.357      5.590
REMARK  7 active torsions:
REMARK  status: ('A' for Active; 'I' for Inactive)
REMARK    1  A    between atoms: N1_1  and  C1_2 
REMARK    2  A    between atoms: C1_2  and  C2_4 
REMARK    3  A    between atoms: C2_4  and  C3_5 
REMARK    4  A    between atoms: C3_5  and  C4_6 
REMARK    5  A    between atoms: C4_6  and  C5_7 
REMARK    6  A    between atoms: C5_7  and  C6_8 
REMARK    7  A    between atoms: C6_8  and  C7_9 
ROOT
HETATM    1  C6  UNL     1      22.937   2.174  51.683  1.00  0.00     0.106 C 
HETATM    2  C13 UNL     1      22.387   1.130  50.787  1.00  0.00     0.016 C 
HETATM    3  C14 UNL     1      21.280   1.018  50.027  1.00  0.00    -0.001 C 
HETATM    4  C15 UNL     1      20.277   2.107  49.965  1.00  0.00    -0.002 C 
HETATM    5  C16 UNL     1      20.064   3.074  50.876  1.00  0.00    -0.001 C 
HETATM    6  C17 UNL     1      20.850   3.208  52.159  1.00  0.00     0.197 C 
HETATM    7  O1  UNL     1      22.170   3.194  52.050  1.00  0.00    -0.368 OA
ENDROOT
BRANCH   1   8
HETATM    8  C5  UNL     1      23.557   1.502  52.893  1.00  0.00     0.047 C 
BRANCH   8   9
HETATM    9  C4  UNL     1      23.199   0.090  53.117  1.00  0.00     0.004 C 
BRANCH   9  10
HETATM   10  C3  UNL     1      24.251  -0.579  53.968  1.00  0.00     0.007 C 
BRANCH  10  11
HETATM   11  C2  UNL     1      25.501  -0.771  53.158  1.00  0.00     0.069 C 
BRANCH  11  12
HETATM   12  C1  UNL     1      26.700  -0.210  53.890  1.00  0.00     0.071 C 
HETATM   13  S1  UNL     1      28.158   0.436  53.513  1.00  0.00    -0.066 SA
BRANCH  12  14
HETATM   14  N1  UNL     1      26.461  -0.278  55.273  1.00  0.00    -0.394 N 
HETATM   15  H1  UNL     1      26.953  -0.738  56.062  1.00  0.00     0.156 HD
HETATM   16  H2  UNL     1      25.665   0.175  55.771  1.00  0.00     0.156 HD
ENDBRANCH  12  14
ENDBRANCH  11  12
ENDBRANCH  10  11
ENDBRANCH   9  10
ENDBRANCH   8   9
ENDBRANCH   1   8
BRANCH   1  17
HETATM   17  C7  UNL     1      24.087   2.752  50.927  1.00  0.00    -0.020 A 
HETATM   18  C8  UNL     1      25.328   2.322  51.388  1.00  0.00     0.010 A 
HETATM   19  C9  UNL     1      26.505   2.776  50.783  1.00  0.00     0.001 A 
HETATM   20  C10 UNL     1      26.483   3.663  49.713  1.00  0.00     0.000 A 
HETATM   21  C11 UNL     1      25.246   4.079  49.269  1.00  0.00     0.001 A 
HETATM   22  C12 UNL     1      24.120   3.629  49.866  1.00  0.00     0.010 A 
ENDBRANCH   1  17
TORSDOF 7
ENDMDL
MODEL 9
REMARK VINA RESULT:      -6.3      3.506      6.097
REMARK  7 active torsions:
REMARK  status: ('A' for Active; 'I' for Inactive)
REMARK    1  A    between atoms: N1_1  and  C1_2 
REMARK    2  A    between atoms: C1_2  and  C2_4 
REMARK    3  A    between atoms: C2_4  and  C3_5 
REMARK    4  A    between atoms: C3_5  and  C4_6 
REMARK    5  A    between atoms: C4_6  and  C5_7 
REMARK    6  A    between atoms: C5_7  and  C6_8 
REMARK    7  A    between atoms: C6_8  and  C7_9 
ROOT
HETATM    1  C6  UNL     1      24.802   3.893  50.371  1.00  0.00     0.106 C 
HETATM    2  C13 UNL     1      24.016   3.200  49.323  1.00  0.00     0.016 C 
HETATM    3  C14 UNL     1      22.749   3.285  48.875  1.00  0.00    -0.001 C 
HETATM    4  C15 UNL     1      21.789   4.249  49.464  1.00  0.00    -0.002 C 
HETATM    5  C16 UNL     1      21.840   4.810  50.686  1.00  0.00    -0.001 C 
HETATM    6  C17 UNL     1      22.933   4.535  51.691  1.00  0.00     0.197 C 
HETATM    7  O1  UNL     1      24.179   4.657  51.261  1.00  0.00    -0.368 OA
ENDROOT
BRANCH   1   8
HETATM    8  C5  UNL     1      25.697   2.881  51.060  1.00  0.00     0.047 C 
BRANCH   8   9
HETATM    9  C4  UNL     1      25.049   1.648  51.541  1.00  0.00     0.004 C 
BRANCH   9  10
HETATM   10  C3  UNL     1      24.983   1.653  53.048  1.00  0.00     0.007 C 
BRANCH  10  11
HETATM   11  C2  UNL     1      24.875   0.242  53.550  1.00  0.00     0.069 C 
BRANCH  11  12
HETATM   12  C1  UNL     1      26.023  -0.081  54.481  1.00  0.00     0.071 C 
HETATM   13  S1  UNL     1      27.610   0.299  54.627  1.00  0.00    -0.066 SA
BRANCH  12  14
HETATM   14  N1  UNL     1      25.563  -0.949  55.485  1.00  0.00    -0.394 N 
HETATM   15  H1  UNL     1      25.531  -0.892  56.521  1.00  0.00     0.156 HD
HETATM   16  H2  UNL     1      25.137  -1.887  55.324  1.00  0.00     0.156 HD
ENDBRANCH  12  14
ENDBRANCH  11  12
ENDBRANCH  10  11
ENDBRANCH   9  10
ENDBRANCH   8   9
ENDBRANCH   1   8
BRANCH   1  17
HETATM   17  C7  UNL     1      25.732   4.784  49.616  1.00  0.00    -0.020 A 
HETATM   18  C8  UNL     1      26.938   4.175  49.282  1.00  0.00     0.010 A 
HETATM   19  C9  UNL     1      27.917   4.881  48.575  1.00  0.00     0.001 A 
HETATM   20  C10 UNL     1      27.727   6.201  48.182  1.00  0.00     0.000 A 
HETATM   21  C11 UNL     1      26.527   6.789  48.520  1.00  0.00     0.001 A 
HETATM   22  C12 UNL     1      25.593   6.091  49.204  1.00  0.00     0.010 A 
ENDBRANCH   1  17
TORSDOF 7
ENDMDL
