MODEL 1
REMARK VINA RESULT:      -7.8      0.000      0.000
REMARK  7 active torsions:
REMARK  status: ('A' for Active; 'I' for Inactive)
REMARK    1  A    between atoms: C3_3  and  N1_4 
REMARK    2  A    between atoms: C8_10  and  C9_11 
REMARK    3  A    between atoms: C9_11  and  C10_12 
REMARK    4  A    between atoms: C10_12  and  C11_14 
REMARK    5  A    between atoms: C11_14  and  C13_16 
REMARK    6  A    between atoms: C19_25  and  C20_26 
REMARK    7  A    between atoms: C20_26  and  N4_27 
ROOT
HETATM    1  C1  UNL     1      29.440  -1.649  53.435  1.00  0.00     0.072 C 
HETATM    2  C2  UNL     1      28.746  -0.333  53.417  1.00  0.00     0.056 C 
HETATM    3  C3  UNL     1      27.563  -0.032  52.850  1.00  0.00     0.064 C 
HETATM    4  C4  UNL     1      27.041   1.326  52.942  1.00  0.00     0.114 A 
HETATM    5  C5  UNL     1      27.839   2.170  53.905  1.00  0.00     0.048 C 
HETATM    6  C6  UNL     1      29.121   1.919  54.022  1.00  0.00     0.085 C 
HETATM    7  N2  UNL     1      29.454   0.704  54.094  1.00  0.00    -0.250 NA
HETATM    8  C7  UNL     1      25.615   1.411  53.350  1.00  0.00     0.024 A 
HETATM    9  C8  UNL     1      24.816   2.111  52.571  1.00  0.00    -0.026 A 
HETATM   10  C18 UNL     1      25.688   2.577  51.468  1.00  0.00     0.033 A 
HETATM   11  C19 UNL     1      25.622   3.292  50.358  1.00  0.00     0.032 C 
HETATM   12  N5  UNL     1      27.000   2.076  51.715  1.00  0.00    -0.368 N 
HETATM   13  H21 UNL     1      27.947   2.070  51.301  1.00  0.00     0.161 HD
ENDROOT
BRANCH   9  14
HETATM   14  C9  UNL     1      23.400   2.531  52.462  1.00  0.00     0.119 C 
BRANCH  14  15
HETATM   15  C10 UNL     1      22.523   1.477  51.916  1.00  0.00     0.139 C 
HETATM   16  O1  UNL     1      22.252   0.433  52.495  1.00  0.00    -0.297 OA
BRANCH  15  17
HETATM   17  C11 UNL     1      21.845   1.537  50.595  1.00  0.00     0.088 C 
HETATM   18  C12 UNL     1      20.647   0.580  50.597  1.00  0.00     0.023 C 
BRANCH  17  19
HETATM   19  C13 UNL     1      21.285   2.861  50.250  1.00  0.00    -0.001 A 
HETATM   20  C14 UNL     1      21.792   3.259  49.005  1.00  0.00     0.060 A 
HETATM   21 CL1  UNL     1      22.909   2.419  47.918  1.00  0.00    -0.082 Cl
HETATM   22  C15 UNL     1      21.433   4.486  48.446  1.00  0.00     0.140 A 
HETATM   23  N3  UNL     1      20.590   5.333  49.075  1.00  0.00    -0.270 NA
HETATM   24  C16 UNL     1      20.080   4.973  50.290  1.00  0.00     0.140 A 
HETATM   25  C17 UNL     1      20.437   3.766  50.836  1.00  0.00     0.060 A 
HETATM   26 CL2  UNL     1      19.867   3.274  52.405  1.00  0.00    -0.082 Cl
ENDBRANCH  17  19
ENDBRANCH  15  17
ENDBRANCH  14  15
ENDBRANCH   9  14
BRANCH  11  27
HETATM   27  C20 UNL     1      26.538   3.719  49.299  1.00  0.00     0.296 C 
BRANCH  27  28
HETATM   28  N4  UNL     1      26.854   5.128  49.425  1.00  0.00     0.081 N 
HETATM   29  H19 UNL     1      26.974   5.555  48.477  1.00  0.00     0.313 HD
HETATM   30  H20 UNL     1      26.127   5.589  50.015  1.00  0.00     0.313 HD
ENDBRANCH  27  28
ENDBRANCH  11  27
BRANCH   3  31
HETATM   31  N1  UNL     1      26.798  -1.013  52.157  1.00  0.00    -0.398 N 
HETATM   32  H4  UNL     1      26.823  -1.036  51.102  1.00  0.00     0.156 HD
HETATM   33  H5  UNL     1      26.326  -1.560  52.898  1.00  0.00     0.156 HD
ENDBRANCH   3  31
TORSDOF 7
ENDMDL
MODEL 2
REMARK VINA RESULT:      -7.7      3.188      7.584
REMARK  7 active torsions:
REMARK  status: ('A' for Active; 'I' for Inactive)
REMARK    1  A    between atoms: C3_3  and  N1_4 
REMARK    2  A    between atoms: C8_10  and  C9_11 
REMARK    3  A    between atoms: C9_11  and  C10_12 
REMARK    4  A    between atoms: C10_12  and  C11_14 
REMARK    5  A    between atoms: C11_14  and  C13_16 
REMARK    6  A    between atoms: C19_25  and  C20_26 
REMARK    7  A    between atoms: C20_26  and  N4_27 
ROOT
HETATM    1  C1  UNL     1      21.834   8.054  50.516  1.00  0.00     0.072 C 
HETATM    2  C2  UNL     1      22.598   6.950  49.876  1.00  0.00     0.056 C 
HETATM    3  C3  UNL     1      23.672   6.300  50.361  1.00  0.00     0.064 C 
HETATM    4  C4  UNL     1      24.287   5.233  49.580  1.00  0.00     0.114 A 
HETATM    5  C5  UNL     1      23.441   4.849  48.391  1.00  0.00     0.048 C 
HETATM    6  C6  UNL     1      22.722   5.787  47.823  1.00  0.00     0.085 C 
HETATM    7  N2  UNL     1      22.098   6.566  48.596  1.00  0.00    -0.250 NA
HETATM    8  C7  UNL     1      24.568   3.992  50.347  1.00  0.00     0.024 A 
HETATM    9  C8  UNL     1      25.800   3.527  50.292  1.00  0.00    -0.026 A 
HETATM   10  C18 UNL     1      26.524   4.498  49.440  1.00  0.00     0.033 A 
HETATM   11  C19 UNL     1      27.733   4.708  48.948  1.00  0.00     0.032 C 
HETATM   12  N5  UNL     1      25.596   5.507  49.050  1.00  0.00    -0.368 N 
HETATM   13  H21 UNL     1      25.547   6.385  48.505  1.00  0.00     0.161 HD
ENDROOT
BRANCH   9  14
HETATM   14  C9  UNL     1      26.628   2.412  50.804  1.00  0.00     0.119 C 
BRANCH  14  15
HETATM   15  C10 UNL     1      25.929   1.582  51.805  1.00  0.00     0.139 C 
HETATM   16  O1  UNL     1      24.846   1.042  51.621  1.00  0.00    -0.297 OA
BRANCH  15  17
HETATM   17  C11 UNL     1      26.442   1.283  53.166  1.00  0.00     0.088 C 
HETATM   18  C12 UNL     1      25.312   0.687  54.014  1.00  0.00     0.023 C 
BRANCH  17  19
HETATM   19  C13 UNL     1      27.529   0.282  53.209  1.00  0.00    -0.001 A 
HETATM   20  C14 UNL     1      28.728   0.924  53.546  1.00  0.00     0.060 A 
HETATM   21 CL1  UNL     1      29.034   2.633  53.899  1.00  0.00    -0.082 Cl
HETATM   22  C15 UNL     1      29.921   0.208  53.642  1.00  0.00     0.140 A 
HETATM   23  N3  UNL     1      29.971  -1.122  53.416  1.00  0.00    -0.270 NA
HETATM   24  C16 UNL     1      28.819  -1.777  53.084  1.00  0.00     0.140 A 
HETATM   25  C17 UNL     1      27.648  -1.068  52.990  1.00  0.00     0.060 A 
HETATM   26 CL2  UNL     1      26.158  -1.832  52.516  1.00  0.00    -0.082 Cl
ENDBRANCH  17  19
ENDBRANCH  15  17
ENDBRANCH  14  15
ENDBRANCH   9  14
BRANCH  11  27
HETATM   27  C20 UNL     1      28.390   5.704  48.100  1.00  0.00     0.296 C 
BRANCH  27  28
HETATM   28  N4  UNL     1      28.915   6.796  48.894  1.00  0.00     0.081 N 
HETATM   29  H19 UNL     1      28.783   7.704  48.389  1.00  0.00     0.313 HD
HETATM   30  H20 UNL     1      28.481   6.767  49.843  1.00  0.00     0.313 HD
ENDBRANCH  27  28
ENDBRANCH  11  27
BRANCH   3  31
HETATM   31  N1  UNL     1      24.229   6.626  51.630  1.00  0.00    -0.398 N 
HETATM   32  H4  UNL     1      23.643   6.499  52.499  1.00  0.00     0.156 HD
HETATM   33  H5  UNL     1      25.190   6.954  51.428  1.00  0.00     0.156 HD
ENDBRANCH   3  31
TORSDOF 7
ENDMDL
MODEL 3
REMARK VINA RESULT:      -7.6      2.941      6.857
REMARK  7 active torsions:
REMARK  status: ('A' for Active; 'I' for Inactive)
REMARK    1  A    between atoms: C3_3  and  N1_4 
REMARK    2  A    between atoms: C8_10  and  C9_11 
REMARK    3  A    between atoms: C9_11  and  C10_12 
REMARK    4  A    between atoms: C10_12  and  C11_14 
REMARK    5  A    between atoms: C11_14  and  C13_16 
REMARK    6  A    between atoms: C19_25  and  C20_26 
REMARK    7  A    between atoms: C20_26  and  N4_27 
ROOT
HETATM    1  C1  UNL     1      19.876   5.307  47.267  1.00  0.00     0.072 C 
HETATM    2  C2  UNL     1      20.840   4.368  47.902  1.00  0.00     0.056 C 
HETATM    3  C3  UNL     1      21.633   4.592  48.966  1.00  0.00     0.064 C 
HETATM    4  C4  UNL     1      22.517   3.537  49.446  1.00  0.00     0.114 A 
HETATM    5  C5  UNL     1      22.222   2.214  48.783  1.00  0.00     0.048 C 
HETATM    6  C6  UNL     1      21.786   2.233  47.547  1.00  0.00     0.085 C 
HETATM    7  N2  UNL     1      20.899   3.088  47.274  1.00  0.00    -0.250 NA
HETATM    8  C7  UNL     1      22.474   3.319  50.916  1.00  0.00     0.024 A 
HETATM    9  C8  UNL     1      23.626   3.346  51.553  1.00  0.00    -0.026 A 
HETATM   10  C18 UNL     1      24.626   3.632  50.498  1.00  0.00     0.033 A 
HETATM   11  C19 UNL     1      25.930   3.804  50.359  1.00  0.00     0.032 C 
HETATM   12  N5  UNL     1      23.927   3.756  49.262  1.00  0.00    -0.368 N 
HETATM   13  H21 UNL     1      24.095   3.954  48.261  1.00  0.00     0.161 HD
ENDROOT
BRANCH   9  14
HETATM   14  C9  UNL     1      24.186   3.205  52.917  1.00  0.00     0.119 C 
BRANCH  14  15
HETATM   15  C10 UNL     1      25.105   2.058  53.050  1.00  0.00     0.139 C 
HETATM   16  O1  UNL     1      26.226   2.123  53.537  1.00  0.00    -0.297 OA
BRANCH  15  17
HETATM   17  C11 UNL     1      24.798   0.670  52.621  1.00  0.00     0.088 C 
HETATM   18  C12 UNL     1      26.105  -0.059  52.288  1.00  0.00     0.023 C 
BRANCH  17  19
HETATM   19  C13 UNL     1      24.141  -0.162  53.652  1.00  0.00    -0.001 A 
HETATM   20  C14 UNL     1      22.823  -0.425  53.254  1.00  0.00     0.060 A 
HETATM   21 CL1  UNL     1      21.962   0.079  51.790  1.00  0.00    -0.082 Cl
HETATM   22  C15 UNL     1      21.971  -1.184  54.057  1.00  0.00     0.140 A 
HETATM   23  N3  UNL     1      22.375  -1.691  55.241  1.00  0.00    -0.270 NA
HETATM   24  C16 UNL     1      23.654  -1.452  55.657  1.00  0.00     0.140 A 
HETATM   25  C17 UNL     1      24.489  -0.704  54.864  1.00  0.00     0.060 A 
HETATM   26 CL2  UNL     1      26.110  -0.315  55.362  1.00  0.00    -0.082 Cl
ENDBRANCH  17  19
ENDBRANCH  15  17
ENDBRANCH  14  15
ENDBRANCH   9  14
BRANCH  11  27
HETATM   27  C20 UNL     1      26.865   4.088  49.270  1.00  0.00     0.296 C 
BRANCH  27  28
HETATM   28  N4  UNL     1      27.317   5.464  49.321  1.00  0.00     0.081 N 
HETATM   29  H19 UNL     1      28.036   5.634  48.578  1.00  0.00     0.313 HD
HETATM   30  H20 UNL     1      26.489   6.097  49.268  1.00  0.00     0.313 HD
ENDBRANCH  27  28
ENDBRANCH  11  27
BRANCH   3  31
HETATM   31  N1  UNL     1      21.630   5.844  49.645  1.00  0.00    -0.398 N 
HETATM   32  H4  UNL     1      20.736   6.190  50.087  1.00  0.00     0.156 HD
HETATM   33  H5  UNL     1      22.599   6.198  49.562  1.00  0.00     0.156 HD
ENDBRANCH   3  31
TORSDOF 7
ENDMDL
MODEL 4
REMARK VINA RESULT:      -7.4      3.130      6.923
REMARK  7 active torsions:
REMARK  status: ('A' for Active; 'I' for Inactive)
REMARK    1  A    between atoms: C3_3  and  N1_4 
REMARK    2  A    between atoms: C8_10  and  C9_11 
REMARK    3  A    between atoms: C9_11  and  C10_12 
REMARK    4  A    between atoms: C10_12  and  C11_14 
REMARK    5  A    between atoms: C11_14  and  C13_16 
REMARK    6  A    between atoms: C19_25  and  C20_26 
REMARK    7  A    between atoms: C20_26  and  N4_27 
ROOT
HETATM    1  C1  UNL     1      21.144   7.769  50.268  1.00  0.00     0.072 C 
HETATM    2  C2  UNL     1      21.994   6.650  49.779  1.00  0.00     0.056 C 
HETATM    3  C3  UNL     1      23.086   6.126  50.365  1.00  0.00     0.064 C 
HETATM    4  C4  UNL     1      23.790   5.019  49.728  1.00  0.00     0.114 A 
HETATM    5  C5  UNL     1      23.009   4.453  48.567  1.00  0.00     0.048 C 
HETATM    6  C6  UNL     1      22.257   5.275  47.877  1.00  0.00     0.085 C 
HETATM    7  N2  UNL     1      21.562   6.094  48.539  1.00  0.00    -0.250 NA
HETATM    8  C7  UNL     1      24.116   3.892  50.639  1.00  0.00     0.024 A 
HETATM    9  C8  UNL     1      25.374   3.501  50.672  1.00  0.00    -0.026 A 
HETATM   10  C18 UNL     1      26.070   4.414  49.735  1.00  0.00     0.033 A 
HETATM   11  C19 UNL     1      27.281   4.642  49.257  1.00  0.00     0.032 C 
HETATM   12  N5  UNL     1      25.098   5.313  49.208  1.00  0.00    -0.368 N 
HETATM   13  H21 UNL     1      25.016   6.119  48.565  1.00  0.00     0.161 HD
ENDROOT
BRANCH   9  14
HETATM   14  C9  UNL     1      26.248   2.503  51.331  1.00  0.00     0.119 C 
BRANCH  14  15
HETATM   15  C10 UNL     1      25.560   1.741  52.391  1.00  0.00     0.139 C 
HETATM   16  O1  UNL     1      25.182   2.218  53.452  1.00  0.00    -0.297 OA
BRANCH  15  17
HETATM   17  C11 UNL     1      25.228   0.295  52.316  1.00  0.00     0.088 C 
HETATM   18  C12 UNL     1      26.498  -0.500  51.991  1.00  0.00     0.023 C 
BRANCH  17  19
HETATM   19  C13 UNL     1      24.719  -0.286  53.577  1.00  0.00    -0.001 A 
HETATM   20  C14 UNL     1      23.345  -0.531  53.443  1.00  0.00     0.060 A 
HETATM   21 CL1  UNL     1      22.276  -0.253  52.058  1.00  0.00    -0.082 Cl
HETATM   22  C15 UNL     1      22.609  -1.069  54.499  1.00  0.00     0.140 A 
HETATM   23  N3  UNL     1      23.182  -1.373  55.683  1.00  0.00    -0.270 NA
HETATM   24  C16 UNL     1      24.519  -1.145  55.844  1.00  0.00     0.140 A 
HETATM   25  C17 UNL     1      25.239  -0.614  54.803  1.00  0.00     0.060 A 
HETATM   26 CL2  UNL     1      26.933  -0.247  54.963  1.00  0.00    -0.082 Cl
ENDBRANCH  17  19
ENDBRANCH  15  17
ENDBRANCH  14  15
ENDBRANCH   9  14
BRANCH  11  27
HETATM   27  C20 UNL     1      27.907   5.576  48.320  1.00  0.00     0.296 C 
BRANCH  27  28
HETATM   28  N4  UNL     1      28.360   6.771  49.003  1.00  0.00     0.081 N 
HETATM   29  H19 UNL     1      29.405   6.831  48.967  1.00  0.00     0.313 HD
HETATM   30  H20 UNL     1      27.868   7.600  48.603  1.00  0.00     0.313 HD
ENDBRANCH  27  28
ENDBRANCH  11  27
BRANCH   3  31
HETATM   31  N1  UNL     1      23.578   6.626  51.604  1.00  0.00    -0.398 N 
HETATM   32  H4  UNL     1      24.547   6.354  51.923  1.00  0.00     0.156 HD
HETATM   33  H5  UNL     1      22.814   7.214  51.981  1.00  0.00     0.156 HD
ENDBRANCH   3  31
TORSDOF 7
ENDMDL
MODEL 5
REMARK VINA RESULT:      -7.4      3.043      5.626
REMARK  7 active torsions:
REMARK  status: ('A' for Active; 'I' for Inactive)
REMARK    1  A    between atoms: C3_3  and  N1_4 
REMARK    2  A    between atoms: C8_10  and  C9_11 
REMARK    3  A    between atoms: C9_11  and  C10_12 
REMARK    4  A    between atoms: C10_12  and  C11_14 
REMARK    5  A    between atoms: C11_14  and  C13_16 
REMARK    6  A    between atoms: C19_25  and  C20_26 
REMARK    7  A    between atoms: C20_26  and  N4_27 
ROOT
HETATM    1  C1  UNL     1      25.122   7.958  50.180  1.00  0.00     0.072 C 
HETATM    2  C2  UNL     1      25.030   6.474  50.202  1.00  0.00     0.056 C 
HETATM    3  C3  UNL     1      24.496   5.694  51.160  1.00  0.00     0.064 C 
HETATM    4  C4  UNL     1      24.498   4.245  50.999  1.00  0.00     0.114 A 
HETATM    5  C5  UNL     1      24.913   3.836  49.607  1.00  0.00     0.048 C 
HETATM    6  C6  UNL     1      25.775   4.596  48.977  1.00  0.00     0.085 C 
HETATM    7  N2  UNL     1      25.588   5.842  49.051  1.00  0.00    -0.250 NA
HETATM    8  C7  UNL     1      23.194   3.592  51.285  1.00  0.00     0.024 A 
HETATM    9  C8  UNL     1      23.205   2.601  52.153  1.00  0.00    -0.026 A 
HETATM   10  C18 UNL     1      24.619   2.502  52.585  1.00  0.00     0.033 A 
HETATM   11  C19 UNL     1      25.383   1.790  53.395  1.00  0.00     0.032 C 
HETATM   12  N5  UNL     1      25.353   3.507  51.890  1.00  0.00    -0.368 N 
HETATM   13  H21 UNL     1      26.310   3.891  51.809  1.00  0.00     0.161 HD
ENDROOT
BRANCH   9  14
HETATM   14  C9  UNL     1      22.290   1.631  52.799  1.00  0.00     0.119 C 
BRANCH  14  15
HETATM   15  C10 UNL     1      20.874   1.848  52.447  1.00  0.00     0.139 C 
HETATM   16  O1  UNL     1      20.153   2.691  52.966  1.00  0.00    -0.297 OA
BRANCH  15  17
HETATM   17  C11 UNL     1      20.129   1.082  51.415  1.00  0.00     0.088 C 
HETATM   18  C12 UNL     1      21.096   0.139  50.688  1.00  0.00     0.023 C 
BRANCH  17  19
HETATM   19  C13 UNL     1      19.061   0.209  51.947  1.00  0.00    -0.001 A 
HETATM   20  C14 UNL     1      17.890   0.417  51.205  1.00  0.00     0.060 A 
HETATM   21 CL1  UNL     1      17.598   1.501  49.834  1.00  0.00    -0.082 Cl
HETATM   22  C15 UNL     1      16.718  -0.275  51.509  1.00  0.00     0.140 A 
HETATM   23  N3  UNL     1      16.662  -1.167  52.521  1.00  0.00    -0.270 NA
HETATM   24  C16 UNL     1      17.787  -1.392  53.263  1.00  0.00     0.140 A 
HETATM   25  C17 UNL     1      18.938  -0.707  52.961  1.00  0.00     0.060 A 
HETATM   26 CL2  UNL     1      20.388  -0.906  53.902  1.00  0.00    -0.082 Cl
ENDBRANCH  17  19
ENDBRANCH  15  17
ENDBRANCH  14  15
ENDBRANCH   9  14
BRANCH  11  27
HETATM   27  C20 UNL     1      26.794   1.746  53.778  1.00  0.00     0.296 C 
BRANCH  27  28
HETATM   28  N4  UNL     1      26.982   0.948  54.974  1.00  0.00     0.081 N 
HETATM   29  H19 UNL     1      27.919   1.149  55.396  1.00  0.00     0.313 HD
HETATM   30  H20 UNL     1      26.178   1.107  55.619  1.00  0.00     0.313 HD
ENDBRANCH  27  28
ENDBRANCH  11  27
BRANCH   3  31
HETATM   31  N1  UNL     1      23.920   6.250  52.337  1.00  0.00    -0.398 N 
HETATM   32  H4  UNL     1      24.492   6.288  53.223  1.00  0.00     0.156 HD
HETATM   33  H5  UNL     1      22.963   6.534  52.062  1.00  0.00     0.156 HD
ENDBRANCH   3  31
TORSDOF 7
ENDMDL
MODEL 6
REMARK VINA RESULT:      -7.2      3.173      5.734
REMARK  7 active torsions:
REMARK  status: ('A' for Active; 'I' for Inactive)
REMARK    1  A    between atoms: C3_3  and  N1_4 
REMARK    2  A    between atoms: C8_10  and  C9_11 
REMARK    3  A    between atoms: C9_11  and  C10_12 
REMARK    4  A    between atoms: C10_12  and  C11_14 
REMARK    5  A    between atoms: C11_14  and  C13_16 
REMARK    6  A    between atoms: C19_25  and  C20_26 
REMARK    7  A    between atoms: C20_26  and  N4_27 
ROOT
HETATM    1  C1  UNL     1      24.187   8.009  50.847  1.00  0.00     0.072 C 
HETATM    2  C2  UNL     1      24.468   6.584  50.523  1.00  0.00     0.056 C 
HETATM    3  C3  UNL     1      24.227   5.501  51.285  1.00  0.00     0.064 C 
HETATM    4  C4  UNL     1      24.574   4.175  50.789  1.00  0.00     0.114 A 
HETATM    5  C5  UNL     1      24.957   4.204  49.329  1.00  0.00     0.048 C 
HETATM    6  C6  UNL     1      25.547   5.283  48.873  1.00  0.00     0.085 C 
HETATM    7  N2  UNL     1      25.065   6.389  49.242  1.00  0.00    -0.250 NA
HETATM    8  C7  UNL     1      23.501   3.158  50.948  1.00  0.00     0.024 A 
HETATM    9  C8  UNL     1      23.832   2.039  51.559  1.00  0.00    -0.026 A 
HETATM   10  C18 UNL     1      25.257   2.220  51.918  1.00  0.00     0.033 A 
HETATM   11  C19 UNL     1      26.240   1.571  52.519  1.00  0.00     0.032 C 
HETATM   12  N5  UNL     1      25.658   3.508  51.459  1.00  0.00    -0.368 N 
HETATM   13  H21 UNL     1      26.480   4.136  51.446  1.00  0.00     0.161 HD
ENDROOT
BRANCH   9  14
HETATM   14  C9  UNL     1      23.244   0.747  51.982  1.00  0.00     0.119 C 
BRANCH  14  15
HETATM   15  C10 UNL     1      21.791   0.663  51.736  1.00  0.00     0.139 C 
HETATM   16  O1  UNL     1      21.288   0.296  50.683  1.00  0.00    -0.297 OA
BRANCH  15  17
HETATM   17  C11 UNL     1      20.741   1.005  52.730  1.00  0.00     0.088 C 
HETATM   18  C12 UNL     1      20.215   2.417  52.446  1.00  0.00     0.023 C 
BRANCH  17  19
HETATM   19  C13 UNL     1      19.549   0.132  52.692  1.00  0.00    -0.001 A 
HETATM   20  C14 UNL     1      19.737  -0.935  53.581  1.00  0.00     0.060 A 
HETATM   21 CL1  UNL     1      21.110  -1.296  54.641  1.00  0.00    -0.082 Cl
HETATM   22  C15 UNL     1      18.762  -1.922  53.731  1.00  0.00     0.140 A 
HETATM   23  N3  UNL     1      17.607  -1.891  53.032  1.00  0.00    -0.270 NA
HETATM   24  C16 UNL     1      17.395  -0.865  52.157  1.00  0.00     0.140 A 
HETATM   25  C17 UNL     1      18.358   0.103  52.012  1.00  0.00     0.060 A 
HETATM   26 CL2  UNL     1      18.174   1.406  50.872  1.00  0.00    -0.082 Cl
ENDBRANCH  17  19
ENDBRANCH  15  17
ENDBRANCH  14  15
ENDBRANCH   9  14
BRANCH  11  27
HETATM   27  C20 UNL     1      27.646   1.813  52.844  1.00  0.00     0.296 C 
BRANCH  27  28
HETATM   28  N4  UNL     1      27.769   2.643  54.026  1.00  0.00     0.081 N 
HETATM   29  H19 UNL     1      28.410   2.190  54.718  1.00  0.00     0.313 HD
HETATM   30  H20 UNL     1      28.058   3.604  53.739  1.00  0.00     0.313 HD
ENDBRANCH  27  28
ENDBRANCH  11  27
BRANCH   3  31
HETATM   31  N1  UNL     1      23.634   5.615  52.574  1.00  0.00    -0.398 N 
HETATM   32  H4  UNL     1      24.018   6.323  53.258  1.00  0.00     0.156 HD
HETATM   33  H5  UNL     1      22.872   4.915  52.585  1.00  0.00     0.156 HD
ENDBRANCH   3  31
TORSDOF 7
ENDMDL
MODEL 7
REMARK VINA RESULT:      -7.2      3.420      6.664
REMARK  7 active torsions:
REMARK  status: ('A' for Active; 'I' for Inactive)
REMARK    1  A    between atoms: C3_3  and  N1_4 
REMARK    2  A    between atoms: C8_10  and  C9_11 
REMARK    3  A    between atoms: C9_11  and  C10_12 
REMARK    4  A    between atoms: C10_12  and  C11_14 
REMARK    5  A    between atoms: C11_14  and  C13_16 
REMARK    6  A    between atoms: C19_25  and  C20_26 
REMARK    7  A    between atoms: C20_26  and  N4_27 
ROOT
HETATM    1  C1  UNL     1      26.567   8.264  48.875  1.00  0.00     0.072 C 
HETATM    2  C2  UNL     1      25.361   7.649  49.492  1.00  0.00     0.056 C 
HETATM    3  C3  UNL     1      25.226   6.399  49.971  1.00  0.00     0.064 C 
HETATM    4  C4  UNL     1      23.954   5.977  50.546  1.00  0.00     0.114 A 
HETATM    5  C5  UNL     1      23.010   7.140  50.733  1.00  0.00     0.048 C 
HETATM    6  C6  UNL     1      23.081   8.129  49.876  1.00  0.00     0.085 C 
HETATM    7  N2  UNL     1      24.238   8.525  49.564  1.00  0.00    -0.250 NA
HETATM    8  C7  UNL     1      24.070   5.281  51.854  1.00  0.00     0.024 A 
HETATM    9  C8  UNL     1      23.485   4.105  51.953  1.00  0.00    -0.026 A 
HETATM   10  C18 UNL     1      22.899   3.868  50.613  1.00  0.00     0.033 A 
HETATM   11  C19 UNL     1      22.196   2.957  49.963  1.00  0.00     0.032 C 
HETATM   12  N5  UNL     1      23.213   4.995  49.799  1.00  0.00    -0.368 N 
HETATM   13  H21 UNL     1      23.086   5.350  48.837  1.00  0.00     0.161 HD
ENDROOT
BRANCH   9  14
HETATM   14  C9  UNL     1      23.267   3.012  52.928  1.00  0.00     0.119 C 
BRANCH  14  15
HETATM   15  C10 UNL     1      24.390   2.058  52.991  1.00  0.00     0.139 C 
HETATM   16  O1  UNL     1      25.515   2.337  53.386  1.00  0.00    -0.297 OA
BRANCH  15  17
HETATM   17  C11 UNL     1      24.313   0.629  52.593  1.00  0.00     0.088 C 
HETATM   18  C12 UNL     1      25.731   0.085  52.381  1.00  0.00     0.023 C 
BRANCH  17  19
HETATM   19  C13 UNL     1      23.703  -0.261  53.604  1.00  0.00    -0.001 A 
HETATM   20  C14 UNL     1      22.397  -0.576  53.204  1.00  0.00     0.060 A 
HETATM   21 CL1  UNL     1      21.505  -0.076  51.758  1.00  0.00    -0.082 Cl
HETATM   22  C15 UNL     1      21.587  -1.396  53.990  1.00  0.00     0.140 A 
HETATM   23  N3  UNL     1      22.022  -1.914  55.159  1.00  0.00    -0.270 NA
HETATM   24  C16 UNL     1      23.290  -1.624  55.576  1.00  0.00     0.140 A 
HETATM   25  C17 UNL     1      24.083  -0.817  54.799  1.00  0.00     0.060 A 
HETATM   26 CL2  UNL     1      25.687  -0.363  55.301  1.00  0.00    -0.082 Cl
ENDBRANCH  17  19
ENDBRANCH  15  17
ENDBRANCH  14  15
ENDBRANCH   9  14
BRANCH  11  27
HETATM   27  C20 UNL     1      21.643   2.785  48.619  1.00  0.00     0.296 C 
BRANCH  27  28
HETATM   28  N4  UNL     1      21.862   1.435  48.137  1.00  0.00     0.081 N 
HETATM   29  H19 UNL     1      21.625   1.375  47.119  1.00  0.00     0.313 HD
HETATM   30  H20 UNL     1      22.837   1.145  48.369  1.00  0.00     0.313 HD
ENDBRANCH  27  28
ENDBRANCH  11  27
BRANCH   3  31
HETATM   31  N1  UNL     1      26.302   5.467  49.934  1.00  0.00    -0.398 N 
HETATM   32  H4  UNL     1      27.170   5.657  50.504  1.00  0.00     0.156 HD
HETATM   33  H5  UNL     1      25.987   4.716  49.295  1.00  0.00     0.156 HD
ENDBRANCH   3  31
TORSDOF 7
ENDMDL
MODEL 8
REMARK VINA RESULT:      -7.1      2.467      5.015
REMARK  7 active torsions:
REMARK  status: ('A' for Active; 'I' for Inactive)
REMARK    1  A    between atoms: C3_3  and  N1_4 
REMARK    2  A    between atoms: C8_10  and  C9_11 
REMARK    3  A    between atoms: C9_11  and  C10_12 
REMARK    4  A    between atoms: C10_12  and  C11_14 
REMARK    5  A    between atoms: C11_14  and  C13_16 
REMARK    6  A    between atoms: C19_25  and  C20_26 
REMARK    7  A    between atoms: C20_26  and  N4_27 
ROOT
HETATM    1  C1  UNL     1      25.012   7.837  50.347  1.00  0.00     0.072 C 
HETATM    2  C2  UNL     1      25.203   6.367  50.225  1.00  0.00     0.056 C 
HETATM    3  C3  UNL     1      24.638   5.397  50.967  1.00  0.00     0.064 C 
HETATM    4  C4  UNL     1      24.950   3.999  50.692  1.00  0.00     0.114 A 
HETATM    5  C5  UNL     1      25.718   3.840  49.402  1.00  0.00     0.048 C 
HETATM    6  C6  UNL     1      26.532   4.806  49.052  1.00  0.00     0.085 C 
HETATM    7  N2  UNL     1      26.100   5.984  49.184  1.00  0.00    -0.250 NA
HETATM    8  C7  UNL     1      23.764   3.107  50.617  1.00  0.00     0.024 A 
HETATM    9  C8  UNL     1      23.781   2.032  51.380  1.00  0.00    -0.026 A 
HETATM   10  C18 UNL     1      25.065   2.120  52.113  1.00  0.00     0.033 A 
HETATM   11  C19 UNL     1      25.763   1.451  53.015  1.00  0.00     0.032 C 
HETATM   12  N5  UNL     1      25.723   3.312  51.690  1.00  0.00    -0.368 N 
HETATM   13  H21 UNL     1      26.585   3.857  51.863  1.00  0.00     0.161 HD
ENDROOT
BRANCH   9  14
HETATM   14  C9  UNL     1      22.953   0.852  51.716  1.00  0.00     0.119 C 
BRANCH  14  15
HETATM   15  C10 UNL     1      21.577   0.941  51.192  1.00  0.00     0.139 C 
HETATM   16  O1  UNL     1      21.294   1.141  50.018  1.00  0.00    -0.297 OA
BRANCH  15  17
HETATM   17  C11 UNL     1      20.347   0.794  52.011  1.00  0.00     0.088 C 
HETATM   18  C12 UNL     1      20.698   0.985  53.492  1.00  0.00     0.023 C 
BRANCH  17  19
HETATM   19  C13 UNL     1      19.295   1.796  51.729  1.00  0.00    -0.001 A 
HETATM   20  C14 UNL     1      18.105   1.129  51.409  1.00  0.00     0.060 A 
HETATM   21 CL1  UNL     1      17.769  -0.609  51.328  1.00  0.00    -0.082 Cl
HETATM   22  C15 UNL     1      16.951   1.842  51.085  1.00  0.00     0.140 A 
HETATM   23  N3  UNL     1      16.932   3.192  51.066  1.00  0.00    -0.270 NA
HETATM   24  C16 UNL     1      18.077   3.870  51.372  1.00  0.00     0.140 A 
HETATM   25  C17 UNL     1      19.210   3.164  51.690  1.00  0.00     0.060 A 
HETATM   26 CL2  UNL     1      20.715   3.967  52.034  1.00  0.00    -0.082 Cl
ENDBRANCH  17  19
ENDBRANCH  15  17
ENDBRANCH  14  15
ENDBRANCH   9  14
BRANCH  11  27
HETATM   27  C20 UNL     1      27.045   1.598  53.706  1.00  0.00     0.296 C 
BRANCH  27  28
HETATM   28  N4  UNL     1      26.981   1.037  55.041  1.00  0.00     0.081 N 
HETATM   29  H19 UNL     1      26.370   0.186  55.044  1.00  0.00     0.313 HD
HETATM   30  H20 UNL     1      27.951   0.869  55.387  1.00  0.00     0.313 HD
ENDBRANCH  27  28
ENDBRANCH  11  27
BRANCH   3  31
HETATM   31  N1  UNL     1      23.732   5.699  52.023  1.00  0.00    -0.398 N 
HETATM   32  H4  UNL     1      23.416   6.697  52.162  1.00  0.00     0.156 HD
HETATM   33  H5  UNL     1      23.546   4.794  52.488  1.00  0.00     0.156 HD
ENDBRANCH   3  31
TORSDOF 7
ENDMDL
MODEL 9
REMARK VINA RESULT:      -7.1      6.951     11.023
REMARK  7 active torsions:
REMARK  status: ('A' for Active; 'I' for Inactive)
REMARK    1  A    between atoms: C3_3  and  N1_4 
REMARK    2  A    between atoms: C8_10  and  C9_11 
REMARK    3  A    between atoms: C9_11  and  C10_12 
REMARK    4  A    between atoms: C10_12  and  C11_14 
REMARK    5  A    between atoms: C11_14  and  C13_16 
REMARK    6  A    between atoms: C19_25  and  C20_26 
REMARK    7  A    between atoms: C20_26  and  N4_27 
ROOT
HETATM    1  C1  UNL     1      26.315  11.241  46.683  1.00  0.00     0.072 C 
HETATM    2  C2  UNL     1      26.962  10.226  47.556  1.00  0.00     0.056 C 
HETATM    3  C3  UNL     1      27.427   9.012  47.207  1.00  0.00     0.064 C 
HETATM    4  C4  UNL     1      28.037   8.152  48.214  1.00  0.00     0.114 A 
HETATM    5  C5  UNL     1      28.274   8.888  49.510  1.00  0.00     0.048 C 
HETATM    6  C6  UNL     1      27.430   9.836  49.839  1.00  0.00     0.085 C 
HETATM    7  N2  UNL     1      27.086  10.629  48.919  1.00  0.00    -0.250 NA
HETATM    8  C7  UNL     1      29.330   7.545  47.803  1.00  0.00     0.024 A 
HETATM    9  C8  UNL     1      29.431   6.236  47.912  1.00  0.00    -0.026 A 
HETATM   10  C18 UNL     1      28.108   5.804  48.420  1.00  0.00     0.033 A 
HETATM   11  C19 UNL     1      27.467   4.699  48.764  1.00  0.00     0.032 C 
HETATM   12  N5  UNL     1      27.301   6.969  48.570  1.00  0.00    -0.368 N 
HETATM   13  H21 UNL     1      26.349   7.254  48.855  1.00  0.00     0.161 HD
ENDROOT
BRANCH   9  14
HETATM   14  C9  UNL     1      30.396   5.138  47.679  1.00  0.00     0.119 C 
BRANCH  14  15
HETATM   15  C10 UNL     1      31.737   5.418  48.228  1.00  0.00     0.139 C 
HETATM   16  O1  UNL     1      32.142   5.009  49.309  1.00  0.00    -0.297 OA
BRANCH  15  17
HETATM   17  C11 UNL     1      32.780   6.225  47.547  1.00  0.00     0.088 C 
HETATM   18  C12 UNL     1      33.847   6.640  48.567  1.00  0.00     0.023 C 
BRANCH  17  19
HETATM   19  C13 UNL     1      33.517   5.509  46.484  1.00  0.00    -0.001 A 
HETATM   20  C14 UNL     1      33.138   6.028  45.238  1.00  0.00     0.060 A 
HETATM   21 CL1  UNL     1      31.992   7.323  44.853  1.00  0.00    -0.082 Cl
HETATM   22  C15 UNL     1      33.676   5.517  44.057  1.00  0.00     0.140 A 
HETATM   23  N3  UNL     1      34.578   4.512  44.063  1.00  0.00    -0.270 NA
HETATM   24  C16 UNL     1      34.967   3.985  45.262  1.00  0.00     0.140 A 
HETATM   25  C17 UNL     1      34.434   4.490  46.421  1.00  0.00     0.060 A 
HETATM   26 CL2  UNL     1      34.845   3.826  47.977  1.00  0.00    -0.082 Cl
ENDBRANCH  17  19
ENDBRANCH  15  17
ENDBRANCH  14  15
ENDBRANCH   9  14
BRANCH  11  27
HETATM   27  C20 UNL     1      26.141   4.339  49.265  1.00  0.00     0.296 C 
BRANCH  27  28
HETATM   28  N4  UNL     1      26.202   3.949  50.659  1.00  0.00     0.081 N 
HETATM   29  H19 UNL     1      25.590   4.574  51.235  1.00  0.00     0.313 HD
HETATM   30  H20 UNL     1      25.973   2.933  50.739  1.00  0.00     0.313 HD
ENDBRANCH  27  28
ENDBRANCH  11  27
BRANCH   3  31
HETATM   31  N1  UNL     1      27.339   8.539  45.867  1.00  0.00    -0.398 N 
HETATM   32  H4  UNL     1      27.563   9.197  45.071  1.00  0.00     0.156 HD
HETATM   33  H5  UNL     1      27.047   7.550  45.947  1.00  0.00     0.156 HD
ENDBRANCH   3  31
TORSDOF 7
ENDMDL
