MODEL 1
REMARK VINA RESULT:      -7.7      0.000      0.000
REMARK  7 active torsions:
REMARK  status: ('A' for Active; 'I' for Inactive)
REMARK    1  A    between atoms: C2_2  and  C3_3 
REMARK       I    between atoms: C3_3  and  N1_5 
REMARK    2  A    between atoms: N1_5  and  C4_6 
REMARK    3  A    between atoms: C9_11  and  N2_12 
REMARK    4  A    between atoms: N2_12  and  C11_14 
REMARK    5  A    between atoms: C11_14  and  C12_15 
REMARK    6  A    between atoms: C12_15  and  N3_16 
REMARK    7  A    between atoms: C17_23  and  C18_24 
ROOT
HETATM    1  C4  UNL     1      26.095   4.079  49.734  1.00  0.00     0.064 A 
HETATM    2  C5  UNL     1      27.249   4.199  48.989  1.00  0.00     0.065 A 
HETATM    3  C6  UNL     1      27.692   5.486  48.606  1.00  0.00     0.085 A 
HETATM    4  C7  UNL     1      26.997   6.632  48.950  1.00  0.00     0.100 A 
HETATM    5  C8  UNL     1      25.859   6.387  49.697  1.00  0.00     0.071 A 
HETATM    6  C9  UNL     1      25.376   5.160  50.105  1.00  0.00     0.059 A 
HETATM    7  O2  UNL     1      27.575   7.687  48.486  1.00  0.00    -0.330 OA
HETATM    8  C15 UNL     1      27.694   8.642  47.533  1.00  0.00     0.293 C 
HETATM    9  N4  UNL     1      28.841   9.448  47.968  1.00  0.00    -0.394 N 
HETATM   10  C16 UNL     1      29.859  10.230  47.386  1.00  0.00     0.154 C 
HETATM   11  C17 UNL     1      31.113   9.556  47.252  1.00  0.00     0.018 C 
HETATM   12  C20 UNL     1      30.994   8.207  47.922  1.00  0.00     0.061 A 
HETATM   13  C21 UNL     1      31.869   7.849  48.959  1.00  0.00     0.048 A 
HETATM   14  C22 UNL     1      31.818   6.669  49.665  1.00  0.00     0.138 A 
HETATM   15  N5  UNL     1      30.813   5.831  49.275  1.00  0.00    -0.075 NA
HETATM   16  C23 UNL     1      29.982   6.185  48.287  1.00  0.00     0.727 A 
HETATM   17  N6  UNL     1      30.026   7.326  47.585  1.00  0.00    -0.067 NA
HETATM   18  N7  UNL     1      28.928   5.310  47.964  1.00  0.00    -0.185 N 
HETATM   19  H22 UNL     1      29.218   9.741  48.858  1.00  0.00     0.155 HD
HETATM   20  H29 UNL     1      29.336   4.678  47.272  1.00  0.00     0.184 HD
ENDROOT
BRANCH   6  21
HETATM   21  N2  UNL     1      24.223   5.350  50.917  1.00  0.00    -0.382 N 
HETATM   22  C10 UNL     1      23.337   6.358  50.319  1.00  0.00     0.150 C 
BRANCH  21  23
HETATM   23  C11 UNL     1      23.585   4.868  52.098  1.00  0.00     0.152 C 
BRANCH  23  24
HETATM   24  C12 UNL     1      22.092   4.766  52.079  1.00  0.00     0.291 C 
BRANCH  24  25
HETATM   25  N3  UNL     1      21.605   3.451  51.656  1.00  0.00     0.081 N 
HETATM   26  C13 UNL     1      20.285   3.145  52.239  1.00  0.00     0.309 C 
HETATM   27  C14 UNL     1      22.518   2.485  52.299  1.00  0.00     0.309 C 
ENDBRANCH  24  25
ENDBRANCH  23  24
ENDBRANCH  21  23
ENDBRANCH   6  21
BRANCH   1  28
HETATM   28  N1  UNL     1      25.500   2.846  50.173  1.00  0.00    -0.322 N 
HETATM   29  C3  UNL     1      26.328   2.235  51.199  1.00  0.00     0.244 C 
HETATM   30  O1  UNL     1      27.419   2.822  51.548  1.00  0.00    -0.268 OA
HETATM   31  H4  UNL     1      24.605   2.431  49.822  1.00  0.00     0.169 HD
BRANCH  29  32
HETATM   32  C2  UNL     1      25.869   0.956  51.804  1.00  0.00     0.064 C 
HETATM   33  C1  UNL     1      26.458  -0.154  52.201  1.00  0.00     0.017 C 
ENDBRANCH  29  32
ENDBRANCH   1  28
BRANCH  11  34
HETATM   34  C18 UNL     1      32.582   9.507  46.829  1.00  0.00    -0.016 C 
HETATM   35  C19 UNL     1      33.447  10.603  46.900  1.00  0.00     0.030 C 
ENDBRANCH  11  34
TORSDOF 7
ENDMDL
MODEL 2
REMARK VINA RESULT:      -7.3      6.049      8.559
REMARK  7 active torsions:
REMARK  status: ('A' for Active; 'I' for Inactive)
REMARK    1  A    between atoms: C2_2  and  C3_3 
REMARK       I    between atoms: C3_3  and  N1_5 
REMARK    2  A    between atoms: N1_5  and  C4_6 
REMARK    3  A    between atoms: C9_11  and  N2_12 
REMARK    4  A    between atoms: N2_12  and  C11_14 
REMARK    5  A    between atoms: C11_14  and  C12_15 
REMARK    6  A    between atoms: C12_15  and  N3_16 
REMARK    7  A    between atoms: C17_23  and  C18_24 
ROOT
HETATM    1  C4  UNL     1      20.657   0.663  51.826  1.00  0.00     0.064 A 
HETATM    2  C5  UNL     1      21.750  -0.157  52.011  1.00  0.00     0.065 A 
HETATM    3  C6  UNL     1      23.033   0.423  52.146  1.00  0.00     0.085 A 
HETATM    4  C7  UNL     1      23.227   1.792  52.089  1.00  0.00     0.100 A 
HETATM    5  C8  UNL     1      22.060   2.510  51.902  1.00  0.00     0.071 A 
HETATM    6  C9  UNL     1      20.782   2.006  51.768  1.00  0.00     0.059 A 
HETATM    7  O2  UNL     1      24.474   2.094  52.222  1.00  0.00    -0.330 OA
HETATM    8  C15 UNL     1      25.675   2.400  51.679  1.00  0.00     0.293 C 
HETATM    9  N4  UNL     1      26.575   2.522  52.833  1.00  0.00    -0.394 N 
HETATM   10  C16 UNL     1      27.940   2.331  53.127  1.00  0.00     0.154 C 
HETATM   11  C17 UNL     1      28.237   1.081  53.754  1.00  0.00     0.018 C 
HETATM   12  C20 UNL     1      26.930   0.377  54.038  1.00  0.00     0.061 A 
HETATM   13  C21 UNL     1      26.599  -0.005  55.347  1.00  0.00     0.048 A 
HETATM   14  C22 UNL     1      25.420  -0.607  55.721  1.00  0.00     0.138 A 
HETATM   15  N5  UNL     1      24.550  -0.815  54.689  1.00  0.00    -0.075 NA
HETATM   16  C23 UNL     1      24.876  -0.443  53.445  1.00  0.00     0.727 A 
HETATM   17  N6  UNL     1      26.024   0.135  53.066  1.00  0.00    -0.067 NA
HETATM   18  N7  UNL     1      23.920  -0.627  52.428  1.00  0.00    -0.185 N 
HETATM   19  H22 UNL     1      26.484   2.851  53.783  1.00  0.00     0.155 HD
HETATM   20  H29 UNL     1      24.097  -1.577  52.093  1.00  0.00     0.184 HD
ENDROOT
BRANCH   6  21
HETATM   21  N2  UNL     1      19.856   3.083  51.669  1.00  0.00    -0.382 N 
HETATM   22  C10 UNL     1      20.565   4.348  51.440  1.00  0.00     0.150 C 
BRANCH  21  23
HETATM   23  C11 UNL     1      18.459   3.369  51.664  1.00  0.00     0.152 C 
BRANCH  23  24
HETATM   24  C12 UNL     1      17.828   3.684  50.343  1.00  0.00     0.291 C 
BRANCH  24  25
HETATM   25  N3  UNL     1      18.051   2.648  49.331  1.00  0.00     0.081 N 
HETATM   26  C13 UNL     1      17.997   3.200  47.964  1.00  0.00     0.309 C 
HETATM   27  C14 UNL     1      16.863   1.774  49.416  1.00  0.00     0.309 C 
ENDBRANCH  24  25
ENDBRANCH  23  24
ENDBRANCH  21  23
ENDBRANCH   6  21
BRANCH   1  28
HETATM   28  N1  UNL     1      19.298   0.228  51.644  1.00  0.00    -0.322 N 
HETATM   29  C3  UNL     1      18.835  -0.458  52.837  1.00  0.00     0.244 C 
HETATM   30  O1  UNL     1      19.643  -0.596  53.829  1.00  0.00    -0.268 OA
HETATM   31  H4  UNL     1      18.712   0.375  50.789  1.00  0.00     0.169 HD
BRANCH  29  32
HETATM   32  C2  UNL     1      17.436  -0.966  52.857  1.00  0.00     0.064 C 
HETATM   33  C1  UNL     1      16.295  -0.582  52.325  1.00  0.00     0.017 C 
ENDBRANCH  29  32
ENDBRANCH   1  28
BRANCH  11  34
HETATM   34  C18 UNL     1      29.212   0.074  54.367  1.00  0.00    -0.016 C 
HETATM   35  C19 UNL     1      29.944  -0.852  53.618  1.00  0.00     0.030 C 
ENDBRANCH  11  34
TORSDOF 7
ENDMDL
MODEL 3
REMARK VINA RESULT:      -7.3      4.605      7.147
REMARK  7 active torsions:
REMARK  status: ('A' for Active; 'I' for Inactive)
REMARK    1  A    between atoms: C2_2  and  C3_3 
REMARK       I    between atoms: C3_3  and  N1_5 
REMARK    2  A    between atoms: N1_5  and  C4_6 
REMARK    3  A    between atoms: C9_11  and  N2_12 
REMARK    4  A    between atoms: N2_12  and  C11_14 
REMARK    5  A    between atoms: C11_14  and  C12_15 
REMARK    6  A    between atoms: C12_15  and  N3_16 
REMARK    7  A    between atoms: C17_23  and  C18_24 
ROOT
HETATM    1  C4  UNL     1      23.882   3.338  52.314  1.00  0.00     0.064 A 
HETATM    2  C5  UNL     1      22.974   4.375  52.371  1.00  0.00     0.065 A 
HETATM    3  C6  UNL     1      23.158   5.499  51.533  1.00  0.00     0.085 A 
HETATM    4  C7  UNL     1      24.227   5.595  50.660  1.00  0.00     0.100 A 
HETATM    5  C8  UNL     1      25.067   4.497  50.690  1.00  0.00     0.071 A 
HETATM    6  C9  UNL     1      24.942   3.371  51.479  1.00  0.00     0.059 A 
HETATM    7  O2  UNL     1      24.200   6.707  50.008  1.00  0.00    -0.330 OA
HETATM    8  C15 UNL     1      24.598   7.992  49.855  1.00  0.00     0.293 C 
HETATM    9  N4  UNL     1      23.855   8.465  48.680  1.00  0.00    -0.394 N 
HETATM   10  C16 UNL     1      23.330   9.675  48.184  1.00  0.00     0.154 C 
HETATM   11  C17 UNL     1      21.933   9.852  48.426  1.00  0.00     0.018 C 
HETATM   12  C20 UNL     1      21.400   8.581  49.046  1.00  0.00     0.061 A 
HETATM   13  C21 UNL     1      20.348   7.880  48.437  1.00  0.00     0.048 A 
HETATM   14  C22 UNL     1      19.820   6.693  48.891  1.00  0.00     0.138 A 
HETATM   15  N5  UNL     1      20.417   6.217  50.023  1.00  0.00    -0.075 NA
HETATM   16  C23 UNL     1      21.422   6.892  50.594  1.00  0.00     0.727 A 
HETATM   17  N6  UNL     1      21.939   8.053  50.167  1.00  0.00    -0.067 NA
HETATM   18  N7  UNL     1      22.041   6.328  51.725  1.00  0.00    -0.185 N 
HETATM   19  H22 UNL     1      23.541   8.051  47.814  1.00  0.00     0.155 HD
HETATM   20  H29 UNL     1      21.484   6.675  52.509  1.00  0.00     0.184 HD
ENDROOT
BRANCH   6  21
HETATM   21  N2  UNL     1      25.972   2.445  51.150  1.00  0.00    -0.382 N 
HETATM   22  C10 UNL     1      26.568   2.783  49.851  1.00  0.00     0.150 C 
BRANCH  21  23
HETATM   23  C11 UNL     1      26.677   1.317  51.662  1.00  0.00     0.152 C 
BRANCH  23  24
HETATM   24  C12 UNL     1      27.400   1.490  52.961  1.00  0.00     0.291 C 
BRANCH  24  25
HETATM   25  N3  UNL     1      27.487   0.257  53.747  1.00  0.00     0.081 N 
HETATM   26  C13 UNL     1      26.436   0.192  54.779  1.00  0.00     0.309 C 
HETATM   27  C14 UNL     1      28.742   0.386  54.516  1.00  0.00     0.309 C 
ENDBRANCH  24  25
ENDBRANCH  23  24
ENDBRANCH  21  23
ENDBRANCH   6  21
BRANCH   1  28
HETATM   28  N1  UNL     1      23.852   2.146  53.118  1.00  0.00    -0.322 N 
HETATM   29  C3  UNL     1      23.040   1.132  52.468  1.00  0.00     0.244 C 
HETATM   30  O1  UNL     1      22.476   1.411  51.345  1.00  0.00    -0.268 OA
HETATM   31  H4  UNL     1      24.336   2.007  54.036  1.00  0.00     0.169 HD
BRANCH  29  32
HETATM   32  C2  UNL     1      22.903  -0.192  53.134  1.00  0.00     0.064 C 
HETATM   33  C1  UNL     1      22.112  -0.695  54.059  1.00  0.00     0.017 C 
ENDBRANCH  29  32
ENDBRANCH   1  28
BRANCH  11  34
HETATM   34  C18 UNL     1      20.635  10.655  48.326  1.00  0.00    -0.016 C 
HETATM   35  C19 UNL     1      20.214  11.574  49.292  1.00  0.00     0.030 C 
ENDBRANCH  11  34
TORSDOF 7
ENDMDL
MODEL 4
REMARK VINA RESULT:      -7.2      4.082      6.917
REMARK  7 active torsions:
REMARK  status: ('A' for Active; 'I' for Inactive)
REMARK    1  A    between atoms: C2_2  and  C3_3 
REMARK       I    between atoms: C3_3  and  N1_5 
REMARK    2  A    between atoms: N1_5  and  C4_6 
REMARK    3  A    between atoms: C9_11  and  N2_12 
REMARK    4  A    between atoms: N2_12  and  C11_14 
REMARK    5  A    between atoms: C11_14  and  C12_15 
REMARK    6  A    between atoms: C12_15  and  N3_16 
REMARK    7  A    between atoms: C17_23  and  C18_24 
ROOT
HETATM    1  C4  UNL     1      23.426   2.051  52.636  1.00  0.00     0.064 A 
HETATM    2  C5  UNL     1      22.651   3.031  52.049  1.00  0.00     0.065 A 
HETATM    3  C6  UNL     1      23.269   3.988  51.211  1.00  0.00     0.085 A 
HETATM    4  C7  UNL     1      24.631   3.978  50.968  1.00  0.00     0.100 A 
HETATM    5  C8  UNL     1      25.301   2.952  51.608  1.00  0.00     0.071 A 
HETATM    6  C9  UNL     1      24.759   1.987  52.432  1.00  0.00     0.059 A 
HETATM    7  O2  UNL     1      24.975   4.947  50.189  1.00  0.00    -0.330 OA
HETATM    8  C15 UNL     1      25.453   6.200  50.009  1.00  0.00     0.293 C 
HETATM    9  N4  UNL     1      25.398   6.406  48.557  1.00  0.00    -0.394 N 
HETATM   10  C16 UNL     1      25.235   7.473  47.651  1.00  0.00     0.154 C 
HETATM   11  C17 UNL     1      23.905   7.616  47.145  1.00  0.00     0.018 C 
HETATM   12  C20 UNL     1      23.083   6.456  47.654  1.00  0.00     0.061 A 
HETATM   13  C21 UNL     1      22.430   5.598  46.755  1.00  0.00     0.048 A 
HETATM   14  C22 UNL     1      21.697   4.489  47.110  1.00  0.00     0.138 A 
HETATM   15  N5  UNL     1      21.645   4.264  48.455  1.00  0.00    -0.075 NA
HETATM   16  C23 UNL     1      22.274   5.087  49.304  1.00  0.00     0.727 A 
HETATM   17  N6  UNL     1      22.984   6.175  48.972  1.00  0.00    -0.067 NA
HETATM   18  N7  UNL     1      22.238   4.776  50.676  1.00  0.00    -0.185 N 
HETATM   19  H22 UNL     1      25.527   5.822  47.743  1.00  0.00     0.155 HD
HETATM   20  H29 UNL     1      21.386   5.233  51.009  1.00  0.00     0.184 HD
ENDROOT
BRANCH   6  21
HETATM   21  N2  UNL     1      25.776   1.072  52.826  1.00  0.00    -0.382 N 
HETATM   22  C10 UNL     1      26.465   0.535  51.646  1.00  0.00     0.150 C 
BRANCH  21  23
HETATM   23  C11 UNL     1      26.409   0.520  53.978  1.00  0.00     0.152 C 
BRANCH  23  24
HETATM   24  C12 UNL     1      27.514  -0.464  53.749  1.00  0.00     0.291 C 
BRANCH  24  25
HETATM   25  N3  UNL     1      28.749  -0.127  54.461  1.00  0.00     0.081 N 
HETATM   26  C13 UNL     1      29.130   1.283  54.255  1.00  0.00     0.309 C 
HETATM   27  C14 UNL     1      29.806  -0.892  53.768  1.00  0.00     0.309 C 
ENDBRANCH  24  25
ENDBRANCH  23  24
ENDBRANCH  21  23
ENDBRANCH   6  21
BRANCH   1  28
HETATM   28  N1  UNL     1      22.955   1.030  53.532  1.00  0.00    -0.322 N 
HETATM   29  C3  UNL     1      22.187   0.042  52.795  1.00  0.00     0.244 C 
HETATM   30  O1  UNL     1      22.020   0.201  51.529  1.00  0.00    -0.268 OA
HETATM   31  H4  UNL     1      23.130   0.984  54.564  1.00  0.00     0.169 HD
BRANCH  29  32
HETATM   32  C2  UNL     1      21.630  -1.118  53.544  1.00  0.00     0.064 C 
HETATM   33  C1  UNL     1      21.854  -1.663  54.721  1.00  0.00     0.017 C 
ENDBRANCH  29  32
ENDBRANCH   1  28
BRANCH  11  34
HETATM   34  C18 UNL     1      22.857   8.316  46.278  1.00  0.00    -0.016 C 
HETATM   35  C19 UNL     1      23.135   8.878  45.028  1.00  0.00     0.030 C 
ENDBRANCH  11  34
TORSDOF 7
ENDMDL
MODEL 5
REMARK VINA RESULT:      -7.2      6.957     10.436
REMARK  7 active torsions:
REMARK  status: ('A' for Active; 'I' for Inactive)
REMARK    1  A    between atoms: C2_2  and  C3_3 
REMARK       I    between atoms: C3_3  and  N1_5 
REMARK    2  A    between atoms: N1_5  and  C4_6 
REMARK    3  A    between atoms: C9_11  and  N2_12 
REMARK    4  A    between atoms: N2_12  and  C11_14 
REMARK    5  A    between atoms: C11_14  and  C12_15 
REMARK    6  A    between atoms: C12_15  and  N3_16 
REMARK    7  A    between atoms: C17_23  and  C18_24 
ROOT
HETATM    1  C4  UNL     1      17.251   1.259  51.176  1.00  0.00     0.064 A 
HETATM    2  C5  UNL     1      18.392   0.492  51.059  1.00  0.00     0.065 A 
HETATM    3  C6  UNL     1      19.651   1.087  51.307  1.00  0.00     0.085 A 
HETATM    4  C7  UNL     1      19.776   2.420  51.656  1.00  0.00     0.100 A 
HETATM    5  C8  UNL     1      18.566   3.085  51.743  1.00  0.00     0.071 A 
HETATM    6  C9  UNL     1      17.308   2.564  51.519  1.00  0.00     0.059 A 
HETATM    7  O2  UNL     1      21.012   2.747  51.820  1.00  0.00    -0.330 OA
HETATM    8  C15 UNL     1      22.163   3.277  51.343  1.00  0.00     0.293 C 
HETATM    9  N4  UNL     1      23.123   3.107  52.439  1.00  0.00    -0.394 N 
HETATM   10  C16 UNL     1      24.511   2.926  52.604  1.00  0.00     0.154 C 
HETATM   11  C17 UNL     1      24.904   1.567  52.813  1.00  0.00     0.018 C 
HETATM   12  C20 UNL     1      23.653   0.729  52.928  1.00  0.00     0.061 A 
HETATM   13  C21 UNL     1      23.420  -0.046  54.075  1.00  0.00     0.048 A 
HETATM   14  C22 UNL     1      22.295  -0.806  54.301  1.00  0.00     0.138 A 
HETATM   15  N5  UNL     1      21.376  -0.753  53.293  1.00  0.00    -0.075 NA
HETATM   16  C23 UNL     1      21.608  -0.008  52.205  1.00  0.00     0.727 A 
HETATM   17  N6  UNL     1      22.702   0.730  51.968  1.00  0.00    -0.067 NA
HETATM   18  N7  UNL     1      20.603   0.059  51.222  1.00  0.00    -0.185 N 
HETATM   19  H22 UNL     1      23.074   3.133  53.448  1.00  0.00     0.155 HD
HETATM   20  H29 UNL     1      20.805  -0.735  50.610  1.00  0.00     0.184 HD
ENDROOT
BRANCH   6  21
HETATM   21  N2  UNL     1      16.327   3.559  51.788  1.00  0.00    -0.382 N 
HETATM   22  C10 UNL     1      15.932   4.236  50.546  1.00  0.00     0.150 C 
BRANCH  21  23
HETATM   23  C11 UNL     1      15.540   4.109  52.843  1.00  0.00     0.152 C 
BRANCH  23  24
HETATM   24  C12 UNL     1      14.235   3.442  53.146  1.00  0.00     0.291 C 
BRANCH  24  25
HETATM   25  N3  UNL     1      13.197   4.374  53.595  1.00  0.00     0.081 N 
HETATM   26  C13 UNL     1      12.162   3.693  54.396  1.00  0.00     0.309 C 
HETATM   27  C14 UNL     1      12.493   4.778  52.362  1.00  0.00     0.309 C 
ENDBRANCH  24  25
ENDBRANCH  23  24
ENDBRANCH  21  23
ENDBRANCH   6  21
BRANCH   1  28
HETATM   28  N1  UNL     1      15.907   0.812  50.930  1.00  0.00    -0.322 N 
HETATM   29  C3  UNL     1      15.433   0.027  52.057  1.00  0.00     0.244 C 
HETATM   30  O1  UNL     1      16.223  -0.171  53.054  1.00  0.00    -0.268 OA
HETATM   31  H4  UNL     1      15.336   1.012  50.076  1.00  0.00     0.169 HD
BRANCH  29  32
HETATM   32  C2  UNL     1      14.046  -0.509  52.006  1.00  0.00     0.064 C 
HETATM   33  C1  UNL     1      13.020  -0.525  52.832  1.00  0.00     0.017 C 
ENDBRANCH  29  32
ENDBRANCH   1  28
BRANCH  11  34
HETATM   34  C18 UNL     1      25.962   0.488  53.052  1.00  0.00    -0.016 C 
HETATM   35  C19 UNL     1      26.603  -0.211  52.026  1.00  0.00     0.030 C 
ENDBRANCH  11  34
TORSDOF 7
ENDMDL
MODEL 6
REMARK VINA RESULT:      -7.1      5.812      8.981
REMARK  7 active torsions:
REMARK  status: ('A' for Active; 'I' for Inactive)
REMARK    1  A    between atoms: C2_2  and  C3_3 
REMARK       I    between atoms: C3_3  and  N1_5 
REMARK    2  A    between atoms: N1_5  and  C4_6 
REMARK    3  A    between atoms: C9_11  and  N2_12 
REMARK    4  A    between atoms: N2_12  and  C11_14 
REMARK    5  A    between atoms: C11_14  and  C12_15 
REMARK    6  A    between atoms: C12_15  and  N3_16 
REMARK    7  A    between atoms: C17_23  and  C18_24 
ROOT
HETATM    1  C4  UNL     1      19.902   2.526  51.857  1.00  0.00     0.064 A 
HETATM    2  C5  UNL     1      21.106   3.017  52.319  1.00  0.00     0.065 A 
HETATM    3  C6  UNL     1      22.145   2.111  52.636  1.00  0.00     0.085 A 
HETATM    4  C7  UNL     1      21.988   0.743  52.506  1.00  0.00     0.100 A 
HETATM    5  C8  UNL     1      20.743   0.370  52.035  1.00  0.00     0.071 A 
HETATM    6  C9  UNL     1      19.691   1.201  51.704  1.00  0.00     0.059 A 
HETATM    7  O2  UNL     1      23.056   0.114  52.863  1.00  0.00    -0.330 OA
HETATM    8  C15 UNL     1      23.771  -0.557  53.797  1.00  0.00     0.293 C 
HETATM    9  N4  UNL     1      25.051  -0.842  53.139  1.00  0.00    -0.394 N 
HETATM   10  C16 UNL     1      26.402  -1.022  53.497  1.00  0.00     0.154 C 
HETATM   11  C17 UNL     1      27.219   0.137  53.311  1.00  0.00     0.018 C 
HETATM   12  C20 UNL     1      26.380   1.198  52.637  1.00  0.00     0.061 A 
HETATM   13  C21 UNL     1      26.784   1.751  51.413  1.00  0.00     0.048 A 
HETATM   14  C22 UNL     1      26.074   2.686  50.694  1.00  0.00     0.138 A 
HETATM   15  N5  UNL     1      24.895   3.055  51.275  1.00  0.00    -0.075 NA
HETATM   16  C23 UNL     1      24.518   2.517  52.442  1.00  0.00     0.727 A 
HETATM   17  N6  UNL     1      25.204   1.613  53.156  1.00  0.00    -0.067 NA
HETATM   18  N7  UNL     1      23.266   2.888  52.967  1.00  0.00    -0.185 N 
HETATM   19  H22 UNL     1      25.342  -1.063  52.197  1.00  0.00     0.155 HD
HETATM   20  H29 UNL     1      23.470   3.723  53.522  1.00  0.00     0.184 HD
ENDROOT
BRANCH   6  21
HETATM   21  N2  UNL     1      18.616   0.424  51.189  1.00  0.00    -0.382 N 
HETATM   22  C10 UNL     1      18.133  -0.518  52.207  1.00  0.00     0.150 C 
BRANCH  21  23
HETATM   23  C11 UNL     1      17.793   0.265  50.036  1.00  0.00     0.152 C 
BRANCH  23  24
HETATM   24  C12 UNL     1      16.367  -0.131  50.259  1.00  0.00     0.291 C 
BRANCH  24  25
HETATM   25  N3  UNL     1      15.405   0.809  49.677  1.00  0.00     0.081 N 
HETATM   26  C13 UNL     1      15.908   1.399  48.422  1.00  0.00     0.309 C 
HETATM   27  C14 UNL     1      15.369   1.945  50.621  1.00  0.00     0.309 C 
ENDBRANCH  24  25
ENDBRANCH  23  24
ENDBRANCH  21  23
ENDBRANCH   6  21
BRANCH   1  28
HETATM   28  N1  UNL     1      18.745   3.310  51.522  1.00  0.00    -0.322 N 
HETATM   29  C3  UNL     1      18.876   3.832  50.173  1.00  0.00     0.244 C 
HETATM   30  O1  UNL     1      19.940   3.562  49.502  1.00  0.00    -0.268 OA
HETATM   31  H4  UNL     1      17.920   3.490  52.141  1.00  0.00     0.169 HD
BRANCH  29  32
HETATM   32  C2  UNL     1      17.763   4.655  49.626  1.00  0.00     0.064 C 
HETATM   33  C1  UNL     1      17.253   4.859  48.430  1.00  0.00     0.017 C 
ENDBRANCH  29  32
ENDBRANCH   1  28
BRANCH  11  34
HETATM   34  C18 UNL     1      28.559   0.871  53.379  1.00  0.00    -0.016 C 
HETATM   35  C19 UNL     1      29.789   0.226  53.536  1.00  0.00     0.030 C 
ENDBRANCH  11  34
TORSDOF 7
ENDMDL
MODEL 7
REMARK VINA RESULT:      -7.1      2.030      8.814
REMARK  7 active torsions:
REMARK  status: ('A' for Active; 'I' for Inactive)
REMARK    1  A    between atoms: C2_2  and  C3_3 
REMARK       I    between atoms: C3_3  and  N1_5 
REMARK    2  A    between atoms: N1_5  and  C4_6 
REMARK    3  A    between atoms: C9_11  and  N2_12 
REMARK    4  A    between atoms: N2_12  and  C11_14 
REMARK    5  A    between atoms: C11_14  and  C12_15 
REMARK    6  A    between atoms: C12_15  and  N3_16 
REMARK    7  A    between atoms: C17_23  and  C18_24 
ROOT
HETATM    1  C4  UNL     1      26.000   7.760  47.786  1.00  0.00     0.064 A 
HETATM    2  C5  UNL     1      24.962   6.943  48.183  1.00  0.00     0.065 A 
HETATM    3  C6  UNL     1      25.256   5.717  48.824  1.00  0.00     0.085 A 
HETATM    4  C7  UNL     1      26.556   5.306  49.058  1.00  0.00     0.100 A 
HETATM    5  C8  UNL     1      27.509   6.207  48.618  1.00  0.00     0.071 A 
HETATM    6  C9  UNL     1      27.289   7.416  47.991  1.00  0.00     0.059 A 
HETATM    7  O2  UNL     1      26.586   4.156  49.641  1.00  0.00    -0.330 OA
HETATM    8  C15 UNL     1      26.697   2.809  49.580  1.00  0.00     0.293 C 
HETATM    9  N4  UNL     1      26.519   2.366  50.968  1.00  0.00    -0.394 N 
HETATM   10  C16 UNL     1      26.029   1.240  51.660  1.00  0.00     0.154 C 
HETATM   11  C17 UNL     1      24.689   1.381  52.136  1.00  0.00     0.018 C 
HETATM   12  C20 UNL     1      24.238   2.795  51.857  1.00  0.00     0.061 A 
HETATM   13  C21 UNL     1      23.802   3.621  52.904  1.00  0.00     0.048 A 
HETATM   14  C22 UNL     1      23.415   4.935  52.766  1.00  0.00     0.138 A 
HETATM   15  N5  UNL     1      23.490   5.406  51.487  1.00  0.00    -0.075 NA
HETATM   16  C23 UNL     1      23.911   4.609  50.497  1.00  0.00     0.727 A 
HETATM   17  N6  UNL     1      24.281   3.326  50.615  1.00  0.00    -0.067 NA
HETATM   18  N7  UNL     1      24.025   5.160  49.207  1.00  0.00    -0.185 N 
HETATM   19  H22 UNL     1      26.764   2.734  51.876  1.00  0.00     0.155 HD
HETATM   20  H29 UNL     1      23.098   5.025  48.798  1.00  0.00     0.184 HD
ENDROOT
BRANCH   6  21
HETATM   21  N2  UNL     1      28.534   8.070  47.771  1.00  0.00    -0.382 N 
HETATM   22  C10 UNL     1      28.955   8.788  48.981  1.00  0.00     0.150 C 
BRANCH  21  23
HETATM   23  C11 UNL     1      29.560   8.239  46.795  1.00  0.00     0.152 C 
BRANCH  23  24
HETATM   24  C12 UNL     1      30.932   7.758  47.151  1.00  0.00     0.291 C 
BRANCH  24  25
HETATM   25  N3  UNL     1      31.023   6.301  47.276  1.00  0.00     0.081 N 
HETATM   26  C13 UNL     1      31.293   5.887  48.666  1.00  0.00     0.309 C 
HETATM   27  C14 UNL     1      32.252   5.935  46.544  1.00  0.00     0.309 C 
ENDBRANCH  24  25
ENDBRANCH  23  24
ENDBRANCH  21  23
ENDBRANCH   6  21
BRANCH   1  28
HETATM   28  N1  UNL     1      25.867   9.017  47.099  1.00  0.00    -0.322 N 
HETATM   29  C3  UNL     1      25.621  10.080  48.057  1.00  0.00     0.244 C 
HETATM   30  O1  UNL     1      25.540   9.785  49.308  1.00  0.00    -0.268 OA
HETATM   31  H4  UNL     1      25.937   9.166  46.065  1.00  0.00     0.169 HD
BRANCH  29  32
HETATM   32  C2  UNL     1      25.478  11.470  47.544  1.00  0.00     0.064 C 
HETATM   33  C1  UNL     1      26.096  12.613  47.760  1.00  0.00     0.017 C 
ENDBRANCH  29  32
ENDBRANCH   1  28
BRANCH  11  34
HETATM   34  C18 UNL     1      23.451   0.852  52.862  1.00  0.00    -0.016 C 
HETATM   35  C19 UNL     1      23.410  -0.371  53.538  1.00  0.00     0.030 C 
ENDBRANCH  11  34
TORSDOF 7
ENDMDL
MODEL 8
REMARK VINA RESULT:      -7.1      2.066      8.943
REMARK  7 active torsions:
REMARK  status: ('A' for Active; 'I' for Inactive)
REMARK    1  A    between atoms: C2_2  and  C3_3 
REMARK       I    between atoms: C3_3  and  N1_5 
REMARK    2  A    between atoms: N1_5  and  C4_6 
REMARK    3  A    between atoms: C9_11  and  N2_12 
REMARK    4  A    between atoms: N2_12  and  C11_14 
REMARK    5  A    between atoms: C11_14  and  C12_15 
REMARK    6  A    between atoms: C12_15  and  N3_16 
REMARK    7  A    between atoms: C17_23  and  C18_24 
ROOT
HETATM    1  C4  UNL     1      26.033   7.832  47.765  1.00  0.00     0.064 A 
HETATM    2  C5  UNL     1      24.988   7.022  48.158  1.00  0.00     0.065 A 
HETATM    3  C6  UNL     1      25.271   5.794  48.801  1.00  0.00     0.085 A 
HETATM    4  C7  UNL     1      26.568   5.376  49.041  1.00  0.00     0.100 A 
HETATM    5  C8  UNL     1      27.529   6.270  48.605  1.00  0.00     0.071 A 
HETATM    6  C9  UNL     1      27.319   7.481  47.977  1.00  0.00     0.059 A 
HETATM    7  O2  UNL     1      26.588   4.226  49.624  1.00  0.00    -0.330 OA
HETATM    8  C15 UNL     1      26.691   2.877  49.564  1.00  0.00     0.293 C 
HETATM    9  N4  UNL     1      26.504   2.437  50.952  1.00  0.00    -0.394 N 
HETATM   10  C16 UNL     1      26.005   1.314  51.642  1.00  0.00     0.154 C 
HETATM   11  C17 UNL     1      24.663   1.463  52.112  1.00  0.00     0.018 C 
HETATM   12  C20 UNL     1      24.222   2.880  51.831  1.00  0.00     0.061 A 
HETATM   13  C21 UNL     1      23.786   3.709  52.875  1.00  0.00     0.048 A 
HETATM   14  C22 UNL     1      23.409   5.025  52.735  1.00  0.00     0.138 A 
HETATM   15  N5  UNL     1      23.492   5.495  51.457  1.00  0.00    -0.075 NA
HETATM   16  C23 UNL     1      23.912   4.695  50.468  1.00  0.00     0.727 A 
HETATM   17  N6  UNL     1      24.274   3.410  50.589  1.00  0.00    -0.067 NA
HETATM   18  N7  UNL     1      24.036   5.245  49.179  1.00  0.00    -0.185 N 
HETATM   19  H22 UNL     1      26.747   2.803  51.861  1.00  0.00     0.155 HD
HETATM   20  H29 UNL     1      23.109   5.116  48.766  1.00  0.00     0.184 HD
ENDROOT
BRANCH   6  21
HETATM   21  N2  UNL     1      28.569   8.127  47.762  1.00  0.00    -0.382 N 
HETATM   22  C10 UNL     1      29.020   7.918  46.380  1.00  0.00     0.150 C 
BRANCH  21  23
HETATM   23  C11 UNL     1      29.532   8.959  48.404  1.00  0.00     0.152 C 
BRANCH  23  24
HETATM   24  C12 UNL     1      29.058  10.278  48.930  1.00  0.00     0.291 C 
BRANCH  24  25
HETATM   25  N3  UNL     1      29.313  11.394  48.016  1.00  0.00     0.081 N 
HETATM   26  C13 UNL     1      30.622  11.265  47.348  1.00  0.00     0.309 C 
HETATM   27  C14 UNL     1      29.468  12.572  48.892  1.00  0.00     0.309 C 
ENDBRANCH  24  25
ENDBRANCH  23  24
ENDBRANCH  21  23
ENDBRANCH   6  21
BRANCH   1  28
HETATM   28  N1  UNL     1      25.911   9.089  47.078  1.00  0.00    -0.322 N 
HETATM   29  C3  UNL     1      25.639  10.150  48.031  1.00  0.00     0.244 C 
HETATM   30  O1  UNL     1      25.531   9.853  49.279  1.00  0.00    -0.268 OA
HETATM   31  H4  UNL     1      26.003   9.241  46.046  1.00  0.00     0.169 HD
BRANCH  29  32
HETATM   32  C2  UNL     1      25.503  11.540  47.518  1.00  0.00     0.064 C 
HETATM   33  C1  UNL     1      25.802  12.738  47.974  1.00  0.00     0.017 C 
ENDBRANCH  29  32
ENDBRANCH   1  28
BRANCH  11  34
HETATM   34  C18 UNL     1      23.418   0.942  52.833  1.00  0.00    -0.016 C 
HETATM   35  C19 UNL     1      23.367  -0.281  53.508  1.00  0.00     0.030 C 
ENDBRANCH  11  34
TORSDOF 7
ENDMDL
MODEL 9
REMARK VINA RESULT:      -6.8      6.872     13.510
REMARK  7 active torsions:
REMARK  status: ('A' for Active; 'I' for Inactive)
REMARK    1  A    between atoms: C2_2  and  C3_3 
REMARK       I    between atoms: C3_3  and  N1_5 
REMARK    2  A    between atoms: N1_5  and  C4_6 
REMARK    3  A    between atoms: C9_11  and  N2_12 
REMARK    4  A    between atoms: N2_12  and  C11_14 
REMARK    5  A    between atoms: C11_14  and  C12_15 
REMARK    6  A    between atoms: C12_15  and  N3_16 
REMARK    7  A    between atoms: C17_23  and  C18_24 
ROOT
HETATM    1  C4  UNL     1      20.908   0.310  52.878  1.00  0.00     0.064 A 
HETATM    2  C5  UNL     1      19.861  -0.249  53.581  1.00  0.00     0.065 A 
HETATM    3  C6  UNL     1      18.647  -0.521  52.909  1.00  0.00     0.085 A 
HETATM    4  C7  UNL     1      18.473  -0.237  51.566  1.00  0.00     0.100 A 
HETATM    5  C8  UNL     1      19.590   0.319  50.968  1.00  0.00     0.071 A 
HETATM    6  C9  UNL     1      20.801   0.605  51.565  1.00  0.00     0.059 A 
HETATM    7  O2  UNL     1      17.288  -0.556  51.170  1.00  0.00    -0.330 OA
HETATM    8  C15 UNL     1      16.006  -0.216  50.898  1.00  0.00     0.293 C 
HETATM    9  N4  UNL     1      15.370  -1.479  50.508  1.00  0.00    -0.394 N 
HETATM   10  C16 UNL     1      14.093  -2.074  50.555  1.00  0.00     0.154 C 
HETATM   11  C17 UNL     1      13.909  -2.981  51.645  1.00  0.00     0.018 C 
HETATM   12  C20 UNL     1      15.231  -3.130  52.361  1.00  0.00     0.061 A 
HETATM   13  C21 UNL     1      15.820  -4.394  52.509  1.00  0.00     0.048 A 
HETATM   14  C22 UNL     1      17.039  -4.635  53.100  1.00  0.00     0.138 A 
HETATM   15  N5  UNL     1      17.669  -3.511  53.551  1.00  0.00    -0.075 NA
HETATM   16  C23 UNL     1      17.099  -2.309  53.402  1.00  0.00     0.727 A 
HETATM   17  N6  UNL     1      15.909  -2.062  52.836  1.00  0.00    -0.067 NA
HETATM   18  N7  UNL     1      17.817  -1.178  53.832  1.00  0.00    -0.185 N 
HETATM   19  H22 UNL     1      15.664  -2.308  50.011  1.00  0.00     0.155 HD
HETATM   20  H29 UNL     1      17.554  -1.079  54.815  1.00  0.00     0.184 HD
ENDROOT
BRANCH   6  21
HETATM   21  N2  UNL     1      21.708   1.098  50.585  1.00  0.00    -0.382 N 
HETATM   22  C10 UNL     1      21.167   0.886  49.236  1.00  0.00     0.150 C 
BRANCH  21  23
HETATM   23  C11 UNL     1      22.952   1.780  50.444  1.00  0.00     0.152 C 
BRANCH  23  24
HETATM   24  C12 UNL     1      22.926   3.275  50.510  1.00  0.00     0.291 C 
BRANCH  24  25
HETATM   25  N3  UNL     1      22.478   3.792  51.806  1.00  0.00     0.081 N 
HETATM   26  C13 UNL     1      21.155   4.436  51.709  1.00  0.00     0.309 C 
HETATM   27  C14 UNL     1      23.401   4.904  52.110  1.00  0.00     0.309 C 
ENDBRANCH  24  25
ENDBRANCH  23  24
ENDBRANCH  21  23
ENDBRANCH   6  21
BRANCH   1  28
HETATM   28  N1  UNL     1      22.189   0.672  53.421  1.00  0.00    -0.322 N 
HETATM   29  C3  UNL     1      23.063  -0.487  53.441  1.00  0.00     0.244 C 
HETATM   30  O1  UNL     1      22.611  -1.615  53.018  1.00  0.00    -0.268 OA
HETATM   31  H4  UNL     1      22.472   1.624  53.757  1.00  0.00     0.169 HD
BRANCH  29  32
HETATM   32  C2  UNL     1      24.452  -0.312  53.948  1.00  0.00     0.064 C 
HETATM   33  C1  UNL     1      25.564   0.201  53.466  1.00  0.00     0.017 C 
ENDBRANCH  29  32
ENDBRANCH   1  28
BRANCH  11  34
HETATM   34  C18 UNL     1      13.063  -3.964  52.457  1.00  0.00    -0.016 C 
HETATM   35  C19 UNL     1      12.336  -3.604  53.596  1.00  0.00     0.030 C 
ENDBRANCH  11  34
TORSDOF 7
ENDMDL
