MODEL 1
REMARK VINA RESULT:      -8.0      0.000      0.000
REMARK  5 active torsions:
REMARK  status: ('A' for Active; 'I' for Inactive)
REMARK    1  A    between atoms: C2_2  and  S1_3 
REMARK    2  A    between atoms: S1_3  and  C3_5 
REMARK    3  A    between atoms: C3_5  and  C14_17 
REMARK    4  A    between atoms: C4_6  and  C5_7 
REMARK    5  A    between atoms: C6_8  and  C7_9 
ROOT
HETATM    1  C3  UNL     1      25.200  -0.216  53.133  1.00  0.00     0.039 C 
HETATM    2  C4  UNL     1      25.367   0.720  52.244  1.00  0.00     0.021 C 
ENDROOT
BRANCH   1   3
HETATM    3  S1  UNL     1      26.841  -0.720  53.372  1.00  0.00     0.050 S 
HETATM    4  O1  UNL     1      27.077  -2.197  53.231  1.00  0.00    -0.253 OA
BRANCH   3   5
HETATM    5  C2  UNL     1      27.710   0.054  54.699  1.00  0.00     0.109 C 
HETATM    6  C1  UNL     1      29.075   0.556  54.385  1.00  0.00     0.019 C 
ENDBRANCH   3   5
ENDBRANCH   1   3
BRANCH   1   7
HETATM    7  C14 UNL     1      23.886  -0.525  53.616  1.00  0.00    -0.017 C 
HETATM    8  C15 UNL     1      22.731  -0.332  53.027  1.00  0.00     0.015 C 
HETATM    9  C16 UNL     1      21.648  -0.827  53.946  1.00  0.00     0.141 C 
HETATM   10  C17 UNL     1      20.382  -0.048  53.823  1.00  0.00     0.044 C 
HETATM   11  O3  UNL     1      22.243  -0.657  55.190  1.00  0.00    -0.378 OA
HETATM   12  C18 UNL     1      23.544  -1.141  54.920  1.00  0.00     0.208 C 
ENDBRANCH   1   7
BRANCH   2  13
HETATM   13  C5  UNL     1      26.435   1.350  51.512  1.00  0.00     0.002 C 
HETATM   14  C6  UNL     1      26.610   2.412  50.777  1.00  0.00     0.014 C 
BRANCH  14  15
HETATM   15  C7  UNL     1      26.018   3.585  50.206  1.00  0.00    -0.001 A 
HETATM   16  C8  UNL     1      24.708   3.985  50.356  1.00  0.00     0.154 A 
HETATM   17  O2  UNL     1      24.530   5.079  49.708  1.00  0.00    -0.321 OA
HETATM   18  C9  UNL     1      25.607   5.493  49.107  1.00  0.00     0.082 A 
HETATM   19  C10 UNL     1      26.570   4.562  49.408  1.00  0.00     0.006 A 
HETATM   20  C13 UNL     1      25.969   6.504  48.346  1.00  0.00     0.015 A 
HETATM   21  C11 UNL     1      27.645   5.008  48.788  1.00  0.00    -0.008 A 
HETATM   22  C12 UNL     1      27.403   6.270  48.053  1.00  0.00     0.058 A 
ENDBRANCH  14  15
ENDBRANCH   2  13
TORSDOF 5
ENDMDL
MODEL 2
REMARK VINA RESULT:      -7.9      2.261      4.593
REMARK  5 active torsions:
REMARK  status: ('A' for Active; 'I' for Inactive)
REMARK    1  A    between atoms: C2_2  and  S1_3 
REMARK    2  A    between atoms: S1_3  and  C3_5 
REMARK    3  A    between atoms: C3_5  and  C14_17 
REMARK    4  A    between atoms: C4_6  and  C5_7 
REMARK    5  A    between atoms: C6_8  and  C7_9 
ROOT
HETATM    1  C3  UNL     1      26.364   2.176  52.213  1.00  0.00     0.039 C 
HETATM    2  C4  UNL     1      26.403   2.668  51.008  1.00  0.00     0.021 C 
ENDROOT
BRANCH   1   3
HETATM    3  S1  UNL     1      24.678   2.356  52.572  1.00  0.00     0.050 S 
HETATM    4  O1  UNL     1      24.352   3.432  53.568  1.00  0.00    -0.253 OA
BRANCH   3   5
HETATM    5  C2  UNL     1      23.757   0.860  52.758  1.00  0.00     0.109 C 
HETATM    6  C1  UNL     1      24.474  -0.277  53.395  1.00  0.00     0.019 C 
ENDBRANCH   3   5
ENDBRANCH   1   3
BRANCH   1   7
HETATM    7  C14 UNL     1      27.560   1.679  52.827  1.00  0.00    -0.017 C 
HETATM    8  C15 UNL     1      28.092   0.485  52.735  1.00  0.00     0.015 C 
HETATM    9  C16 UNL     1      29.346   0.465  53.567  1.00  0.00     0.141 C 
HETATM   10  C17 UNL     1      29.620  -0.871  54.171  1.00  0.00     0.044 C 
HETATM   11  O3  UNL     1      29.051   1.420  54.532  1.00  0.00    -0.378 OA
HETATM   12  C18 UNL     1      28.470   2.427  53.726  1.00  0.00     0.208 C 
ENDBRANCH   1   7
BRANCH   2  13
HETATM   13  C5  UNL     1      25.510   3.244  50.037  1.00  0.00     0.002 C 
HETATM   14  C6  UNL     1      25.465   4.293  49.264  1.00  0.00     0.014 C 
BRANCH  14  15
HETATM   15  C7  UNL     1      26.122   5.489  48.830  1.00  0.00    -0.001 A 
HETATM   16  C8  UNL     1      25.527   6.719  48.652  1.00  0.00     0.154 A 
HETATM   17  O2  UNL     1      26.415   7.558  48.256  1.00  0.00    -0.321 OA
HETATM   18  C9  UNL     1      27.596   7.027  48.137  1.00  0.00     0.082 A 
HETATM   19  C10 UNL     1      27.439   5.710  48.497  1.00  0.00     0.006 A 
HETATM   20  C13 UNL     1      28.806   7.410  47.787  1.00  0.00     0.015 A 
HETATM   21  C11 UNL     1      28.648   5.201  48.367  1.00  0.00    -0.008 A 
HETATM   22  C12 UNL     1      29.646   6.195  47.910  1.00  0.00     0.058 A 
ENDBRANCH  14  15
ENDBRANCH   2  13
TORSDOF 5
ENDMDL
MODEL 3
REMARK VINA RESULT:      -7.8      1.081      1.930
REMARK  5 active torsions:
REMARK  status: ('A' for Active; 'I' for Inactive)
REMARK    1  A    between atoms: C2_2  and  S1_3 
REMARK    2  A    between atoms: S1_3  and  C3_5 
REMARK    3  A    between atoms: C3_5  and  C14_17 
REMARK    4  A    between atoms: C4_6  and  C5_7 
REMARK    5  A    between atoms: C6_8  and  C7_9 
ROOT
HETATM    1  C3  UNL     1      25.244  -0.180  53.124  1.00  0.00     0.039 C 
HETATM    2  C4  UNL     1      25.362   0.832  52.314  1.00  0.00     0.021 C 
ENDROOT
BRANCH   1   3
HETATM    3  S1  UNL     1      26.903  -0.657  53.276  1.00  0.00     0.050 S 
HETATM    4  O1  UNL     1      27.163  -2.123  53.080  1.00  0.00    -0.253 OA
BRANCH   3   5
HETATM    5  C2  UNL     1      27.814   0.096  54.588  1.00  0.00     0.109 C 
HETATM    6  C1  UNL     1      29.137   0.671  54.223  1.00  0.00     0.019 C 
ENDBRANCH   3   5
ENDBRANCH   1   3
BRANCH   1   7
HETATM    7  C14 UNL     1      23.953  -0.566  53.612  1.00  0.00    -0.017 C 
HETATM    8  C15 UNL     1      22.792  -0.490  53.006  1.00  0.00     0.015 C 
HETATM    9  C16 UNL     1      21.741  -1.023  53.940  1.00  0.00     0.141 C 
HETATM   10  C17 UNL     1      20.420  -0.351  53.771  1.00  0.00     0.044 C 
HETATM   11  O3  UNL     1      22.307  -0.748  55.179  1.00  0.00    -0.378 OA
HETATM   12  C18 UNL     1      23.645  -1.144  54.941  1.00  0.00     0.208 C 
ENDBRANCH   1   7
BRANCH   2  13
HETATM   13  C5  UNL     1      26.392   1.552  51.611  1.00  0.00     0.002 C 
HETATM   14  C6  UNL     1      26.478   2.538  50.763  1.00  0.00     0.014 C 
BRANCH  14  15
HETATM   15  C7  UNL     1      25.776   3.518  49.990  1.00  0.00    -0.001 A 
HETATM   16  C8  UNL     1      26.294   4.709  49.531  1.00  0.00     0.154 A 
HETATM   17  O2  UNL     1      25.383   5.335  48.876  1.00  0.00    -0.321 OA
HETATM   18  C9  UNL     1      24.257   4.686  48.830  1.00  0.00     0.082 A 
HETATM   19  C10 UNL     1      24.478   3.525  49.530  1.00  0.00     0.006 A 
HETATM   20  C13 UNL     1      23.056   4.855  48.317  1.00  0.00     0.015 A 
HETATM   21  C11 UNL     1      23.324   2.892  49.465  1.00  0.00    -0.008 A 
HETATM   22  C12 UNL     1      22.299   3.641  48.703  1.00  0.00     0.058 A 
ENDBRANCH  14  15
ENDBRANCH   2  13
TORSDOF 5
ENDMDL
MODEL 4
REMARK VINA RESULT:      -7.7      2.469      5.855
REMARK  5 active torsions:
REMARK  status: ('A' for Active; 'I' for Inactive)
REMARK    1  A    between atoms: C2_2  and  S1_3 
REMARK    2  A    between atoms: S1_3  and  C3_5 
REMARK    3  A    between atoms: C3_5  and  C14_17 
REMARK    4  A    between atoms: C4_6  and  C5_7 
REMARK    5  A    between atoms: C6_8  and  C7_9 
ROOT
HETATM    1  C3  UNL     1      23.492   2.180  52.192  1.00  0.00     0.039 C 
HETATM    2  C4  UNL     1      24.415   1.959  53.082  1.00  0.00     0.021 C 
ENDROOT
BRANCH   1   3
HETATM    3  S1  UNL     1      24.147   3.574  51.398  1.00  0.00     0.050 S 
HETATM    4  O1  UNL     1      23.285   4.802  51.458  1.00  0.00    -0.253 OA
BRANCH   3   5
HETATM    5  C2  UNL     1      24.935   3.288  49.844  1.00  0.00     0.109 C 
HETATM    6  C1  UNL     1      26.417   3.153  49.875  1.00  0.00     0.019 C 
ENDBRANCH   3   5
ENDBRANCH   1   3
BRANCH   1   7
HETATM    7  C14 UNL     1      22.346   1.322  52.114  1.00  0.00    -0.017 C 
HETATM    8  C15 UNL     1      21.474   1.207  51.141  1.00  0.00     0.015 C 
HETATM    9  C16 UNL     1      20.460   0.171  51.542  1.00  0.00     0.141 C 
HETATM   10  C17 UNL     1      19.100   0.448  50.995  1.00  0.00     0.044 C 
HETATM   11  O3  UNL     1      20.493   0.274  52.927  1.00  0.00    -0.378 OA
HETATM   12  C18 UNL     1      21.888   0.360  53.144  1.00  0.00     0.208 C 
ENDBRANCH   1   7
BRANCH   2  13
HETATM   13  C5  UNL     1      25.674   2.513  53.509  1.00  0.00     0.002 C 
HETATM   14  C6  UNL     1      26.895   2.103  53.710  1.00  0.00     0.014 C 
BRANCH  14  15
HETATM   15  C7  UNL     1      27.807   0.999  53.683  1.00  0.00    -0.001 A 
HETATM   16  C8  UNL     1      29.115   1.021  54.116  1.00  0.00     0.154 A 
HETATM   17  O2  UNL     1      29.630  -0.142  53.941  1.00  0.00    -0.321 OA
HETATM   18  C9  UNL     1      28.796  -0.993  53.419  1.00  0.00     0.082 A 
HETATM   19  C10 UNL     1      27.627  -0.293  53.244  1.00  0.00     0.006 A 
HETATM   20  C13 UNL     1      28.798  -2.256  53.048  1.00  0.00     0.015 A 
HETATM   21  C11 UNL     1      26.806  -1.178  52.716  1.00  0.00    -0.008 A 
HETATM   22  C12 UNL     1      27.432  -2.507  52.530  1.00  0.00     0.058 A 
ENDBRANCH  14  15
ENDBRANCH   2  13
TORSDOF 5
ENDMDL
MODEL 5
REMARK VINA RESULT:      -7.7      2.235      6.766
REMARK  5 active torsions:
REMARK  status: ('A' for Active; 'I' for Inactive)
REMARK    1  A    between atoms: C2_2  and  S1_3 
REMARK    2  A    between atoms: S1_3  and  C3_5 
REMARK    3  A    between atoms: C3_5  and  C14_17 
REMARK    4  A    between atoms: C4_6  and  C5_7 
REMARK    5  A    between atoms: C6_8  and  C7_9 
ROOT
HETATM    1  C3  UNL     1      25.352   1.868  52.067  1.00  0.00     0.039 C 
HETATM    2  C4  UNL     1      24.182   1.336  52.274  1.00  0.00     0.021 C 
ENDROOT
BRANCH   1   3
HETATM    3  S1  UNL     1      26.284   1.063  53.286  1.00  0.00     0.050 S 
HETATM    4  O1  UNL     1      26.846   1.960  54.351  1.00  0.00    -0.253 OA
BRANCH   3   5
HETATM    5  C2  UNL     1      27.377  -0.204  52.721  1.00  0.00     0.109 C 
HETATM    6  C1  UNL     1      26.798  -1.571  52.615  1.00  0.00     0.019 C 
ENDBRANCH   3   5
ENDBRANCH   1   3
BRANCH   1   7
HETATM    7  C14 UNL     1      25.529   2.836  51.024  1.00  0.00    -0.017 C 
HETATM    8  C15 UNL     1      26.504   2.930  50.152  1.00  0.00     0.015 C 
HETATM    9  C16 UNL     1      26.228   4.117  49.270  1.00  0.00     0.141 C 
HETATM   10  C17 UNL     1      27.473   4.792  48.801  1.00  0.00     0.044 C 
HETATM   11  O3  UNL     1      25.488   4.929  50.121  1.00  0.00    -0.378 OA
HETATM   12  C18 UNL     1      24.628   3.969  50.705  1.00  0.00     0.208 C 
ENDBRANCH   1   7
BRANCH   2  13
HETATM   13  C5  UNL     1      23.561   0.375  53.147  1.00  0.00     0.002 C 
HETATM   14  C6  UNL     1      22.378  -0.139  53.336  1.00  0.00     0.014 C 
BRANCH  14  15
HETATM   15  C7  UNL     1      21.006  -0.172  52.925  1.00  0.00    -0.001 A 
HETATM   16  C8  UNL     1      19.963  -0.727  53.633  1.00  0.00     0.154 A 
HETATM   17  O2  UNL     1      18.877  -0.575  52.964  1.00  0.00    -0.321 OA
HETATM   18  C9  UNL     1      19.061   0.045  51.835  1.00  0.00     0.082 A 
HETATM   19  C10 UNL     1      20.407   0.313  51.784  1.00  0.00     0.006 A 
HETATM   20  C13 UNL     1      18.333   0.444  50.814  1.00  0.00     0.015 A 
HETATM   21  C11 UNL     1      20.561   0.938  50.634  1.00  0.00    -0.008 A 
HETATM   22  C12 UNL     1      19.291   1.096  49.890  1.00  0.00     0.058 A 
ENDBRANCH  14  15
ENDBRANCH   2  13
TORSDOF 5
ENDMDL
MODEL 6
REMARK VINA RESULT:      -7.7      2.541      7.380
REMARK  5 active torsions:
REMARK  status: ('A' for Active; 'I' for Inactive)
REMARK    1  A    between atoms: C2_2  and  S1_3 
REMARK    2  A    between atoms: S1_3  and  C3_5 
REMARK    3  A    between atoms: C3_5  and  C14_17 
REMARK    4  A    between atoms: C4_6  and  C5_7 
REMARK    5  A    between atoms: C6_8  and  C7_9 
ROOT
HETATM    1  C3  UNL     1      24.401   3.053  50.789  1.00  0.00     0.039 C 
HETATM    2  C4  UNL     1      25.008   2.138  51.487  1.00  0.00     0.021 C 
ENDROOT
BRANCH   1   3
HETATM    3  S1  UNL     1      22.747   2.615  51.064  1.00  0.00     0.050 S 
HETATM    4  O1  UNL     1      22.053   1.987  49.889  1.00  0.00    -0.253 OA
BRANCH   3   5
HETATM    5  C2  UNL     1      21.775   3.773  51.977  1.00  0.00     0.109 C 
HETATM    6  C1  UNL     1      20.314   3.767  51.697  1.00  0.00     0.019 C 
ENDBRANCH   3   5
ENDBRANCH   1   3
BRANCH   1   7
HETATM    7  C14 UNL     1      25.161   4.045  50.085  1.00  0.00    -0.017 C 
HETATM    8  C15 UNL     1      26.201   3.878  49.305  1.00  0.00     0.015 C 
HETATM    9  C16 UNL     1      26.635   5.230  48.809  1.00  0.00     0.141 C 
HETATM   10  C17 UNL     1      28.108   5.323  48.592  1.00  0.00     0.044 C 
HETATM   11  O3  UNL     1      26.211   6.054  49.844  1.00  0.00    -0.378 OA
HETATM   12  C18 UNL     1      24.929   5.509  50.095  1.00  0.00     0.208 C 
ENDBRANCH   1   7
BRANCH   2  13
HETATM   13  C5  UNL     1      24.685   1.008  52.319  1.00  0.00     0.002 C 
HETATM   14  C6  UNL     1      25.288  -0.038  52.809  1.00  0.00     0.014 C 
BRANCH  14  15
HETATM   15  C7  UNL     1      26.510  -0.779  52.910  1.00  0.00    -0.001 A 
HETATM   16  C8  UNL     1      26.655  -2.133  52.704  1.00  0.00     0.154 A 
HETATM   17  O2  UNL     1      27.886  -2.452  52.879  1.00  0.00    -0.321 OA
HETATM   18  C9  UNL     1      28.633  -1.435  53.193  1.00  0.00     0.082 A 
HETATM   19  C10 UNL     1      27.783  -0.356  53.220  1.00  0.00     0.006 A 
HETATM   20  C13 UNL     1      29.899  -1.205  53.469  1.00  0.00     0.015 A 
HETATM   21  C11 UNL     1      28.566   0.655  53.540  1.00  0.00    -0.008 A 
HETATM   22  C12 UNL     1      29.978   0.252  53.733  1.00  0.00     0.058 A 
ENDBRANCH  14  15
ENDBRANCH   2  13
TORSDOF 5
ENDMDL
MODEL 7
REMARK VINA RESULT:      -7.7      2.837      7.776
REMARK  5 active torsions:
REMARK  status: ('A' for Active; 'I' for Inactive)
REMARK    1  A    between atoms: C2_2  and  S1_3 
REMARK    2  A    between atoms: S1_3  and  C3_5 
REMARK    3  A    between atoms: C3_5  and  C14_17 
REMARK    4  A    between atoms: C4_6  and  C5_7 
REMARK    5  A    between atoms: C6_8  and  C7_9 
ROOT
HETATM    1  C3  UNL     1      25.517   4.535  49.621  1.00  0.00     0.039 C 
HETATM    2  C4  UNL     1      25.724   3.369  50.161  1.00  0.00     0.021 C 
ENDROOT
BRANCH   1   3
HETATM    3  S1  UNL     1      23.825   4.734  49.941  1.00  0.00     0.050 S 
HETATM    4  O1  UNL     1      22.978   5.006  48.730  1.00  0.00    -0.253 OA
BRANCH   3   5
HETATM    5  C2  UNL     1      23.408   5.678  51.374  1.00  0.00     0.109 C 
HETATM    6  C1  UNL     1      23.197   4.906  52.629  1.00  0.00     0.019 C 
ENDBRANCH   3   5
ENDBRANCH   1   3
BRANCH   1   7
HETATM    7  C14 UNL     1      26.597   5.246  49.002  1.00  0.00    -0.017 C 
HETATM    8  C15 UNL     1      27.775   4.794  48.643  1.00  0.00     0.015 C 
HETATM    9  C16 UNL     1      28.548   5.933  48.037  1.00  0.00     0.141 C 
HETATM   10  C17 UNL     1      30.016   5.833  48.282  1.00  0.00     0.044 C 
HETATM   11  O3  UNL     1      27.988   7.025  48.689  1.00  0.00    -0.378 OA
HETATM   12  C18 UNL     1      26.617   6.680  48.632  1.00  0.00     0.208 C 
ENDBRANCH   1   7
BRANCH   2  13
HETATM   13  C5  UNL     1      24.992   2.347  50.863  1.00  0.00     0.002 C 
HETATM   14  C6  UNL     1      25.237   1.395  51.719  1.00  0.00     0.014 C 
BRANCH  14  15
HETATM   15  C7  UNL     1      26.222   0.718  52.508  1.00  0.00    -0.001 A 
HETATM   16  C8  UNL     1      26.236  -0.628  52.803  1.00  0.00     0.154 A 
HETATM   17  O2  UNL     1      27.263  -0.884  53.531  1.00  0.00    -0.321 OA
HETATM   18  C9  UNL     1      27.984   0.170  53.778  1.00  0.00     0.082 A 
HETATM   19  C10 UNL     1      27.345   1.205  53.139  1.00  0.00     0.006 A 
HETATM   20  C13 UNL     1      29.085   0.464  54.437  1.00  0.00     0.015 A 
HETATM   21  C11 UNL     1      28.096   2.254  53.408  1.00  0.00    -0.008 A 
HETATM   22  C12 UNL     1      29.270   1.922  54.246  1.00  0.00     0.058 A 
ENDBRANCH  14  15
ENDBRANCH   2  13
TORSDOF 5
ENDMDL
MODEL 8
REMARK VINA RESULT:      -7.3      3.154      8.271
REMARK  5 active torsions:
REMARK  status: ('A' for Active; 'I' for Inactive)
REMARK    1  A    between atoms: C2_2  and  S1_3 
REMARK    2  A    between atoms: S1_3  and  C3_5 
REMARK    3  A    between atoms: C3_5  and  C14_17 
REMARK    4  A    between atoms: C4_6  and  C5_7 
REMARK    5  A    between atoms: C6_8  and  C7_9 
ROOT
HETATM    1  C3  UNL     1      25.848   5.198  49.123  1.00  0.00     0.039 C 
HETATM    2  C4  UNL     1      25.855   3.993  49.614  1.00  0.00     0.021 C 
ENDROOT
BRANCH   1   3
HETATM    3  S1  UNL     1      24.180   5.617  49.340  1.00  0.00     0.050 S 
HETATM    4  O1  UNL     1      23.435   5.931  48.074  1.00  0.00    -0.253 OA
BRANCH   3   5
HETATM    5  C2  UNL     1      23.812   6.672  50.707  1.00  0.00     0.109 C 
HETATM    6  C1  UNL     1      24.087   8.121  50.509  1.00  0.00     0.019 C 
ENDBRANCH   3   5
ENDBRANCH   1   3
BRANCH   1   7
HETATM    7  C14 UNL     1      27.057   5.777  48.614  1.00  0.00    -0.017 C 
HETATM    8  C15 UNL     1      28.221   5.205  48.425  1.00  0.00     0.015 C 
HETATM    9  C16 UNL     1      29.165   6.238  47.873  1.00  0.00     0.141 C 
HETATM   10  C17 UNL     1      30.577   6.023  48.303  1.00  0.00     0.044 C 
HETATM   11  O3  UNL     1      28.635   7.408  48.402  1.00  0.00    -0.378 OA
HETATM   12  C18 UNL     1      27.255   7.182  48.188  1.00  0.00     0.208 C 
ENDBRANCH   1   7
BRANCH   2  13
HETATM   13  C5  UNL     1      24.942   3.054  50.212  1.00  0.00     0.002 C 
HETATM   14  C6  UNL     1      24.896   2.282  51.261  1.00  0.00     0.014 C 
BRANCH  14  15
HETATM   15  C7  UNL     1      25.567   1.821  52.440  1.00  0.00    -0.001 A 
HETATM   16  C8  UNL     1      25.553   2.438  53.672  1.00  0.00     0.154 A 
HETATM   17  O2  UNL     1      26.260   1.748  54.491  1.00  0.00    -0.321 OA
HETATM   18  C9  UNL     1      26.778   0.687  53.945  1.00  0.00     0.082 A 
HETATM   19  C10 UNL     1      26.353   0.708  52.639  1.00  0.00     0.006 A 
HETATM   20  C13 UNL     1      27.546  -0.318  54.307  1.00  0.00     0.015 A 
HETATM   21  C11 UNL     1      26.891  -0.374  52.114  1.00  0.00    -0.008 A 
HETATM   22  C12 UNL     1      27.698  -1.145  53.087  1.00  0.00     0.058 A 
ENDBRANCH  14  15
ENDBRANCH   2  13
TORSDOF 5
ENDMDL
MODEL 9
REMARK VINA RESULT:      -7.0      3.341      8.864
REMARK  5 active torsions:
REMARK  status: ('A' for Active; 'I' for Inactive)
REMARK    1  A    between atoms: C2_2  and  S1_3 
REMARK    2  A    between atoms: S1_3  and  C3_5 
REMARK    3  A    between atoms: C3_5  and  C14_17 
REMARK    4  A    between atoms: C4_6  and  C5_7 
REMARK    5  A    between atoms: C6_8  and  C7_9 
ROOT
HETATM    1  C3  UNL     1      27.492   6.265  48.448  1.00  0.00     0.039 C 
HETATM    2  C4  UNL     1      26.960   5.158  48.879  1.00  0.00     0.021 C 
ENDROOT
BRANCH   1   3
HETATM    3  S1  UNL     1      26.082   7.265  48.326  1.00  0.00     0.050 S 
HETATM    4  O1  UNL     1      25.824   7.834  46.960  1.00  0.00    -0.253 OA
BRANCH   3   5
HETATM    5  C2  UNL     1      25.797   8.379  49.666  1.00  0.00     0.109 C 
HETATM    6  C1  UNL     1      27.004   9.024  50.251  1.00  0.00     0.019 C 
ENDBRANCH   3   5
ENDBRANCH   1   3
BRANCH   1   7
HETATM    7  C14 UNL     1      28.906   6.348  48.231  1.00  0.00    -0.017 C 
HETATM    8  C15 UNL     1      29.759   5.378  48.007  1.00  0.00     0.015 C 
HETATM    9  C16 UNL     1      31.126   5.984  47.845  1.00  0.00     0.141 C 
HETATM   10  C17 UNL     1      32.218   5.093  48.334  1.00  0.00     0.044 C 
HETATM   11  O3  UNL     1      31.011   7.135  48.616  1.00  0.00    -0.378 OA
HETATM   12  C18 UNL     1      29.729   7.581  48.218  1.00  0.00     0.208 C 
ENDBRANCH   1   7
BRANCH   2  13
HETATM   13  C5  UNL     1      25.665   4.635  49.230  1.00  0.00     0.002 C 
HETATM   14  C6  UNL     1      25.173   3.702  49.996  1.00  0.00     0.014 C 
BRANCH  14  15
HETATM   15  C7  UNL     1      25.446   2.647  50.926  1.00  0.00    -0.001 A 
HETATM   16  C8  UNL     1      26.694   2.230  51.331  1.00  0.00     0.154 A 
HETATM   17  O2  UNL     1      26.559   1.265  52.168  1.00  0.00    -0.321 OA
HETATM   18  C9  UNL     1      25.315   0.960  52.394  1.00  0.00     0.082 A 
HETATM   19  C10 UNL     1      24.584   1.824  51.616  1.00  0.00     0.006 A 
HETATM   20  C13 UNL     1      24.641   0.098  53.124  1.00  0.00     0.015 A 
HETATM   21  C11 UNL     1      23.333   1.492  51.864  1.00  0.00    -0.008 A 
HETATM   22  C12 UNL     1      23.215   0.379  52.833  1.00  0.00     0.058 A 
ENDBRANCH  14  15
ENDBRANCH   2  13
TORSDOF 5
ENDMDL
