MODEL 1
REMARK VINA RESULT:      -7.9      0.000      0.000
REMARK  5 active torsions:
REMARK  status: ('A' for Active; 'I' for Inactive)
REMARK    1  A    between atoms: C2_2  and  C3_3 
REMARK       I    between atoms: C3_3  and  N1_5 
REMARK    2  A    between atoms: C5_7  and  C6_8 
REMARK    3  A    between atoms: C6_8  and  O2_9 
REMARK    4  A    between atoms: O2_9  and  C7_10 
REMARK    5  A    between atoms: C17_27  and  O3_28 
ROOT
HETATM    1  C7  UNL     1      24.845   5.095  50.529  1.00  0.00     0.197 A 
HETATM    2  N2  UNL     1      23.654   5.351  51.088  1.00  0.00    -0.037 NA
HETATM    3  C8  UNL     1      23.259   6.669  51.175  1.00  0.00     0.729 A 
HETATM    4  N3  UNL     1      23.855   7.848  50.798  1.00  0.00    -0.074 NA
HETATM    5  C9  UNL     1      25.091   7.746  50.205  1.00  0.00     0.154 A 
HETATM    6  C10 UNL     1      24.970   6.426  50.366  1.00  0.00     0.059 A 
HETATM    7  C11 UNL     1      25.807   6.122  49.160  1.00  0.00     0.065 C 
HETATM    8 CL1  UNL     1      27.388   5.688  48.591  1.00  0.00    -0.082 Cl
HETATM    9  C12 UNL     1      24.847   6.281  48.176  1.00  0.00     0.114 C 
HETATM   10  N4  UNL     1      23.492   6.644  48.440  1.00  0.00    -0.346 N 
HETATM   11  C13 UNL     1      22.168   6.393  48.914  1.00  0.00     0.176 A 
HETATM   12  N5  UNL     1      21.302   5.924  48.020  1.00  0.00    -0.153 NA
HETATM   13  N6  UNL     1      20.117   5.709  48.528  1.00  0.00    -0.281 N 
HETATM   14  C14 UNL     1      18.931   5.205  47.866  1.00  0.00     0.179 C 
HETATM   15  C15 UNL     1      20.292   6.072  49.802  1.00  0.00     0.145 A 
HETATM   16  C16 UNL     1      21.545   6.522  50.169  1.00  0.00     0.114 A 
HETATM   17  N7  UNL     1      21.923   6.950  51.526  1.00  0.00    -0.183 N 
HETATM   18  H11 UNL     1      23.522   7.638  48.082  1.00  0.00     0.167 HD
HETATM   19  H16 UNL     1      21.216   7.265  52.183  1.00  0.00     0.184 HD
ENDROOT
BRANCH   1  20
HETATM   20  O2  UNL     1      25.516   3.939  50.297  1.00  0.00    -0.333 OA
BRANCH  20  21
HETATM   21  C6  UNL     1      25.127   2.680  50.703  1.00  0.00     0.186 C 
BRANCH  21  22
HETATM   22  C5  UNL     1      25.911   2.344  51.978  1.00  0.00     0.058 C 
HETATM   23  C4  UNL     1      26.654   1.031  51.771  1.00  0.00     0.135 C 
HETATM   24  N1  UNL     1      26.625   0.496  53.147  1.00  0.00    -0.346 N 
HETATM   25  C3  UNL     1      27.445   0.036  54.205  1.00  0.00     0.242 C 
HETATM   26  C19 UNL     1      25.185   0.520  53.293  1.00  0.00     0.158 C 
HETATM   27  O1  UNL     1      27.367  -0.409  55.368  1.00  0.00    -0.268 OA
HETATM   28  C17 UNL     1      24.870   1.987  53.049  1.00  0.00     0.146 C 
BRANCH  25  29
HETATM   29  C2  UNL     1      28.876   0.051  53.944  1.00  0.00     0.064 C 
HETATM   30  C1  UNL     1      29.873  -0.691  53.432  1.00  0.00     0.017 C 
ENDBRANCH  25  29
BRANCH  28  31
HETATM   31  O3  UNL     1      23.599   2.181  52.589  1.00  0.00    -0.389 OA
HETATM   32  C18 UNL     1      22.643   1.285  52.960  1.00  0.00     0.202 C 
ENDBRANCH  28  31
ENDBRANCH  21  22
ENDBRANCH  20  21
ENDBRANCH   1  20
TORSDOF 5
ENDMDL
MODEL 2
REMARK VINA RESULT:      -7.8      2.362      4.732
REMARK  5 active torsions:
REMARK  status: ('A' for Active; 'I' for Inactive)
REMARK    1  A    between atoms: C2_2  and  C3_3 
REMARK       I    between atoms: C3_3  and  N1_5 
REMARK    2  A    between atoms: C5_7  and  C6_8 
REMARK    3  A    between atoms: C6_8  and  O2_9 
REMARK    4  A    between atoms: O2_9  and  C7_10 
REMARK    5  A    between atoms: C17_27  and  O3_28 
ROOT
HETATM    1  C7  UNL     1      24.776   4.906  50.036  1.00  0.00     0.197 A 
HETATM    2  N2  UNL     1      25.365   5.434  48.954  1.00  0.00    -0.037 NA
HETATM    3  C8  UNL     1      24.716   6.468  48.313  1.00  0.00     0.729 A 
HETATM    4  N3  UNL     1      23.525   7.110  48.549  1.00  0.00    -0.074 NA
HETATM    5  C9  UNL     1      22.802   6.676  49.635  1.00  0.00     0.154 A 
HETATM    6  C10 UNL     1      23.783   5.794  49.835  1.00  0.00     0.059 A 
HETATM    7  C11 UNL     1      23.564   5.766  51.319  1.00  0.00     0.065 C 
HETATM    8 CL1  UNL     1      22.824   4.913  52.637  1.00  0.00    -0.082 Cl
HETATM    9  C12 UNL     1      24.261   6.909  51.669  1.00  0.00     0.114 C 
HETATM   10  N4  UNL     1      24.931   7.750  50.731  1.00  0.00    -0.346 N 
HETATM   11  C13 UNL     1      25.977   8.063  49.810  1.00  0.00     0.176 A 
HETATM   12  N5  UNL     1      27.033   8.697  50.314  1.00  0.00    -0.153 NA
HETATM   13  N6  UNL     1      27.953   8.939  49.417  1.00  0.00    -0.281 N 
HETATM   14  C14 UNL     1      29.228   9.604  49.591  1.00  0.00     0.179 C 
HETATM   15  C15 UNL     1      27.408   8.416  48.314  1.00  0.00     0.145 A 
HETATM   16  C16 UNL     1      26.162   7.834  48.434  1.00  0.00     0.114 A 
HETATM   17  N7  UNL     1      25.418   7.199  47.334  1.00  0.00    -0.183 N 
HETATM   18  H11 UNL     1      24.265   8.571  50.752  1.00  0.00     0.167 HD
HETATM   19  H16 UNL     1      25.611   7.450  46.369  1.00  0.00     0.184 HD
ENDROOT
BRANCH   1  20
HETATM   20  O2  UNL     1      25.137   3.904  50.875  1.00  0.00    -0.333 OA
BRANCH  20  21
HETATM   21  C6  UNL     1      26.254   3.103  50.750  1.00  0.00     0.186 C 
BRANCH  21  22
HETATM   22  C5  UNL     1      25.916   1.741  51.367  1.00  0.00     0.058 C 
HETATM   23  C4  UNL     1      24.657   1.878  52.214  1.00  0.00     0.135 C 
HETATM   24  N1  UNL     1      24.943   0.882  53.267  1.00  0.00    -0.346 N 
HETATM   25  C3  UNL     1      24.444  -0.288  53.889  1.00  0.00     0.242 C 
HETATM   26  C19 UNL     1      26.196   1.465  53.697  1.00  0.00     0.158 C 
HETATM   27  O1  UNL     1      24.731  -1.104  54.787  1.00  0.00    -0.268 OA
HETATM   28  C17 UNL     1      27.005   1.452  52.410  1.00  0.00     0.146 C 
BRANCH  25  29
HETATM   29  C2  UNL     1      23.173  -0.779  53.379  1.00  0.00     0.064 C 
HETATM   30  C1  UNL     1      21.847  -0.567  53.438  1.00  0.00     0.017 C 
ENDBRANCH  25  29
BRANCH  28  31
HETATM   31  O3  UNL     1      27.975   2.413  52.392  1.00  0.00    -0.389 OA
HETATM   32  C18 UNL     1      28.707   2.601  53.525  1.00  0.00     0.202 C 
ENDBRANCH  28  31
ENDBRANCH  21  22
ENDBRANCH  20  21
ENDBRANCH   1  20
TORSDOF 5
ENDMDL
MODEL 3
REMARK VINA RESULT:      -7.7      1.554      2.731
REMARK  5 active torsions:
REMARK  status: ('A' for Active; 'I' for Inactive)
REMARK    1  A    between atoms: C2_2  and  C3_3 
REMARK       I    between atoms: C3_3  and  N1_5 
REMARK    2  A    between atoms: C5_7  and  C6_8 
REMARK    3  A    between atoms: C6_8  and  O2_9 
REMARK    4  A    between atoms: O2_9  and  C7_10 
REMARK    5  A    between atoms: C17_27  and  O3_28 
ROOT
HETATM    1  C7  UNL     1      25.026   4.208  50.842  1.00  0.00     0.197 A 
HETATM    2  N2  UNL     1      23.875   4.371  51.509  1.00  0.00    -0.037 NA
HETATM    3  C8  UNL     1      23.365   5.649  51.602  1.00  0.00     0.729 A 
HETATM    4  N3  UNL     1      23.808   6.865  51.141  1.00  0.00    -0.074 NA
HETATM    5  C9  UNL     1      24.986   6.858  50.433  1.00  0.00     0.154 A 
HETATM    6  C10 UNL     1      25.008   5.539  50.637  1.00  0.00     0.059 A 
HETATM    7  C11 UNL     1      25.752   5.274  49.362  1.00  0.00     0.065 C 
HETATM    8 CL1  UNL     1      27.306   4.970  48.653  1.00  0.00    -0.082 Cl
HETATM    9  C12 UNL     1      24.692   5.311  48.473  1.00  0.00     0.114 C 
HETATM   10  N4  UNL     1      23.339   5.555  48.858  1.00  0.00    -0.346 N 
HETATM   11  C13 UNL     1      22.097   5.199  49.466  1.00  0.00     0.176 A 
HETATM   12  N5  UNL     1      21.198   4.623  48.671  1.00  0.00    -0.153 NA
HETATM   13  N6  UNL     1      20.093   4.315  49.297  1.00  0.00    -0.281 N 
HETATM   14  C14 UNL     1      18.903   3.682  48.766  1.00  0.00     0.179 C 
HETATM   15  C15 UNL     1      20.353   4.734  50.539  1.00  0.00     0.145 A 
HETATM   16  C16 UNL     1      21.586   5.310  50.772  1.00  0.00     0.114 A 
HETATM   17  N7  UNL     1      22.048   5.816  52.075  1.00  0.00    -0.183 N 
HETATM   18  H11 UNL     1      23.241   6.536  48.476  1.00  0.00     0.167 HD
HETATM   19  H16 UNL     1      21.380   6.086  52.790  1.00  0.00     0.184 HD
ENDROOT
BRANCH   1  20
HETATM   20  O2  UNL     1      25.779   3.113  50.573  1.00  0.00    -0.333 OA
BRANCH  20  21
HETATM   21  C6  UNL     1      26.793   2.611  51.363  1.00  0.00     0.186 C 
BRANCH  21  22
HETATM   22  C5  UNL     1      26.296   1.294  51.971  1.00  0.00     0.058 C 
HETATM   23  C4  UNL     1      25.127   1.587  52.902  1.00  0.00     0.135 C 
HETATM   24  N1  UNL     1      25.327   0.527  53.911  1.00  0.00    -0.346 N 
HETATM   25  C3  UNL     1      24.700  -0.576  54.539  1.00  0.00     0.242 C 
HETATM   26  C19 UNL     1      26.677   0.906  54.270  1.00  0.00     0.158 C 
HETATM   27  O1  UNL     1      24.919  -1.454  55.397  1.00  0.00    -0.268 OA
HETATM   28  C17 UNL     1      27.393   0.816  52.932  1.00  0.00     0.146 C 
BRANCH  25  29
HETATM   29  C2  UNL     1      23.341  -0.859  54.103  1.00  0.00     0.064 C 
HETATM   30  C1  UNL     1      22.139  -1.259  54.553  1.00  0.00     0.017 C 
ENDBRANCH  25  29
BRANCH  28  31
HETATM   31  O3  UNL     1      28.492   1.624  52.871  1.00  0.00    -0.389 OA
HETATM   32  C18 UNL     1      29.142   1.905  54.035  1.00  0.00     0.202 C 
ENDBRANCH  28  31
ENDBRANCH  21  22
ENDBRANCH  20  21
ENDBRANCH   1  20
TORSDOF 5
ENDMDL
MODEL 4
REMARK VINA RESULT:      -7.6      3.118      4.929
REMARK  5 active torsions:
REMARK  status: ('A' for Active; 'I' for Inactive)
REMARK    1  A    between atoms: C2_2  and  C3_3 
REMARK       I    between atoms: C3_3  and  N1_5 
REMARK    2  A    between atoms: C5_7  and  C6_8 
REMARK    3  A    between atoms: C6_8  and  O2_9 
REMARK    4  A    between atoms: O2_9  and  C7_10 
REMARK    5  A    between atoms: C17_27  and  O3_28 
ROOT
HETATM    1  C7  UNL     1      21.862   0.780  51.182  1.00  0.00     0.197 A 
HETATM    2  N2  UNL     1      22.147   1.554  50.126  1.00  0.00    -0.037 NA
HETATM    3  C8  UNL     1      21.114   1.878  49.272  1.00  0.00     0.729 A 
HETATM    4  N3  UNL     1      19.779   1.556  49.261  1.00  0.00    -0.074 NA
HETATM    5  C9  UNL     1      19.333   0.761  50.290  1.00  0.00     0.154 A 
HETATM    6  C10 UNL     1      20.591   0.769  50.735  1.00  0.00     0.059 A 
HETATM    7  C11 UNL     1      20.171   0.617  52.167  1.00  0.00     0.065 C 
HETATM    8 CL1  UNL     1      19.945  -0.496  53.478  1.00  0.00    -0.082 Cl
HETATM    9  C12 UNL     1      19.862   1.936  52.449  1.00  0.00     0.114 C 
HETATM   10  N4  UNL     1      19.973   2.999  51.503  1.00  0.00    -0.346 N 
HETATM   11  C13 UNL     1      20.703   3.923  50.694  1.00  0.00     0.176 A 
HETATM   12  N5  UNL     1      20.962   5.107  51.243  1.00  0.00    -0.153 NA
HETATM   13  N6  UNL     1      21.642   5.894  50.450  1.00  0.00    -0.281 N 
HETATM   14  C14 UNL     1      22.101   7.245  50.701  1.00  0.00     0.179 C 
HETATM   15  C15 UNL     1      21.795   5.129  49.366  1.00  0.00     0.145 A 
HETATM   16  C16 UNL     1      21.247   3.862  49.398  1.00  0.00     0.114 A 
HETATM   17  N7  UNL     1      21.328   2.879  48.305  1.00  0.00    -0.183 N 
HETATM   18  H11 UNL     1      18.943   3.161  51.325  1.00  0.00     0.167 HD
HETATM   19  H16 UNL     1      21.486   3.184  47.348  1.00  0.00     0.184 HD
ENDROOT
BRANCH   1  20
HETATM   20  O2  UNL     1      22.627   0.289  52.188  1.00  0.00    -0.333 OA
BRANCH  20  21
HETATM   21  C6  UNL     1      23.413   1.030  53.046  1.00  0.00     0.186 C 
BRANCH  21  22
HETATM   22  C5  UNL     1      24.878   0.751  52.687  1.00  0.00     0.058 C 
HETATM   23  C4  UNL     1      25.655   0.465  53.965  1.00  0.00     0.135 C 
HETATM   24  N1  UNL     1      26.975   1.017  53.595  1.00  0.00    -0.346 N 
HETATM   25  C3  UNL     1      28.346   0.692  53.466  1.00  0.00     0.242 C 
HETATM   26  C19 UNL     1      26.505   2.353  53.293  1.00  0.00     0.158 C 
HETATM   27  O1  UNL     1      29.436   1.204  53.142  1.00  0.00    -0.268 OA
HETATM   28  C17 UNL     1      25.472   2.084  52.211  1.00  0.00     0.146 C 
BRANCH  25  29
HETATM   29  C2  UNL     1      28.702  -0.678  53.803  1.00  0.00     0.064 C 
HETATM   30  C1  UNL     1      29.272  -1.785  53.298  1.00  0.00     0.017 C 
ENDBRANCH  25  29
BRANCH  28  31
HETATM   31  O3  UNL     1      24.517   3.057  52.147  1.00  0.00    -0.389 OA
HETATM   32  C18 UNL     1      24.618   3.986  51.154  1.00  0.00     0.202 C 
ENDBRANCH  28  31
ENDBRANCH  21  22
ENDBRANCH  20  21
ENDBRANCH   1  20
TORSDOF 5
ENDMDL
MODEL 5
REMARK VINA RESULT:      -7.6      3.145      5.806
REMARK  5 active torsions:
REMARK  status: ('A' for Active; 'I' for Inactive)
REMARK    1  A    between atoms: C2_2  and  C3_3 
REMARK       I    between atoms: C3_3  and  N1_5 
REMARK    2  A    between atoms: C5_7  and  C6_8 
REMARK    3  A    between atoms: C6_8  and  O2_9 
REMARK    4  A    between atoms: O2_9  and  C7_10 
REMARK    5  A    between atoms: C17_27  and  O3_28 
ROOT
HETATM    1  C7  UNL     1      23.162   4.075  49.472  1.00  0.00     0.197 A 
HETATM    2  N2  UNL     1      24.250   3.310  49.305  1.00  0.00    -0.037 NA
HETATM    3  C8  UNL     1      25.473   3.862  49.620  1.00  0.00     0.729 A 
HETATM    4  N3  UNL     1      25.845   5.099  50.087  1.00  0.00    -0.074 NA
HETATM    5  C9  UNL     1      24.831   5.999  50.308  1.00  0.00     0.154 A 
HETATM    6  C10 UNL     1      23.999   5.042  49.892  1.00  0.00     0.059 A 
HETATM    7  C11 UNL     1      22.871   5.539  50.746  1.00  0.00     0.065 C 
HETATM    8 CL1  UNL     1      21.416   6.485  50.782  1.00  0.00    -0.082 Cl
HETATM    9  C12 UNL     1      23.234   4.963  51.951  1.00  0.00     0.114 C 
HETATM   10  N4  UNL     1      24.398   4.158  52.129  1.00  0.00    -0.346 N 
HETATM   11  C13 UNL     1      25.170   2.967  51.962  1.00  0.00     0.176 A 
HETATM   12  N5  UNL     1      25.049   2.050  52.918  1.00  0.00    -0.153 NA
HETATM   13  N6  UNL     1      25.774   0.986  52.692  1.00  0.00    -0.281 N 
HETATM   14  C14 UNL     1      25.899  -0.208  53.504  1.00  0.00     0.179 C 
HETATM   15  C15 UNL     1      26.360   1.292  51.531  1.00  0.00     0.145 A 
HETATM   16  C16 UNL     1      26.058   2.516  50.968  1.00  0.00     0.114 A 
HETATM   17  N7  UNL     1      26.596   3.014  49.691  1.00  0.00    -0.183 N 
HETATM   18  H11 UNL     1      24.983   4.845  52.681  1.00  0.00     0.167 HD
HETATM   19  H16 UNL     1      27.470   2.649  49.323  1.00  0.00     0.184 HD
ENDROOT
BRANCH   1  20
HETATM   20  O2  UNL     1      21.842   3.844  49.261  1.00  0.00    -0.333 OA
BRANCH  20  21
HETATM   21  C6  UNL     1      21.229   2.609  49.232  1.00  0.00     0.186 C 
BRANCH  21  22
HETATM   22  C5  UNL     1      21.063   2.142  50.683  1.00  0.00     0.058 C 
HETATM   23  C4  UNL     1      21.586   0.717  50.809  1.00  0.00     0.135 C 
HETATM   24  N1  UNL     1      20.681   0.199  51.856  1.00  0.00    -0.346 N 
HETATM   25  C3  UNL     1      20.653  -0.396  53.140  1.00  0.00     0.242 C 
HETATM   26  C19 UNL     1      19.450   0.479  51.149  1.00  0.00     0.158 C 
HETATM   27  O1  UNL     1      19.847  -0.818  53.993  1.00  0.00    -0.268 OA
HETATM   28  C17 UNL     1      19.554   1.978  50.919  1.00  0.00     0.146 C 
BRANCH  25  29
HETATM   29  C2  UNL     1      21.951  -0.636  53.751  1.00  0.00     0.064 C 
HETATM   30  C1  UNL     1      22.534  -1.149  54.848  1.00  0.00     0.017 C 
ENDBRANCH  25  29
BRANCH  28  31
HETATM   31  O3  UNL     1      18.836   2.393  49.835  1.00  0.00    -0.389 OA
HETATM   32  C18 UNL     1      17.682   1.730  49.543  1.00  0.00     0.202 C 
ENDBRANCH  28  31
ENDBRANCH  21  22
ENDBRANCH  20  21
ENDBRANCH   1  20
TORSDOF 5
ENDMDL
MODEL 6
REMARK VINA RESULT:      -7.5      1.976      2.578
REMARK  5 active torsions:
REMARK  status: ('A' for Active; 'I' for Inactive)
REMARK    1  A    between atoms: C2_2  and  C3_3 
REMARK       I    between atoms: C3_3  and  N1_5 
REMARK    2  A    between atoms: C5_7  and  C6_8 
REMARK    3  A    between atoms: C6_8  and  O2_9 
REMARK    4  A    between atoms: O2_9  and  C7_10 
REMARK    5  A    between atoms: C17_27  and  O3_28 
ROOT
HETATM    1  C7  UNL     1      22.655   3.101  50.882  1.00  0.00     0.197 A 
HETATM    2  N2  UNL     1      21.329   3.290  50.837  1.00  0.00    -0.037 NA
HETATM    3  C8  UNL     1      20.868   4.589  50.809  1.00  0.00     0.729 A 
HETATM    4  N3  UNL     1      21.508   5.805  50.827  1.00  0.00    -0.074 NA
HETATM    5  C9  UNL     1      22.881   5.773  50.873  1.00  0.00     0.154 A 
HETATM    6  C10 UNL     1      22.770   4.443  50.878  1.00  0.00     0.059 A 
HETATM    7  C11 UNL     1      24.086   4.250  50.184  1.00  0.00     0.065 C 
HETATM    8 CL1  UNL     1      25.771   3.892  50.391  1.00  0.00    -0.082 Cl
HETATM    9  C12 UNL     1      23.682   4.469  48.878  1.00  0.00     0.114 C 
HETATM   10  N4  UNL     1      22.342   4.784  48.502  1.00  0.00    -0.346 N 
HETATM   11  C13 UNL     1      20.964   4.473  48.289  1.00  0.00     0.176 A 
HETATM   12  N5  UNL     1      20.637   4.060  47.067  1.00  0.00    -0.153 NA
HETATM   13  N6  UNL     1      19.365   3.783  46.951  1.00  0.00    -0.281 N 
HETATM   14  C14 UNL     1      18.649   3.311  45.783  1.00  0.00     0.179 C 
HETATM   15  C15 UNL     1      18.911   4.047  48.180  1.00  0.00     0.145 A 
HETATM   16  C16 UNL     1      19.825   4.490  49.115  1.00  0.00     0.114 A 
HETATM   17  N7  UNL     1      19.509   4.816  50.515  1.00  0.00    -0.183 N 
HETATM   18  H11 UNL     1      22.481   5.804  48.261  1.00  0.00     0.167 HD
HETATM   19  H16 UNL     1      18.562   5.065  50.786  1.00  0.00     0.184 HD
ENDROOT
BRANCH   1  20
HETATM   20  O2  UNL     1      23.417   1.980  50.918  1.00  0.00    -0.333 OA
BRANCH  20  21
HETATM   21  C6  UNL     1      23.284   0.937  51.810  1.00  0.00     0.186 C 
BRANCH  21  22
HETATM   22  C5  UNL     1      24.439   1.037  52.814  1.00  0.00     0.058 C 
HETATM   23  C4  UNL     1      25.744   0.701  52.104  1.00  0.00     0.135 C 
HETATM   24  N1  UNL     1      26.489   0.072  53.214  1.00  0.00    -0.346 N 
HETATM   25  C3  UNL     1      27.683   0.152  53.970  1.00  0.00     0.242 C 
HETATM   26  C19 UNL     1      25.509  -0.956  53.496  1.00  0.00     0.158 C 
HETATM   27  O1  UNL     1      28.270  -0.412  54.914  1.00  0.00    -0.268 OA
HETATM   28  C17 UNL     1      24.268  -0.131  53.795  1.00  0.00     0.146 C 
BRANCH  25  29
HETATM   29  C2  UNL     1      28.595   1.221  53.593  1.00  0.00     0.064 C 
HETATM   30  C1  UNL     1      28.732   2.557  53.602  1.00  0.00     0.017 C 
ENDBRANCH  25  29
BRANCH  28  31
HETATM   31  O3  UNL     1      23.112  -0.817  53.551  1.00  0.00    -0.389 OA
HETATM   32  C18 UNL     1      22.261  -1.024  54.595  1.00  0.00     0.202 C 
ENDBRANCH  28  31
ENDBRANCH  21  22
ENDBRANCH  20  21
ENDBRANCH   1  20
TORSDOF 5
ENDMDL
MODEL 7
REMARK VINA RESULT:      -7.3      6.321      8.041
REMARK  5 active torsions:
REMARK  status: ('A' for Active; 'I' for Inactive)
REMARK    1  A    between atoms: C2_2  and  C3_3 
REMARK       I    between atoms: C3_3  and  N1_5 
REMARK    2  A    between atoms: C5_7  and  C6_8 
REMARK    3  A    between atoms: C6_8  and  O2_9 
REMARK    4  A    between atoms: O2_9  and  C7_10 
REMARK    5  A    between atoms: C17_27  and  O3_28 
ROOT
HETATM    1  C7  UNL     1      29.683   8.883  48.265  1.00  0.00     0.197 A 
HETATM    2  N2  UNL     1      28.991   8.596  49.376  1.00  0.00    -0.037 NA
HETATM    3  C8  UNL     1      27.988   9.466  49.747  1.00  0.00     0.729 A 
HETATM    4  N3  UNL     1      27.519  10.636  49.200  1.00  0.00    -0.074 NA
HETATM    5  C9  UNL     1      28.134  11.061  48.047  1.00  0.00     0.154 A 
HETATM    6  C10 UNL     1      28.906   9.977  48.154  1.00  0.00     0.059 A 
HETATM    7  C11 UNL     1      29.097   9.867  46.671  1.00  0.00     0.065 C 
HETATM    8 CL1  UNL     1      30.150  10.217  45.337  1.00  0.00    -0.082 Cl
HETATM    9  C12 UNL     1      27.915   9.226  46.341  1.00  0.00     0.114 C 
HETATM   10  N4  UNL     1      26.917   8.861  47.293  1.00  0.00    -0.346 N 
HETATM   11  C13 UNL     1      26.397   8.074  48.366  1.00  0.00     0.176 A 
HETATM   12  N5  UNL     1      25.690   7.002  48.020  1.00  0.00    -0.153 NA
HETATM   13  N6  UNL     1      25.257   6.326  49.052  1.00  0.00    -0.281 N 
HETATM   14  C14 UNL     1      24.463   5.115  49.067  1.00  0.00     0.179 C 
HETATM   15  C15 UNL     1      25.738   7.043  50.072  1.00  0.00     0.145 A 
HETATM   16  C16 UNL     1      26.475   8.170  49.768  1.00  0.00     0.114 A 
HETATM   17  N7  UNL     1      27.090   9.068  50.758  1.00  0.00    -0.183 N 
HETATM   18  H11 UNL     1      26.187   9.584  47.042  1.00  0.00     0.167 HD
HETATM   19  H16 UNL     1      26.731   9.114  51.707  1.00  0.00     0.184 HD
ENDROOT
BRANCH   1  20
HETATM   20  O2  UNL     1      30.707   8.252  47.639  1.00  0.00    -0.333 OA
BRANCH  20  21
HETATM   21  C6  UNL     1      31.960   8.020  48.166  1.00  0.00     0.186 C 
BRANCH  21  22
HETATM   22  C5  UNL     1      32.501   6.736  47.522  1.00  0.00     0.058 C 
HETATM   23  C4  UNL     1      32.547   5.636  48.574  1.00  0.00     0.135 C 
HETATM   24  N1  UNL     1      33.724   4.877  48.105  1.00  0.00    -0.346 N 
HETATM   25  C3  UNL     1      34.159   3.596  47.690  1.00  0.00     0.242 C 
HETATM   26  C19 UNL     1      34.652   5.988  48.150  1.00  0.00     0.158 C 
HETATM   27  O1  UNL     1      35.181   3.001  47.295  1.00  0.00    -0.268 OA
HETATM   28  C17 UNL     1      33.985   6.990  47.223  1.00  0.00     0.146 C 
BRANCH  25  29
HETATM   29  C2  UNL     1      33.141   2.556  47.691  1.00  0.00     0.064 C 
HETATM   30  C1  UNL     1      32.627   1.567  46.939  1.00  0.00     0.017 C 
ENDBRANCH  25  29
BRANCH  28  31
HETATM   31  O3  UNL     1      34.334   8.279  47.507  1.00  0.00    -0.389 OA
HETATM   32  C18 UNL     1      35.523   8.494  48.138  1.00  0.00     0.202 C 
ENDBRANCH  28  31
ENDBRANCH  21  22
ENDBRANCH  20  21
ENDBRANCH   1  20
TORSDOF 5
ENDMDL
MODEL 8
REMARK VINA RESULT:      -7.3      2.214      3.836
REMARK  5 active torsions:
REMARK  status: ('A' for Active; 'I' for Inactive)
REMARK    1  A    between atoms: C2_2  and  C3_3 
REMARK       I    between atoms: C3_3  and  N1_5 
REMARK    2  A    between atoms: C5_7  and  C6_8 
REMARK    3  A    between atoms: C6_8  and  O2_9 
REMARK    4  A    between atoms: O2_9  and  C7_10 
REMARK    5  A    between atoms: C17_27  and  O3_28 
ROOT
HETATM    1  C7  UNL     1      22.707   3.433  50.439  1.00  0.00     0.197 A 
HETATM    2  N2  UNL     1      23.384   3.983  49.421  1.00  0.00    -0.037 NA
HETATM    3  C8  UNL     1      22.680   4.772  48.537  1.00  0.00     0.729 A 
HETATM    4  N3  UNL     1      21.357   5.135  48.461  1.00  0.00    -0.074 NA
HETATM    5  C9  UNL     1      20.531   4.644  49.444  1.00  0.00     0.154 A 
HETATM    6  C10 UNL     1      21.613   4.041  49.940  1.00  0.00     0.059 A 
HETATM    7  C11 UNL     1      21.099   4.097  51.348  1.00  0.00     0.065 C 
HETATM    8 CL1  UNL     1      20.298   3.219  52.612  1.00  0.00    -0.082 Cl
HETATM    9  C12 UNL     1      21.449   5.399  51.660  1.00  0.00     0.114 C 
HETATM   10  N4  UNL     1      22.106   6.285  50.755  1.00  0.00    -0.346 N 
HETATM   11  C13 UNL     1      23.232   6.749  50.007  1.00  0.00     0.176 A 
HETATM   12  N5  UNL     1      24.000   7.657  50.605  1.00  0.00    -0.153 NA
HETATM   13  N6  UNL     1      25.014   8.025  49.867  1.00  0.00    -0.281 N 
HETATM   14  C14 UNL     1      26.054   8.984  50.179  1.00  0.00     0.179 C 
HETATM   15  C15 UNL     1      24.836   7.291  48.765  1.00  0.00     0.145 A 
HETATM   16  C16 UNL     1      23.745   6.445  48.733  1.00  0.00     0.114 A 
HETATM   17  N7  UNL     1      23.400   5.555  47.612  1.00  0.00    -0.183 N 
HETATM   18  H11 UNL     1      21.292   6.925  50.541  1.00  0.00     0.167 HD
HETATM   19  H16 UNL     1      23.733   5.754  46.674  1.00  0.00     0.184 HD
ENDROOT
BRANCH   1  20
HETATM   20  O2  UNL     1      23.089   2.625  51.459  1.00  0.00    -0.333 OA
BRANCH  20  21
HETATM   21  C6  UNL     1      23.813   1.457  51.341  1.00  0.00     0.186 C 
BRANCH  21  22
HETATM   22  C5  UNL     1      24.820   1.420  52.498  1.00  0.00     0.058 C 
HETATM   23  C4  UNL     1      26.176   0.980  51.961  1.00  0.00     0.135 C 
HETATM   24  N1  UNL     1      26.697   0.253  53.137  1.00  0.00    -0.346 N 
HETATM   25  C3  UNL     1      27.775   0.199  54.052  1.00  0.00     0.242 C 
HETATM   26  C19 UNL     1      25.599  -0.684  53.240  1.00  0.00     0.158 C 
HETATM   27  O1  UNL     1      28.171  -0.444  55.045  1.00  0.00    -0.268 OA
HETATM   28  C17 UNL     1      24.407   0.247  53.398  1.00  0.00     0.146 C 
BRANCH  25  29
HETATM   29  C2  UNL     1      28.825   1.185  53.848  1.00  0.00     0.064 C 
HETATM   30  C1  UNL     1      29.038   2.508  53.744  1.00  0.00     0.017 C 
ENDBRANCH  25  29
BRANCH  28  31
HETATM   31  O3  UNL     1      23.240  -0.319  52.971  1.00  0.00    -0.389 OA
HETATM   32  C18 UNL     1      22.390  -0.815  53.912  1.00  0.00     0.202 C 
ENDBRANCH  28  31
ENDBRANCH  21  22
ENDBRANCH  20  21
ENDBRANCH   1  20
TORSDOF 5
ENDMDL
MODEL 9
REMARK VINA RESULT:      -7.1      2.131      4.007
REMARK  5 active torsions:
REMARK  status: ('A' for Active; 'I' for Inactive)
REMARK    1  A    between atoms: C2_2  and  C3_3 
REMARK       I    between atoms: C3_3  and  N1_5 
REMARK    2  A    between atoms: C5_7  and  C6_8 
REMARK    3  A    between atoms: C6_8  and  O2_9 
REMARK    4  A    between atoms: O2_9  and  C7_10 
REMARK    5  A    between atoms: C17_27  and  O3_28 
ROOT
HETATM    1  C7  UNL     1      24.853   5.512  49.620  1.00  0.00     0.197 A 
HETATM    2  N2  UNL     1      25.329   6.107  48.518  1.00  0.00    -0.037 NA
HETATM    3  C8  UNL     1      24.485   6.953  47.832  1.00  0.00     0.729 A 
HETATM    4  N3  UNL     1      23.182   7.338  48.038  1.00  0.00    -0.074 NA
HETATM    5  C9  UNL     1      22.554   6.807  49.139  1.00  0.00     0.154 A 
HETATM    6  C10 UNL     1      23.697   6.161  49.379  1.00  0.00     0.059 A 
HETATM    7  C11 UNL     1      23.472   6.148  50.862  1.00  0.00     0.065 C 
HETATM    8 CL1  UNL     1      22.913   5.214  52.214  1.00  0.00    -0.082 Cl
HETATM    9  C12 UNL     1      23.908   7.426  51.165  1.00  0.00     0.114 C 
HETATM   10  N4  UNL     1      24.397   8.351  50.193  1.00  0.00    -0.346 N 
HETATM   11  C13 UNL     1      25.364   8.839  49.263  1.00  0.00     0.176 A 
HETATM   12  N5  UNL     1      26.257   9.701  49.742  1.00  0.00    -0.153 NA
HETATM   13  N6  UNL     1      27.115  10.095  48.837  1.00  0.00    -0.281 N 
HETATM   14  C14 UNL     1      28.220  11.020  48.986  1.00  0.00     0.179 C 
HETATM   15  C15 UNL     1      26.705   9.424  47.757  1.00  0.00     0.145 A 
HETATM   16  C16 UNL     1      25.609   8.597  47.898  1.00  0.00     0.114 A 
HETATM   17  N7  UNL     1      25.028   7.775  46.824  1.00  0.00    -0.183 N 
HETATM   18  H11 UNL     1      23.573   9.013  50.177  1.00  0.00     0.167 HD
HETATM   19  H16 UNL     1      25.175   8.021  45.850  1.00  0.00     0.184 HD
ENDROOT
BRANCH   1  20
HETATM   20  O2  UNL     1      25.407   4.644  50.503  1.00  0.00    -0.333 OA
BRANCH  20  21
HETATM   21  C6  UNL     1      25.448   3.271  50.374  1.00  0.00     0.186 C 
BRANCH  21  22
HETATM   22  C5  UNL     1      25.639   2.681  51.777  1.00  0.00     0.058 C 
HETATM   23  C4  UNL     1      26.679   1.570  51.710  1.00  0.00     0.135 C 
HETATM   24  N1  UNL     1      26.166   0.672  52.765  1.00  0.00    -0.346 N 
HETATM   25  C3  UNL     1      26.513   0.029  53.977  1.00  0.00     0.242 C 
HETATM   26  C19 UNL     1      24.850   0.493  52.190  1.00  0.00     0.158 C 
HETATM   27  O1  UNL     1      26.033  -0.730  54.842  1.00  0.00    -0.268 OA
HETATM   28  C17 UNL     1      24.345   1.925  52.111  1.00  0.00     0.146 C 
BRANCH  25  29
HETATM   29  C2  UNL     1      27.864   0.276  54.456  1.00  0.00     0.064 C 
HETATM   30  C1  UNL     1      29.144  -0.086  54.267  1.00  0.00     0.017 C 
ENDBRANCH  25  29
BRANCH  28  31
HETATM   31  O3  UNL     1      23.405   2.096  51.136  1.00  0.00    -0.389 OA
HETATM   32  C18 UNL     1      22.345   1.240  51.115  1.00  0.00     0.202 C 
ENDBRANCH  28  31
ENDBRANCH  21  22
ENDBRANCH  20  21
ENDBRANCH   1  20
TORSDOF 5
ENDMDL
