MODEL 1
REMARK VINA RESULT:      -7.0      0.000      0.000
REMARK  9 active torsions:
REMARK  status: ('A' for Active; 'I' for Inactive)
REMARK    1  A    between atoms: C2_2  and  C3_3 
REMARK    2  A    between atoms: C4_4  and  C5_5 
REMARK    3  A    between atoms: C4_4  and  O2_16 
REMARK    4  A    between atoms: C5_5  and  C6_6 
REMARK    5  A    between atoms: C6_6  and  C7_7 
REMARK    6  A    between atoms: C7_7  and  C8_9 
REMARK    7  A    between atoms: C8_9  and  N1_10 
REMARK    8  A    between atoms: O2_16  and  C14_17 
REMARK    9  A    between atoms: C14_17  and  C15_18 
ROOT
HETATM    1  C3  UNL     1      25.540   3.135  50.791  1.00  0.00     0.005 C 
HETATM    2  C4  UNL     1      25.372   2.726  52.062  1.00  0.00     0.043 C 
ENDROOT
BRANCH   2   3
HETATM    3  C5  UNL     1      24.165   3.087  52.868  1.00  0.00     0.071 C 
BRANCH   3   4
HETATM    4  C6  UNL     1      23.120   3.623  51.914  1.00  0.00     0.086 C 
BRANCH   4   5
HETATM    5  C7  UNL     1      22.064   2.613  51.596  1.00  0.00     0.155 C 
HETATM    6  O1  UNL     1      21.875   2.576  50.401  1.00  0.00    -0.296 OA
BRANCH   5   7
HETATM    7  C8  UNL     1      21.450   1.863  52.706  1.00  0.00     0.350 C 
BRANCH   7   8
HETATM    8  N1  UNL     1      21.264   0.472  52.437  1.00  0.00     0.095 N 
HETATM    9  C9  UNL     1      20.438  -0.064  53.500  1.00  0.00     0.273 C 
HETATM   10  C10 UNL     1      21.122  -0.157  54.824  1.00  0.00     0.030 C 
HETATM   11  C11 UNL     1      22.388  -0.996  54.713  1.00  0.00     0.003 C 
HETATM   12  C12 UNL     1      23.255  -0.318  53.673  1.00  0.00     0.030 C 
HETATM   13  C13 UNL     1      22.468  -0.307  52.385  1.00  0.00     0.273 C 
ENDBRANCH   7   8
ENDBRANCH   5   7
ENDBRANCH   4   5
ENDBRANCH   3   4
ENDBRANCH   2   3
BRANCH   2  14
HETATM   14  O2  UNL     1      26.558   2.022  52.150  1.00  0.00    -0.351 OA
BRANCH  14  15
HETATM   15  C14 UNL     1      27.455   2.032  53.214  1.00  0.00     0.213 C 
BRANCH  15  16
HETATM   16  C15 UNL     1      28.110   0.684  53.261  1.00  0.00    -0.034 A 
HETATM   17  C16 UNL     1      29.429   0.461  53.622  1.00  0.00     0.009 A 
HETATM   18  C17 UNL     1      29.940  -0.828  53.632  1.00  0.00     0.001 A 
HETATM   19  C18 UNL     1      29.121  -1.903  53.277  1.00  0.00     0.000 A 
HETATM   20  C19 UNL     1      27.798  -1.694  52.913  1.00  0.00     0.001 A 
HETATM   21  C20 UNL     1      27.292  -0.392  52.906  1.00  0.00     0.009 A 
ENDBRANCH  15  16
ENDBRANCH  14  15
ENDBRANCH   2  14
BRANCH   1  22
HETATM   22  C2  UNL     1      26.454   3.086  49.614  1.00  0.00     0.025 C 
HETATM   23  C1  UNL     1      26.841   4.463  49.135  1.00  0.00     0.009 C 
ENDBRANCH   1  22
TORSDOF 9
ENDMDL
MODEL 2
REMARK VINA RESULT:      -6.9      2.031      5.484
REMARK  9 active torsions:
REMARK  status: ('A' for Active; 'I' for Inactive)
REMARK    1  A    between atoms: C2_2  and  C3_3 
REMARK    2  A    between atoms: C4_4  and  C5_5 
REMARK    3  A    between atoms: C4_4  and  O2_16 
REMARK    4  A    between atoms: C5_5  and  C6_6 
REMARK    5  A    between atoms: C6_6  and  C7_7 
REMARK    6  A    between atoms: C7_7  and  C8_9 
REMARK    7  A    between atoms: C8_9  and  N1_10 
REMARK    8  A    between atoms: O2_16  and  C14_17 
REMARK    9  A    between atoms: C14_17  and  C15_18 
ROOT
HETATM    1  C3  UNL     1      27.789   0.890  53.973  1.00  0.00     0.005 C 
HETATM    2  C4  UNL     1      26.533   1.183  53.590  1.00  0.00     0.043 C 
ENDROOT
BRANCH   2   3
HETATM    3  C5  UNL     1      26.196   2.425  52.829  1.00  0.00     0.071 C 
BRANCH   3   4
HETATM    4  C6  UNL     1      26.859   2.326  51.473  1.00  0.00     0.086 C 
BRANCH   4   5
HETATM    5  C7  UNL     1      26.144   3.122  50.427  1.00  0.00     0.155 C 
HETATM    6  O1  UNL     1      26.945   3.712  49.737  1.00  0.00    -0.296 OA
BRANCH   5   7
HETATM    7  C8  UNL     1      24.671   3.076  50.392  1.00  0.00     0.350 C 
BRANCH   7   8
HETATM    8  N1  UNL     1      24.054   4.341  50.149  1.00  0.00     0.095 N 
HETATM    9  C9  UNL     1      24.001   5.043  51.415  1.00  0.00     0.273 C 
HETATM   10  C10 UNL     1      23.026   4.477  52.394  1.00  0.00     0.030 C 
HETATM   11  C11 UNL     1      21.628   4.439  51.792  1.00  0.00     0.003 C 
HETATM   12  C12 UNL     1      21.729   3.595  50.538  1.00  0.00     0.030 C 
HETATM   13  C13 UNL     1      22.718   4.280  49.628  1.00  0.00     0.273 C 
ENDBRANCH   7   8
ENDBRANCH   5   7
ENDBRANCH   4   5
ENDBRANCH   3   4
ENDBRANCH   2   3
BRANCH   2  14
HETATM   14  O2  UNL     1      25.947   0.053  54.128  1.00  0.00    -0.351 OA
BRANCH  14  15
HETATM   15  C14 UNL     1      25.143  -0.867  53.460  1.00  0.00     0.213 C 
BRANCH  15  16
HETATM   16  C15 UNL     1      23.721  -0.424  53.627  1.00  0.00    -0.034 A 
HETATM   17  C16 UNL     1      23.089   0.514  52.826  1.00  0.00     0.009 A 
HETATM   18  C17 UNL     1      21.766   0.857  53.066  1.00  0.00     0.001 A 
HETATM   19  C18 UNL     1      21.071   0.252  54.116  1.00  0.00     0.000 A 
HETATM   20  C19 UNL     1      21.692  -0.688  54.926  1.00  0.00     0.001 A 
HETATM   21  C20 UNL     1      23.025  -1.027  54.677  1.00  0.00     0.009 A 
ENDBRANCH  15  16
ENDBRANCH  14  15
ENDBRANCH   2  14
BRANCH   1  22
HETATM   22  C2  UNL     1      28.637  -0.110  54.685  1.00  0.00     0.025 C 
HETATM   23  C1  UNL     1      29.575  -0.832  53.750  1.00  0.00     0.009 C 
ENDBRANCH   1  22
TORSDOF 9
ENDMDL
MODEL 3
REMARK VINA RESULT:      -6.9      2.159      3.152
REMARK  9 active torsions:
REMARK  status: ('A' for Active; 'I' for Inactive)
REMARK    1  A    between atoms: C2_2  and  C3_3 
REMARK    2  A    between atoms: C4_4  and  C5_5 
REMARK    3  A    between atoms: C4_4  and  O2_16 
REMARK    4  A    between atoms: C5_5  and  C6_6 
REMARK    5  A    between atoms: C6_6  and  C7_7 
REMARK    6  A    between atoms: C7_7  and  C8_9 
REMARK    7  A    between atoms: C8_9  and  N1_10 
REMARK    8  A    between atoms: O2_16  and  C14_17 
REMARK    9  A    between atoms: C14_17  and  C15_18 
ROOT
HETATM    1  C3  UNL     1      25.870   3.258  50.454  1.00  0.00     0.005 C 
HETATM    2  C4  UNL     1      25.747   2.549  51.590  1.00  0.00     0.043 C 
ENDROOT
BRANCH   2   3
HETATM    3  C5  UNL     1      24.426   2.318  52.254  1.00  0.00     0.071 C 
BRANCH   3   4
HETATM    4  C6  UNL     1      23.852   3.670  52.615  1.00  0.00     0.086 C 
BRANCH   4   5
HETATM    5  C7  UNL     1      22.457   3.852  52.109  1.00  0.00     0.155 C 
HETATM    6  O1  UNL     1      22.034   4.937  52.442  1.00  0.00    -0.296 OA
BRANCH   5   7
HETATM    7  C8  UNL     1      21.842   2.761  51.333  1.00  0.00     0.350 C 
BRANCH   7   8
HETATM    8  N1  UNL     1      21.121   3.200  50.180  1.00  0.00     0.095 N 
HETATM    9  C9  UNL     1      20.460   2.039  49.619  1.00  0.00     0.273 C 
HETATM   10  C10 UNL     1      21.382   1.057  48.975  1.00  0.00     0.030 C 
HETATM   11  C11 UNL     1      22.204   1.731  47.885  1.00  0.00     0.003 C 
HETATM   12  C12 UNL     1      22.957   2.859  48.558  1.00  0.00     0.030 C 
HETATM   13  C13 UNL     1      21.922   3.789  49.145  1.00  0.00     0.273 C 
ENDBRANCH   7   8
ENDBRANCH   5   7
ENDBRANCH   4   5
ENDBRANCH   3   4
ENDBRANCH   2   3
BRANCH   2  14
HETATM   14  O2  UNL     1      27.092   2.263  51.732  1.00  0.00    -0.351 OA
BRANCH  14  15
HETATM   15  C14 UNL     1      27.788   2.103  52.928  1.00  0.00     0.213 C 
BRANCH  15  16
HETATM   16  C15 UNL     1      28.166   0.657  53.037  1.00  0.00    -0.034 A 
HETATM   17  C16 UNL     1      27.326  -0.402  52.730  1.00  0.00     0.009 A 
HETATM   18  C17 UNL     1      27.774  -1.708  52.867  1.00  0.00     0.001 A 
HETATM   19  C18 UNL     1      29.075  -1.953  53.313  1.00  0.00     0.000 A 
HETATM   20  C19 UNL     1      29.926  -0.902  53.624  1.00  0.00     0.001 A 
HETATM   21  C20 UNL     1      29.467   0.410  53.483  1.00  0.00     0.009 A 
ENDBRANCH  15  16
ENDBRANCH  14  15
ENDBRANCH   2  14
BRANCH   1  22
HETATM   22  C2  UNL     1      26.840   3.764  49.440  1.00  0.00     0.025 C 
HETATM   23  C1  UNL     1      26.531   5.176  49.009  1.00  0.00     0.009 C 
ENDBRANCH   1  22
TORSDOF 9
ENDMDL
MODEL 4
REMARK VINA RESULT:      -6.8      1.823      5.066
REMARK  9 active torsions:
REMARK  status: ('A' for Active; 'I' for Inactive)
REMARK    1  A    between atoms: C2_2  and  C3_3 
REMARK    2  A    between atoms: C4_4  and  C5_5 
REMARK    3  A    between atoms: C4_4  and  O2_16 
REMARK    4  A    between atoms: C5_5  and  C6_6 
REMARK    5  A    between atoms: C6_6  and  C7_7 
REMARK    6  A    between atoms: C7_7  and  C8_9 
REMARK    7  A    between atoms: C8_9  and  N1_10 
REMARK    8  A    between atoms: O2_16  and  C14_17 
REMARK    9  A    between atoms: C14_17  and  C15_18 
ROOT
HETATM    1  C3  UNL     1      22.599   0.324  52.835  1.00  0.00     0.005 C 
HETATM    2  C4  UNL     1      23.153   1.319  52.120  1.00  0.00     0.043 C 
ENDROOT
BRANCH   2   3
HETATM    3  C5  UNL     1      22.334   2.330  51.382  1.00  0.00     0.071 C 
BRANCH   3   4
HETATM    4  C6  UNL     1      22.312   3.595  52.211  1.00  0.00     0.086 C 
BRANCH   4   5
HETATM    5  C7  UNL     1      22.823   4.782  51.456  1.00  0.00     0.155 C 
HETATM    6  O1  UNL     1      21.956   5.623  51.372  1.00  0.00    -0.296 OA
BRANCH   5   7
HETATM    7  C8  UNL     1      24.210   4.756  50.959  1.00  0.00     0.350 C 
BRANCH   7   8
HETATM    8  N1  UNL     1      24.321   4.530  49.553  1.00  0.00     0.095 N 
HETATM    9  C9  UNL     1      25.167   3.368  49.370  1.00  0.00     0.273 C 
HETATM   10  C10 UNL     1      26.605   3.595  49.698  1.00  0.00     0.030 C 
HETATM   11  C11 UNL     1      27.165   4.747  48.874  1.00  0.00     0.003 C 
HETATM   12  C12 UNL     1      26.311   5.955  49.199  1.00  0.00     0.030 C 
HETATM   13  C13 UNL     1      24.896   5.610  48.803  1.00  0.00     0.273 C 
ENDBRANCH   7   8
ENDBRANCH   5   7
ENDBRANCH   4   5
ENDBRANCH   3   4
ENDBRANCH   2   3
BRANCH   2  14
HETATM   14  O2  UNL     1      24.466   0.975  52.380  1.00  0.00    -0.351 OA
BRANCH  14  15
HETATM   15  C14 UNL     1      25.482   1.827  52.804  1.00  0.00     0.213 C 
BRANCH  15  16
HETATM   16  C15 UNL     1      26.705   0.990  53.030  1.00  0.00    -0.034 A 
HETATM   17  C16 UNL     1      27.935   1.485  53.431  1.00  0.00     0.009 A 
HETATM   18  C17 UNL     1      29.007   0.624  53.611  1.00  0.00     0.001 A 
HETATM   19  C18 UNL     1      28.843  -0.746  53.390  1.00  0.00     0.000 A 
HETATM   20  C19 UNL     1      27.617  -1.255  52.988  1.00  0.00     0.001 A 
HETATM   21  C20 UNL     1      26.542  -0.380  52.808  1.00  0.00     0.009 A 
ENDBRANCH  15  16
ENDBRANCH  14  15
ENDBRANCH   2  14
BRANCH   1  22
HETATM   22  C2  UNL     1      22.892  -0.860  53.693  1.00  0.00     0.025 C 
HETATM   23  C1  UNL     1      21.754  -1.180  54.632  1.00  0.00     0.009 C 
ENDBRANCH   1  22
TORSDOF 9
ENDMDL
MODEL 5
REMARK VINA RESULT:      -6.7      2.060      5.340
REMARK  9 active torsions:
REMARK  status: ('A' for Active; 'I' for Inactive)
REMARK    1  A    between atoms: C2_2  and  C3_3 
REMARK    2  A    between atoms: C4_4  and  C5_5 
REMARK    3  A    between atoms: C4_4  and  O2_16 
REMARK    4  A    between atoms: C5_5  and  C6_6 
REMARK    5  A    between atoms: C6_6  and  C7_7 
REMARK    6  A    between atoms: C7_7  and  C8_9 
REMARK    7  A    between atoms: C8_9  and  N1_10 
REMARK    8  A    between atoms: O2_16  and  C14_17 
REMARK    9  A    between atoms: C14_17  and  C15_18 
ROOT
HETATM    1  C3  UNL     1      25.042   2.719  52.036  1.00  0.00     0.005 C 
HETATM    2  C4  UNL     1      26.191   2.181  51.591  1.00  0.00     0.043 C 
ENDROOT
BRANCH   2   3
HETATM    3  C5  UNL     1      26.657   0.823  52.011  1.00  0.00     0.071 C 
BRANCH   3   4
HETATM    4  C6  UNL     1      26.395   0.687  53.495  1.00  0.00     0.086 C 
BRANCH   4   5
HETATM    5  C7  UNL     1      25.552  -0.505  53.819  1.00  0.00     0.155 C 
HETATM    6  O1  UNL     1      26.212  -1.516  53.723  1.00  0.00    -0.296 OA
BRANCH   5   7
HETATM    7  C8  UNL     1      24.140  -0.291  54.182  1.00  0.00     0.350 C 
BRANCH   7   8
HETATM    8  N1  UNL     1      23.208  -0.890  53.279  1.00  0.00     0.095 N 
HETATM    9  C9  UNL     1      22.675   0.169  52.447  1.00  0.00     0.273 C 
HETATM   10  C10 UNL     1      21.759   1.109  53.160  1.00  0.00     0.030 C 
HETATM   11  C11 UNL     1      20.601   0.349  53.793  1.00  0.00     0.003 C 
HETATM   12  C12 UNL     1      21.223  -0.661  54.735  1.00  0.00     0.030 C 
HETATM   13  C13 UNL     1      22.100  -1.560  53.898  1.00  0.00     0.273 C 
ENDBRANCH   7   8
ENDBRANCH   5   7
ENDBRANCH   4   5
ENDBRANCH   3   4
ENDBRANCH   2   3
BRANCH   2  14
HETATM   14  O2  UNL     1      26.557   3.250  50.795  1.00  0.00    -0.351 OA
BRANCH  14  15
HETATM   15  C14 UNL     1      26.611   3.273  49.404  1.00  0.00     0.213 C 
BRANCH  15  16
HETATM   16  C15 UNL     1      26.793   4.701  48.986  1.00  0.00    -0.034 A 
HETATM   17  C16 UNL     1      25.800   5.667  49.028  1.00  0.00     0.009 A 
HETATM   18  C17 UNL     1      26.072   6.963  48.616  1.00  0.00     0.001 A 
HETATM   19  C18 UNL     1      27.350   7.294  48.159  1.00  0.00     0.000 A 
HETATM   20  C19 UNL     1      28.353   6.336  48.111  1.00  0.00     0.001 A 
HETATM   21  C20 UNL     1      28.070   5.033  48.528  1.00  0.00     0.009 A 
ENDBRANCH  15  16
ENDBRANCH  14  15
ENDBRANCH   2  14
BRANCH   1  22
HETATM   22  C2  UNL     1      24.158   3.919  51.965  1.00  0.00     0.025 C 
HETATM   23  C1  UNL     1      23.078   3.771  50.921  1.00  0.00     0.009 C 
ENDBRANCH   1  22
TORSDOF 9
ENDMDL
MODEL 6
REMARK VINA RESULT:      -6.7      1.733      3.609
REMARK  9 active torsions:
REMARK  status: ('A' for Active; 'I' for Inactive)
REMARK    1  A    between atoms: C2_2  and  C3_3 
REMARK    2  A    between atoms: C4_4  and  C5_5 
REMARK    3  A    between atoms: C4_4  and  O2_16 
REMARK    4  A    between atoms: C5_5  and  C6_6 
REMARK    5  A    between atoms: C6_6  and  C7_7 
REMARK    6  A    between atoms: C7_7  and  C8_9 
REMARK    7  A    between atoms: C8_9  and  N1_10 
REMARK    8  A    between atoms: O2_16  and  C14_17 
REMARK    9  A    between atoms: C14_17  and  C15_18 
ROOT
HETATM    1  C3  UNL     1      23.254   0.279  53.304  1.00  0.00     0.005 C 
HETATM    2  C4  UNL     1      24.459   0.874  53.248  1.00  0.00     0.043 C 
ENDROOT
BRANCH   2   3
HETATM    3  C5  UNL     1      24.621   2.329  52.938  1.00  0.00     0.071 C 
BRANCH   3   4
HETATM    4  C6  UNL     1      24.425   2.504  51.448  1.00  0.00     0.086 C 
BRANCH   4   5
HETATM    5  C7  UNL     1      23.352   3.495  51.126  1.00  0.00     0.155 C 
HETATM    6  O1  UNL     1      23.773   4.323  50.350  1.00  0.00    -0.296 OA
BRANCH   5   7
HETATM    7  C8  UNL     1      22.030   3.330  51.756  1.00  0.00     0.350 C 
BRANCH   7   8
HETATM    8  N1  UNL     1      20.955   3.181  50.827  1.00  0.00     0.095 N 
HETATM    9  C9  UNL     1      19.759   2.898  51.595  1.00  0.00     0.273 C 
HETATM   10  C10 UNL     1      19.736   1.542  52.219  1.00  0.00     0.030 C 
HETATM   11  C11 UNL     1      19.908   0.463  51.159  1.00  0.00     0.003 C 
HETATM   12  C12 UNL     1      21.228   0.749  50.474  1.00  0.00     0.030 C 
HETATM   13  C13 UNL     1      21.117   2.127  49.867  1.00  0.00     0.273 C 
ENDBRANCH   7   8
ENDBRANCH   5   7
ENDBRANCH   4   5
ENDBRANCH   3   4
ENDBRANCH   2   3
BRANCH   2  14
HETATM   14  O2  UNL     1      25.197  -0.256  53.543  1.00  0.00    -0.351 OA
BRANCH  14  15
HETATM   15  C14 UNL     1      25.950  -1.016  52.651  1.00  0.00     0.213 C 
BRANCH  15  16
HETATM   16  C15 UNL     1      27.393  -0.831  53.011  1.00  0.00    -0.034 A 
HETATM   17  C16 UNL     1      27.977   0.386  53.322  1.00  0.00     0.009 A 
HETATM   18  C17 UNL     1      29.325   0.450  53.641  1.00  0.00     0.001 A 
HETATM   19  C18 UNL     1      30.094  -0.716  53.651  1.00  0.00     0.000 A 
HETATM   20  C19 UNL     1      29.521  -1.942  53.341  1.00  0.00     0.001 A 
HETATM   21  C20 UNL     1      28.162  -1.997  53.020  1.00  0.00     0.009 A 
ENDBRANCH  15  16
ENDBRANCH  14  15
ENDBRANCH   2  14
BRANCH   1  22
HETATM   22  C2  UNL     1      22.552  -1.015  53.545  1.00  0.00     0.025 C 
HETATM   23  C1  UNL     1      21.733  -0.993  54.812  1.00  0.00     0.009 C 
ENDBRANCH   1  22
TORSDOF 9
ENDMDL
MODEL 7
REMARK VINA RESULT:      -6.6      2.604      4.642
REMARK  9 active torsions:
REMARK  status: ('A' for Active; 'I' for Inactive)
REMARK    1  A    between atoms: C2_2  and  C3_3 
REMARK    2  A    between atoms: C4_4  and  C5_5 
REMARK    3  A    between atoms: C4_4  and  O2_16 
REMARK    4  A    between atoms: C5_5  and  C6_6 
REMARK    5  A    between atoms: C6_6  and  C7_7 
REMARK    6  A    between atoms: C7_7  and  C8_9 
REMARK    7  A    between atoms: C8_9  and  N1_10 
REMARK    8  A    between atoms: O2_16  and  C14_17 
REMARK    9  A    between atoms: C14_17  and  C15_18 
ROOT
HETATM    1  C3  UNL     1      23.304   1.700  52.916  1.00  0.00     0.005 C 
HETATM    2  C4  UNL     1      24.087   2.738  52.575  1.00  0.00     0.043 C 
ENDROOT
BRANCH   2   3
HETATM    3  C5  UNL     1      23.847   4.125  53.082  1.00  0.00     0.071 C 
BRANCH   3   4
HETATM    4  C6  UNL     1      22.674   4.697  52.316  1.00  0.00     0.086 C 
BRANCH   4   5
HETATM    5  C7  UNL     1      23.104   5.567  51.178  1.00  0.00     0.155 C 
HETATM    6  O1  UNL     1      23.970   6.329  51.545  1.00  0.00    -0.296 OA
BRANCH   5   7
HETATM    7  C8  UNL     1      22.455   5.384  49.868  1.00  0.00     0.350 C 
BRANCH   7   8
HETATM    8  N1  UNL     1      23.350   4.996  48.824  1.00  0.00     0.095 N 
HETATM    9  C9  UNL     1      22.604   5.036  47.582  1.00  0.00     0.273 C 
HETATM   10  C10 UNL     1      21.580   3.958  47.444  1.00  0.00     0.030 C 
HETATM   11  C11 UNL     1      22.227   2.587  47.587  1.00  0.00     0.003 C 
HETATM   12  C12 UNL     1      22.888   2.570  48.949  1.00  0.00     0.030 C 
HETATM   13  C13 UNL     1      23.910   3.681  48.954  1.00  0.00     0.273 C 
ENDBRANCH   7   8
ENDBRANCH   5   7
ENDBRANCH   4   5
ENDBRANCH   3   4
ENDBRANCH   2   3
BRANCH   2  14
HETATM   14  O2  UNL     1      24.943   2.018  51.763  1.00  0.00    -0.351 OA
BRANCH  14  15
HETATM   15  C14 UNL     1      26.295   2.272  51.546  1.00  0.00     0.213 C 
BRANCH  15  16
HETATM   16  C15 UNL     1      27.072   1.235  52.299  1.00  0.00    -0.034 A 
HETATM   17  C16 UNL     1      26.828  -0.128  52.241  1.00  0.00     0.009 A 
HETATM   18  C17 UNL     1      27.606  -1.007  52.980  1.00  0.00     0.001 A 
HETATM   19  C18 UNL     1      28.638  -0.515  53.782  1.00  0.00     0.000 A 
HETATM   20  C19 UNL     1      28.894   0.847  53.849  1.00  0.00     0.001 A 
HETATM   21  C20 UNL     1      28.104   1.725  53.102  1.00  0.00     0.009 A 
ENDBRANCH  15  16
ENDBRANCH  14  15
ENDBRANCH   2  14
BRANCH   1  22
HETATM   22  C2  UNL     1      23.085   0.235  52.734  1.00  0.00     0.025 C 
HETATM   23  C1  UNL     1      23.543  -0.563  53.930  1.00  0.00     0.009 C 
ENDBRANCH   1  22
TORSDOF 9
ENDMDL
MODEL 8
REMARK VINA RESULT:      -6.6      2.129      5.057
REMARK  9 active torsions:
REMARK  status: ('A' for Active; 'I' for Inactive)
REMARK    1  A    between atoms: C2_2  and  C3_3 
REMARK    2  A    between atoms: C4_4  and  C5_5 
REMARK    3  A    between atoms: C4_4  and  O2_16 
REMARK    4  A    between atoms: C5_5  and  C6_6 
REMARK    5  A    between atoms: C6_6  and  C7_7 
REMARK    6  A    between atoms: C7_7  and  C8_9 
REMARK    7  A    between atoms: C8_9  and  N1_10 
REMARK    8  A    between atoms: O2_16  and  C14_17 
REMARK    9  A    between atoms: C14_17  and  C15_18 
ROOT
HETATM    1  C3  UNL     1      23.073   0.689  52.994  1.00  0.00     0.005 C 
HETATM    2  C4  UNL     1      24.079   1.569  52.844  1.00  0.00     0.043 C 
ENDROOT
BRANCH   2   3
HETATM    3  C5  UNL     1      23.842   3.012  52.529  1.00  0.00     0.071 C 
BRANCH   3   4
HETATM    4  C6  UNL     1      22.370   3.180  52.227  1.00  0.00     0.086 C 
BRANCH   4   5
HETATM    5  C7  UNL     1      22.068   4.484  51.560  1.00  0.00     0.155 C 
HETATM    6  O1  UNL     1      20.888   4.551  51.296  1.00  0.00    -0.296 OA
BRANCH   5   7
HETATM    7  C8  UNL     1      23.174   5.432  51.335  1.00  0.00     0.350 C 
BRANCH   7   8
HETATM    8  N1  UNL     1      23.237   5.949  50.004  1.00  0.00     0.095 N 
HETATM    9  C9  UNL     1      23.676   4.869  49.144  1.00  0.00     0.273 C 
HETATM   10  C10 UNL     1      25.106   4.479  49.326  1.00  0.00     0.030 C 
HETATM   11  C11 UNL     1      26.018   5.680  49.114  1.00  0.00     0.003 C 
HETATM   12  C12 UNL     1      25.582   6.726  50.119  1.00  0.00     0.030 C 
HETATM   13  C13 UNL     1      24.139   7.050  49.818  1.00  0.00     0.273 C 
ENDBRANCH   7   8
ENDBRANCH   5   7
ENDBRANCH   4   5
ENDBRANCH   3   4
ENDBRANCH   2   3
BRANCH   2  14
HETATM   14  O2  UNL     1      25.101   0.667  53.073  1.00  0.00    -0.351 OA
BRANCH  14  15
HETATM   15  C14 UNL     1      26.342   0.941  53.641  1.00  0.00     0.213 C 
BRANCH  15  16
HETATM   16  C15 UNL     1      27.215  -0.255  53.409  1.00  0.00    -0.034 A 
HETATM   17  C16 UNL     1      26.785  -1.447  52.848  1.00  0.00     0.009 A 
HETATM   18  C17 UNL     1      27.675  -2.497  52.678  1.00  0.00     0.001 A 
HETATM   19  C18 UNL     1      29.007  -2.350  53.071  1.00  0.00     0.000 A 
HETATM   20  C19 UNL     1      29.451  -1.162  53.634  1.00  0.00     0.001 A 
HETATM   21  C20 UNL     1      28.548  -0.109  53.802  1.00  0.00     0.009 A 
ENDBRANCH  15  16
ENDBRANCH  14  15
ENDBRANCH   2  14
BRANCH   1  22
HETATM   22  C2  UNL     1      22.743  -0.737  53.284  1.00  0.00     0.025 C 
HETATM   23  C1  UNL     1      22.266  -0.935  54.702  1.00  0.00     0.009 C 
ENDBRANCH   1  22
TORSDOF 9
ENDMDL
MODEL 9
REMARK VINA RESULT:      -6.5      2.503      7.590
REMARK  9 active torsions:
REMARK  status: ('A' for Active; 'I' for Inactive)
REMARK    1  A    between atoms: C2_2  and  C3_3 
REMARK    2  A    between atoms: C4_4  and  C5_5 
REMARK    3  A    between atoms: C4_4  and  O2_16 
REMARK    4  A    between atoms: C5_5  and  C6_6 
REMARK    5  A    between atoms: C6_6  and  C7_7 
REMARK    6  A    between atoms: C7_7  and  C8_9 
REMARK    7  A    between atoms: C8_9  and  N1_10 
REMARK    8  A    between atoms: O2_16  and  C14_17 
REMARK    9  A    between atoms: C14_17  and  C15_18 
ROOT
HETATM    1  C3  UNL     1      22.316  -0.028  53.512  1.00  0.00     0.005 C 
HETATM    2  C4  UNL     1      21.944   0.636  52.403  1.00  0.00     0.043 C 
ENDROOT
BRANCH   2   3
HETATM    3  C5  UNL     1      22.862   1.574  51.684  1.00  0.00     0.071 C 
BRANCH   3   4
HETATM    4  C6  UNL     1      23.591   2.391  52.728  1.00  0.00     0.086 C 
BRANCH   4   5
HETATM    5  C7  UNL     1      25.074   2.371  52.535  1.00  0.00     0.155 C 
HETATM    6  O1  UNL     1      25.351   2.753  51.420  1.00  0.00    -0.296 OA
BRANCH   5   7
HETATM    7  C8  UNL     1      25.924   1.922  53.652  1.00  0.00     0.350 C 
BRANCH   7   8
HETATM    8  N1  UNL     1      25.725   0.556  54.023  1.00  0.00     0.095 N 
HETATM    9  C9  UNL     1      26.717   0.235  55.028  1.00  0.00     0.273 C 
HETATM   10  C10 UNL     1      28.115   0.150  54.509  1.00  0.00     0.030 C 
HETATM   11  C11 UNL     1      28.204  -0.872  53.384  1.00  0.00     0.003 C 
HETATM   12  C12 UNL     1      27.229  -0.416  52.318  1.00  0.00     0.030 C 
HETATM   13  C13 UNL     1      25.862  -0.394  52.956  1.00  0.00     0.273 C 
ENDBRANCH   7   8
ENDBRANCH   5   7
ENDBRANCH   4   5
ENDBRANCH   3   4
ENDBRANCH   2   3
BRANCH   2  14
HETATM   14  O2  UNL     1      20.664   0.120  52.342  1.00  0.00    -0.351 OA
BRANCH  14  15
HETATM   15  C14 UNL     1      19.556   0.710  51.740  1.00  0.00     0.213 C 
BRANCH  15  16
HETATM   16  C15 UNL     1      18.384  -0.194  51.974  1.00  0.00    -0.034 A 
HETATM   17  C16 UNL     1      17.231  -0.206  51.204  1.00  0.00     0.009 A 
HETATM   18  C17 UNL     1      16.201  -1.083  51.507  1.00  0.00     0.001 A 
HETATM   19  C18 UNL     1      16.327  -1.957  52.590  1.00  0.00     0.000 A 
HETATM   20  C19 UNL     1      17.475  -1.955  53.369  1.00  0.00     0.001 A 
HETATM   21  C20 UNL     1      18.508  -1.068  53.057  1.00  0.00     0.009 A 
ENDBRANCH  15  16
ENDBRANCH  14  15
ENDBRANCH   2  14
BRANCH   1  22
HETATM   22  C2  UNL     1      21.865  -0.999  54.550  1.00  0.00     0.025 C 
HETATM   23  C1  UNL     1      22.990  -1.425  55.461  1.00  0.00     0.009 C 
ENDBRANCH   1  22
TORSDOF 9
ENDMDL
