MODEL 1
REMARK VINA RESULT:      -9.9      0.000      0.000
REMARK  5 active torsions:
REMARK  status: ('A' for Active; 'I' for Inactive)
REMARK    1  A    between atoms: C6_6  and  C7_7 
REMARK    2  A    between atoms: C7_7  and  O1_8 
REMARK    3  A    between atoms: O1_8  and  C8_9 
REMARK    4  A    between atoms: C12_13  and  C13_14 
REMARK    5  A    between atoms: C23_27  and  N4_28 
ROOT
HETATM    1  C13 UNL     1      25.079   1.735  51.975  1.00  0.00     0.004 C 
HETATM    2  C14 UNL     1      26.318   2.092  52.296  1.00  0.00     0.101 C 
HETATM    3  N1  UNL     1      26.966   1.285  53.250  1.00  0.00    -0.358 N 
HETATM    4  C15 UNL     1      28.138   1.019  54.060  1.00  0.00     0.134 C 
HETATM    5  C16 UNL     1      28.914   0.037  53.176  1.00  0.00     0.036 A 
HETATM    6  C17 UNL     1      29.922  -0.840  53.757  1.00  0.00     0.038 A 
HETATM    7  C18 UNL     1      28.969  -1.917  53.436  1.00  0.00    -0.023 A 
HETATM    8  C19 UNL     1      28.045  -1.156  52.920  1.00  0.00    -0.073 A 
HETATM    9  C20 UNL     1      26.679  -0.864  52.295  1.00  0.00     0.093 C 
HETATM   10  C21 UNL     1      26.065   0.154  53.328  1.00  0.00     0.143 C 
HETATM   11  N2  UNL     1      26.017  -0.631  54.507  1.00  0.00    -0.354 N 
HETATM   12  C22 UNL     1      24.743  -1.142  54.966  1.00  0.00     0.207 C 
HETATM   13  N3  UNL     1      23.594  -0.722  54.489  1.00  0.00    -0.227 NA
HETATM   14  C23 UNL     1      23.661   0.264  53.468  1.00  0.00     0.134 C 
HETATM   15  C24 UNL     1      24.803   0.725  52.981  1.00  0.00     0.049 C 
HETATM   16  H26 UNL     1      26.708  -0.997  55.223  1.00  0.00     0.163 HD
ENDROOT
BRANCH   1  17
HETATM   17  C12 UNL     1      24.266   2.417  51.008  1.00  0.00    -0.021 A 
HETATM   18  C11 UNL     1      23.223   1.908  50.325  1.00  0.00     0.012 A 
HETATM   19  C10 UNL     1      22.442   2.627  49.455  1.00  0.00     0.004 A 
HETATM   20  C9  UNL     1      22.724   3.957  49.249  1.00  0.00     0.037 A 
HETATM   21  C8  UNL     1      23.762   4.601  49.881  1.00  0.00     0.069 A 
HETATM   22  C25 UNL     1      24.498   3.780  50.750  1.00  0.00     0.049 A 
BRANCH  21  23
HETATM   23  O1  UNL     1      24.196   5.873  49.814  1.00  0.00    -0.349 OA
BRANCH  23  24
HETATM   24  C7  UNL     1      25.458   6.435  49.980  1.00  0.00     0.207 C 
BRANCH  24  25
HETATM   25  C6  UNL     1      26.339   6.362  48.765  1.00  0.00     0.146 C 
HETATM   26  C5  UNL     1      27.426   5.309  48.927  1.00  0.00     0.037 C 
HETATM   27  C4  UNL     1      28.512   5.891  48.047  1.00  0.00     0.040 C 
HETATM   28  C2  UNL     1      28.213   7.345  48.049  1.00  0.00     0.054 C 
HETATM   29  C1  UNL     1      29.279   8.156  48.762  1.00  0.00     0.045 C 
HETATM   30  C3  UNL     1      28.098   7.932  46.658  1.00  0.00     0.045 C 
HETATM   31  O2  UNL     1      27.008   7.576  48.687  1.00  0.00    -0.373 OA
ENDBRANCH  24  25
ENDBRANCH  23  24
ENDBRANCH  21  23
ENDBRANCH   1  17
BRANCH  14  32
HETATM   32  N4  UNL     1      22.390   0.746  53.065  1.00  0.00    -0.383 N 
HETATM   33  H28 UNL     1      22.294   0.857  52.011  1.00  0.00     0.157 HD
HETATM   34  H29 UNL     1      21.671   0.948  53.801  1.00  0.00     0.157 HD
ENDBRANCH  14  32
TORSDOF 5
ENDMDL
MODEL 2
REMARK VINA RESULT:      -9.8      1.832      2.561
REMARK  5 active torsions:
REMARK  status: ('A' for Active; 'I' for Inactive)
REMARK    1  A    between atoms: C6_6  and  C7_7 
REMARK    2  A    between atoms: C7_7  and  O1_8 
REMARK    3  A    between atoms: O1_8  and  C8_9 
REMARK    4  A    between atoms: C12_13  and  C13_14 
REMARK    5  A    between atoms: C23_27  and  N4_28 
ROOT
HETATM    1  C13 UNL     1      23.803   1.139  52.290  1.00  0.00     0.004 C 
HETATM    2  C14 UNL     1      24.932   1.835  52.386  1.00  0.00     0.101 C 
HETATM    3  N1  UNL     1      25.884   1.346  53.299  1.00  0.00    -0.358 N 
HETATM    4  C15 UNL     1      27.175   1.489  53.942  1.00  0.00     0.134 C 
HETATM    5  C16 UNL     1      28.071   0.631  53.043  1.00  0.00     0.036 A 
HETATM    6  C17 UNL     1      29.341   0.118  53.541  1.00  0.00     0.038 A 
HETATM    7  C18 UNL     1      28.678  -1.196  53.468  1.00  0.00    -0.023 A 
HETATM    8  C19 UNL     1      27.528  -0.765  53.031  1.00  0.00    -0.073 A 
HETATM    9  C20 UNL     1      26.068  -0.909  52.598  1.00  0.00     0.093 C 
HETATM   10  C21 UNL     1      25.336   0.043  53.616  1.00  0.00     0.143 C 
HETATM   11  N2  UNL     1      25.645  -0.572  54.854  1.00  0.00    -0.354 N 
HETATM   12  C22 UNL     1      24.621  -1.325  55.545  1.00  0.00     0.207 C 
HETATM   13  N3  UNL     1      23.352  -1.273  55.212  1.00  0.00    -0.227 NA
HETATM   14  C23 UNL     1      23.026  -0.440  54.109  1.00  0.00     0.134 C 
HETATM   15  C24 UNL     1      23.934   0.229  53.414  1.00  0.00     0.049 C 
HETATM   16  H26 UNL     1      26.492  -0.658  55.486  1.00  0.00     0.163 HD
ENDROOT
BRANCH   1  17
HETATM   17  C12 UNL     1      22.725   1.465  51.400  1.00  0.00    -0.021 A 
HETATM   18  C11 UNL     1      21.942   0.601  50.729  1.00  0.00     0.012 A 
HETATM   19  C10 UNL     1      20.883   0.969  49.936  1.00  0.00     0.004 A 
HETATM   20  C9  UNL     1      20.584   2.305  49.803  1.00  0.00     0.037 A 
HETATM   21  C8  UNL     1      21.304   3.292  50.433  1.00  0.00     0.069 A 
HETATM   22  C25 UNL     1      22.364   2.812  51.219  1.00  0.00     0.049 A 
BRANCH  21  23
HETATM   23  O1  UNL     1      21.176   4.632  50.428  1.00  0.00    -0.349 OA
BRANCH  23  24
HETATM   24  C7  UNL     1      21.846   5.633  51.124  1.00  0.00     0.207 C 
BRANCH  24  25
HETATM   25  C6  UNL     1      22.882   6.367  50.321  1.00  0.00     0.146 C 
HETATM   26  C5  UNL     1      22.766   6.049  48.837  1.00  0.00     0.037 C 
HETATM   27  C4  UNL     1      24.201   6.244  48.397  1.00  0.00     0.040 C 
HETATM   28  C2  UNL     1      24.977   6.002  49.639  1.00  0.00     0.054 C 
HETATM   29  C1  UNL     1      25.822   4.744  49.560  1.00  0.00     0.045 C 
HETATM   30  C3  UNL     1      25.931   7.129  49.976  1.00  0.00     0.045 C 
HETATM   31  O2  UNL     1      24.116   5.867  50.713  1.00  0.00    -0.373 OA
ENDBRANCH  24  25
ENDBRANCH  23  24
ENDBRANCH  21  23
ENDBRANCH   1  17
BRANCH  14  32
HETATM   32  N4  UNL     1      21.632  -0.350  53.861  1.00  0.00    -0.383 N 
HETATM   33  H28 UNL     1      21.046  -0.328  54.749  1.00  0.00     0.157 HD
HETATM   34  H29 UNL     1      21.298  -0.312  52.869  1.00  0.00     0.157 HD
ENDBRANCH  14  32
TORSDOF 5
ENDMDL
MODEL 3
REMARK VINA RESULT:      -9.3      3.054      7.911
REMARK  5 active torsions:
REMARK  status: ('A' for Active; 'I' for Inactive)
REMARK    1  A    between atoms: C6_6  and  C7_7 
REMARK    2  A    between atoms: C7_7  and  O1_8 
REMARK    3  A    between atoms: O1_8  and  C8_9 
REMARK    4  A    between atoms: C12_13  and  C13_14 
REMARK    5  A    between atoms: C23_27  and  N4_28 
ROOT
HETATM    1  C13 UNL     1      25.097   5.790  49.996  1.00  0.00     0.004 C 
HETATM    2  C14 UNL     1      25.150   7.012  50.513  1.00  0.00     0.101 C 
HETATM    3  N1  UNL     1      26.251   7.800  50.126  1.00  0.00    -0.358 N 
HETATM    4  C15 UNL     1      26.980   9.048  50.226  1.00  0.00     0.134 C 
HETATM    5  C16 UNL     1      26.408   9.841  49.046  1.00  0.00     0.036 A 
HETATM    6  C17 UNL     1      27.149  10.964  48.485  1.00  0.00     0.038 A 
HETATM    7  C18 UNL     1      27.311  10.089  47.310  1.00  0.00    -0.023 A 
HETATM    8  C19 UNL     1      26.663   9.065  47.790  1.00  0.00    -0.073 A 
HETATM    9  C20 UNL     1      26.119   7.635  47.767  1.00  0.00     0.093 C 
HETATM   10  C21 UNL     1      26.801   7.012  49.042  1.00  0.00     0.143 C 
HETATM   11  N2  UNL     1      28.174   7.123  48.714  1.00  0.00    -0.354 N 
HETATM   12  C22 UNL     1      28.906   5.939  48.321  1.00  0.00     0.207 C 
HETATM   13  N3  UNL     1      28.434   4.724  48.482  1.00  0.00    -0.227 NA
HETATM   14  C23 UNL     1      27.138   4.625  49.054  1.00  0.00     0.134 C 
HETATM   15  C24 UNL     1      26.410   5.682  49.384  1.00  0.00     0.049 C 
HETATM   16  H26 UNL     1      28.898   7.897  48.660  1.00  0.00     0.163 HD
ENDROOT
BRANCH   1  17
HETATM   17  C12 UNL     1      24.044   4.848  50.252  1.00  0.00    -0.021 A 
HETATM   18  C11 UNL     1      22.961   4.618  49.485  1.00  0.00     0.012 A 
HETATM   19  C10 UNL     1      22.014   3.660  49.749  1.00  0.00     0.004 A 
HETATM   20  C9  UNL     1      22.159   2.871  50.866  1.00  0.00     0.037 A 
HETATM   21  C8  UNL     1      23.217   3.002  51.735  1.00  0.00     0.069 A 
HETATM   22  C25 UNL     1      24.128   4.008  51.376  1.00  0.00     0.049 A 
BRANCH  21  23
HETATM   23  O1  UNL     1      23.531   2.342  52.865  1.00  0.00    -0.349 OA
BRANCH  23  24
HETATM   24  C7  UNL     1      24.192   1.138  53.085  1.00  0.00     0.207 C 
BRANCH  24  25
HETATM   25  C6  UNL     1      25.643   1.141  52.694  1.00  0.00     0.146 C 
HETATM   26  C5  UNL     1      26.114  -0.248  52.288  1.00  0.00     0.037 C 
HETATM   27  C4  UNL     1      27.580  -0.165  52.656  1.00  0.00     0.040 C 
HETATM   28  C2  UNL     1      27.608   0.870  53.721  1.00  0.00     0.054 C 
HETATM   29  C1  UNL     1      27.985   0.300  55.075  1.00  0.00     0.045 C 
HETATM   30  C3  UNL     1      28.597   1.983  53.444  1.00  0.00     0.045 C 
HETATM   31  O2  UNL     1      26.362   1.457  53.839  1.00  0.00    -0.373 OA
ENDBRANCH  24  25
ENDBRANCH  23  24
ENDBRANCH  21  23
ENDBRANCH   1  17
BRANCH  14  32
HETATM   32  N4  UNL     1      26.726   3.289  49.292  1.00  0.00    -0.383 N 
HETATM   33  H28 UNL     1      26.460   3.103  50.306  1.00  0.00     0.157 HD
HETATM   34  H29 UNL     1      26.714   2.615  48.490  1.00  0.00     0.157 HD
ENDBRANCH  14  32
TORSDOF 5
ENDMDL
MODEL 4
REMARK VINA RESULT:      -9.3      2.765      5.862
REMARK  5 active torsions:
REMARK  status: ('A' for Active; 'I' for Inactive)
REMARK    1  A    between atoms: C6_6  and  C7_7 
REMARK    2  A    between atoms: C7_7  and  O1_8 
REMARK    3  A    between atoms: O1_8  and  C8_9 
REMARK    4  A    between atoms: C12_13  and  C13_14 
REMARK    5  A    between atoms: C23_27  and  N4_28 
ROOT
HETATM    1  C13 UNL     1      25.423   1.859  51.997  1.00  0.00     0.004 C 
HETATM    2  C14 UNL     1      26.676   2.129  52.348  1.00  0.00     0.101 C 
HETATM    3  N1  UNL     1      27.256   1.259  53.290  1.00  0.00    -0.358 N 
HETATM    4  C15 UNL     1      28.394   0.900  54.111  1.00  0.00     0.134 C 
HETATM    5  C16 UNL     1      29.124  -0.105  53.213  1.00  0.00     0.036 A 
HETATM    6  C17 UNL     1      30.066  -1.058  53.786  1.00  0.00     0.038 A 
HETATM    7  C18 UNL     1      29.054  -2.065  53.421  1.00  0.00    -0.023 A 
HETATM    8  C19 UNL     1      28.188  -1.235  52.911  1.00  0.00    -0.073 A 
HETATM    9  C20 UNL     1      26.854  -0.842  52.273  1.00  0.00     0.093 C 
HETATM   10  C21 UNL     1      26.286   0.184  53.323  1.00  0.00     0.143 C 
HETATM   11  N2  UNL     1      26.168  -0.627  54.479  1.00  0.00    -0.354 N 
HETATM   12  C22 UNL     1      24.858  -1.070  54.903  1.00  0.00     0.207 C 
HETATM   13  N3  UNL     1      23.745  -0.567  54.420  1.00  0.00    -0.227 NA
HETATM   14  C23 UNL     1      23.891   0.439  53.428  1.00  0.00     0.134 C 
HETATM   15  C24 UNL     1      25.067   0.841  52.972  1.00  0.00     0.049 C 
HETATM   16  H26 UNL     1      26.823  -1.054  55.195  1.00  0.00     0.163 HD
ENDROOT
BRANCH   1  17
HETATM   17  C12 UNL     1      24.670   2.615  51.037  1.00  0.00    -0.021 A 
HETATM   18  C11 UNL     1      24.905   3.880  50.641  1.00  0.00     0.012 A 
HETATM   19  C10 UNL     1      24.186   4.534  49.671  1.00  0.00     0.004 A 
HETATM   20  C9  UNL     1      23.152   3.874  49.050  1.00  0.00     0.037 A 
HETATM   21  C8  UNL     1      22.804   2.580  49.361  1.00  0.00     0.069 A 
HETATM   22  C25 UNL     1      23.600   2.002  50.362  1.00  0.00     0.049 A 
BRANCH  21  23
HETATM   23  O1  UNL     1      21.840   1.774  48.879  1.00  0.00    -0.349 OA
BRANCH  23  24
HETATM   24  C7  UNL     1      20.475   1.965  48.695  1.00  0.00     0.207 C 
BRANCH  24  25
HETATM   25  C6  UNL     1      19.646   1.789  49.937  1.00  0.00     0.146 C 
HETATM   26  C5  UNL     1      20.052   0.539  50.705  1.00  0.00     0.037 C 
HETATM   27  C4  UNL     1      18.744   0.189  51.380  1.00  0.00     0.040 C 
HETATM   28  C2  UNL     1      17.723   0.793  50.486  1.00  0.00     0.054 C 
HETATM   29  C1  UNL     1      16.876  -0.250  49.784  1.00  0.00     0.045 C 
HETATM   30  C3  UNL     1      16.755   1.702  51.214  1.00  0.00     0.045 C 
HETATM   31  O2  UNL     1      18.344   1.558  49.515  1.00  0.00    -0.373 OA
ENDBRANCH  24  25
ENDBRANCH  23  24
ENDBRANCH  21  23
ENDBRANCH   1  17
BRANCH  14  32
HETATM   32  N4  UNL     1      22.659   1.010  53.018  1.00  0.00    -0.383 N 
HETATM   33  H28 UNL     1      22.491   1.983  53.414  1.00  0.00     0.157 HD
HETATM   34  H29 UNL     1      22.033   0.457  52.384  1.00  0.00     0.157 HD
ENDBRANCH  14  32
TORSDOF 5
ENDMDL
MODEL 5
REMARK VINA RESULT:      -9.2      3.346      7.329
REMARK  5 active torsions:
REMARK  status: ('A' for Active; 'I' for Inactive)
REMARK    1  A    between atoms: C6_6  and  C7_7 
REMARK    2  A    between atoms: C7_7  and  O1_8 
REMARK    3  A    between atoms: O1_8  and  C8_9 
REMARK    4  A    between atoms: C12_13  and  C13_14 
REMARK    5  A    between atoms: C23_27  and  N4_28 
ROOT
HETATM    1  C13 UNL     1      23.021   1.871  51.392  1.00  0.00     0.004 C 
HETATM    2  C14 UNL     1      24.283   2.276  51.294  1.00  0.00     0.101 C 
HETATM    3  N1  UNL     1      24.618   2.977  50.120  1.00  0.00    -0.358 N 
HETATM    4  C15 UNL     1      25.623   3.649  49.321  1.00  0.00     0.134 C 
HETATM    5  C16 UNL     1      25.448   5.108  49.758  1.00  0.00     0.036 A 
HETATM    6  C17 UNL     1      25.924   6.194  48.910  1.00  0.00     0.038 A 
HETATM    7  C18 UNL     1      24.493   6.490  48.725  1.00  0.00    -0.023 A 
HETATM    8  C19 UNL     1      24.037   5.521  49.470  1.00  0.00    -0.073 A 
HETATM    9  C20 UNL     1      22.947   4.655  50.103  1.00  0.00     0.093 C 
HETATM   10  C21 UNL     1      23.310   3.226  49.551  1.00  0.00     0.143 C 
HETATM   11  N2  UNL     1      23.172   3.417  48.154  1.00  0.00    -0.354 N 
HETATM   12  C22 UNL     1      22.017   2.870  47.476  1.00  0.00     0.207 C 
HETATM   13  N3  UNL     1      21.208   2.000  48.036  1.00  0.00    -0.227 NA
HETATM   14  C23 UNL     1      21.516   1.627  49.372  1.00  0.00     0.134 C 
HETATM   15  C24 UNL     1      22.532   2.137  50.050  1.00  0.00     0.049 C 
HETATM   16  H26 UNL     1      23.716   3.895  47.380  1.00  0.00     0.163 HD
ENDROOT
BRANCH   1  17
HETATM   17  C12 UNL     1      22.484   1.163  52.519  1.00  0.00    -0.021 A 
HETATM   18  C11 UNL     1      21.211   1.186  52.956  1.00  0.00     0.012 A 
HETATM   19  C10 UNL     1      20.738   0.439  54.007  1.00  0.00     0.004 A 
HETATM   20  C9  UNL     1      21.605  -0.395  54.673  1.00  0.00     0.037 A 
HETATM   21  C8  UNL     1      22.932  -0.513  54.331  1.00  0.00     0.069 A 
HETATM   22  C25 UNL     1      23.314   0.291  53.245  1.00  0.00     0.049 A 
BRANCH  21  23
HETATM   23  O1  UNL     1      23.925  -1.257  54.851  1.00  0.00    -0.349 OA
BRANCH  23  24
HETATM   24  C7  UNL     1      24.873  -0.988  55.832  1.00  0.00     0.207 C 
BRANCH  24  25
HETATM   25  C6  UNL     1      26.202  -0.522  55.306  1.00  0.00     0.146 C 
HETATM   26  C5  UNL     1      26.169   0.955  54.939  1.00  0.00     0.037 C 
HETATM   27  C4  UNL     1      27.217   0.994  53.846  1.00  0.00     0.040 C 
HETATM   28  C2  UNL     1      27.215  -0.395  53.319  1.00  0.00     0.054 C 
HETATM   29  C1  UNL     1      26.692  -0.475  51.898  1.00  0.00     0.045 C 
HETATM   30  C3  UNL     1      28.591  -1.026  53.297  1.00  0.00     0.045 C 
HETATM   31  O2  UNL     1      26.414  -1.197  54.112  1.00  0.00    -0.373 OA
ENDBRANCH  24  25
ENDBRANCH  23  24
ENDBRANCH  21  23
ENDBRANCH   1  17
BRANCH  14  32
HETATM   32  N4  UNL     1      20.665   0.614  49.885  1.00  0.00    -0.383 N 
HETATM   33  H28 UNL     1      19.801   0.444  49.287  1.00  0.00     0.157 HD
HETATM   34  H29 UNL     1      20.938   0.129  50.774  1.00  0.00     0.157 HD
ENDBRANCH  14  32
TORSDOF 5
ENDMDL
MODEL 6
REMARK VINA RESULT:      -9.1      5.076      9.696
REMARK  5 active torsions:
REMARK  status: ('A' for Active; 'I' for Inactive)
REMARK    1  A    between atoms: C6_6  and  C7_7 
REMARK    2  A    between atoms: C7_7  and  O1_8 
REMARK    3  A    between atoms: O1_8  and  C8_9 
REMARK    4  A    between atoms: C12_13  and  C13_14 
REMARK    5  A    between atoms: C23_27  and  N4_28 
ROOT
HETATM    1  C13 UNL     1      30.830   6.734  47.108  1.00  0.00     0.004 C 
HETATM    2  C14 UNL     1      31.139   7.381  45.989  1.00  0.00     0.101 C 
HETATM    3  N1  UNL     1      32.483   7.303  45.580  1.00  0.00    -0.358 N 
HETATM    4  C15 UNL     1      33.516   7.678  44.636  1.00  0.00     0.134 C 
HETATM    5  C16 UNL     1      33.485   6.502  43.654  1.00  0.00     0.036 A 
HETATM    6  C17 UNL     1      34.636   6.221  42.804  1.00  0.00     0.038 A 
HETATM    7  C18 UNL     1      34.778   5.013  43.635  1.00  0.00    -0.023 A 
HETATM    8  C19 UNL     1      33.761   5.243  44.417  1.00  0.00    -0.073 A 
HETATM    9  C20 UNL     1      32.826   4.960  45.595  1.00  0.00     0.093 C 
HETATM   10  C21 UNL     1      32.990   6.268  46.456  1.00  0.00     0.143 C 
HETATM   11  N2  UNL     1      34.370   6.227  46.777  1.00  0.00    -0.354 N 
HETATM   12  C22 UNL     1      34.774   5.857  48.116  1.00  0.00     0.207 C 
HETATM   13  N3  UNL     1      33.932   5.790  49.121  1.00  0.00    -0.227 NA
HETATM   14  C23 UNL     1      32.575   6.086  48.824  1.00  0.00     0.134 C 
HETATM   15  C24 UNL     1      32.149   6.380  47.605  1.00  0.00     0.049 C 
HETATM   16  H26 UNL     1      35.287   6.399  46.274  1.00  0.00     0.163 HD
ENDROOT
BRANCH   1  17
HETATM   17  C12 UNL     1      29.512   6.676  47.673  1.00  0.00    -0.021 A 
HETATM   18  C11 UNL     1      28.639   7.694  47.794  1.00  0.00     0.012 A 
HETATM   19  C10 UNL     1      27.365   7.567  48.289  1.00  0.00     0.004 A 
HETATM   20  C9  UNL     1      26.929   6.328  48.695  1.00  0.00     0.037 A 
HETATM   21  C8  UNL     1      27.719   5.204  48.627  1.00  0.00     0.069 A 
HETATM   22  C25 UNL     1      29.001   5.440  48.107  1.00  0.00     0.049 A 
BRANCH  21  23
HETATM   23  O1  UNL     1      27.483   3.924  48.971  1.00  0.00    -0.349 OA
BRANCH  23  24
HETATM   24  C7  UNL     1      26.324   3.267  49.368  1.00  0.00     0.207 C 
BRANCH  24  25
HETATM   25  C6  UNL     1      26.093   3.247  50.853  1.00  0.00     0.146 C 
HETATM   26  C5  UNL     1      26.805   2.075  51.512  1.00  0.00     0.037 C 
HETATM   27  C4  UNL     1      25.904   1.837  52.705  1.00  0.00     0.040 C 
HETATM   28  C2  UNL     1      24.593   2.373  52.258  1.00  0.00     0.054 C 
HETATM   29  C1  UNL     1      23.548   1.286  52.092  1.00  0.00     0.045 C 
HETATM   30  C3  UNL     1      24.002   3.381  53.221  1.00  0.00     0.045 C 
HETATM   31  O2  UNL     1      24.738   3.012  51.040  1.00  0.00    -0.373 OA
ENDBRANCH  24  25
ENDBRANCH  23  24
ENDBRANCH  21  23
ENDBRANCH   1  17
BRANCH  14  32
HETATM   32  N4  UNL     1      31.735   6.092  49.967  1.00  0.00    -0.383 N 
HETATM   33  H28 UNL     1      31.746   7.017  50.494  1.00  0.00     0.157 HD
HETATM   34  H29 UNL     1      31.190   5.227  50.197  1.00  0.00     0.157 HD
ENDBRANCH  14  32
TORSDOF 5
ENDMDL
MODEL 7
REMARK VINA RESULT:      -9.0      4.483      7.758
REMARK  5 active torsions:
REMARK  status: ('A' for Active; 'I' for Inactive)
REMARK    1  A    between atoms: C6_6  and  C7_7 
REMARK    2  A    between atoms: C7_7  and  O1_8 
REMARK    3  A    between atoms: O1_8  and  C8_9 
REMARK    4  A    between atoms: C12_13  and  C13_14 
REMARK    5  A    between atoms: C23_27  and  N4_28 
ROOT
HETATM    1  C13 UNL     1      27.150   6.084  48.690  1.00  0.00     0.004 C 
HETATM    2  C14 UNL     1      26.941   4.800  48.959  1.00  0.00     0.101 C 
HETATM    3  N1  UNL     1      25.749   4.497  49.644  1.00  0.00    -0.358 N 
HETATM    4  C15 UNL     1      24.888   3.506  50.256  1.00  0.00     0.134 C 
HETATM    5  C16 UNL     1      23.934   3.165  49.105  1.00  0.00     0.036 A 
HETATM    6  C17 UNL     1      22.637   2.559  49.378  1.00  0.00     0.038 A 
HETATM    7  C18 UNL     1      22.094   3.850  48.923  1.00  0.00    -0.023 A 
HETATM    8  C19 UNL     1      23.240   4.423  48.680  1.00  0.00    -0.073 A 
HETATM    9  C20 UNL     1      24.152   5.582  48.272  1.00  0.00     0.093 C 
HETATM   10  C21 UNL     1      25.042   5.758  49.559  1.00  0.00     0.143 C 
HETATM   11  N2  UNL     1      24.070   6.090  50.534  1.00  0.00    -0.354 N 
HETATM   12  C22 UNL     1      23.964   7.458  50.992  1.00  0.00     0.207 C 
HETATM   13  N3  UNL     1      24.876   8.367  50.735  1.00  0.00    -0.227 NA
HETATM   14  C23 UNL     1      25.984   7.941  49.955  1.00  0.00     0.134 C 
HETATM   15  C24 UNL     1      26.100   6.713  49.472  1.00  0.00     0.049 C 
HETATM   16  H26 UNL     1      23.316   5.582  51.081  1.00  0.00     0.163 HD
ENDROOT
BRANCH   1  17
HETATM   17  C12 UNL     1      28.293   6.587  47.982  1.00  0.00    -0.021 A 
HETATM   18  C11 UNL     1      28.286   7.410  46.917  1.00  0.00     0.012 A 
HETATM   19  C10 UNL     1      29.415   7.909  46.315  1.00  0.00     0.004 A 
HETATM   20  C9  UNL     1      30.647   7.557  46.816  1.00  0.00     0.037 A 
HETATM   21  C8  UNL     1      30.797   6.722  47.898  1.00  0.00     0.069 A 
HETATM   22  C25 UNL     1      29.584   6.268  48.440  1.00  0.00     0.049 A 
BRANCH  21  23
HETATM   23  O1  UNL     1      31.895   6.263  48.526  1.00  0.00    -0.349 OA
BRANCH  23  24
HETATM   24  C7  UNL     1      33.234   6.228  48.152  1.00  0.00     0.207 C 
BRANCH  24  25
HETATM   25  C6  UNL     1      33.805   4.846  48.000  1.00  0.00     0.146 C 
HETATM   26  C5  UNL     1      34.440   4.653  46.631  1.00  0.00     0.037 C 
HETATM   27  C4  UNL     1      34.257   3.162  46.446  1.00  0.00     0.040 C 
HETATM   28  C2  UNL     1      33.083   2.851  47.302  1.00  0.00     0.054 C 
HETATM   29  C1  UNL     1      31.872   2.429  46.493  1.00  0.00     0.045 C 
HETATM   30  C3  UNL     1      33.343   1.732  48.287  1.00  0.00     0.045 C 
HETATM   31  O2  UNL     1      32.732   3.967  48.040  1.00  0.00    -0.373 OA
ENDBRANCH  24  25
ENDBRANCH  23  24
ENDBRANCH  21  23
ENDBRANCH   1  17
BRANCH  14  32
HETATM   32  N4  UNL     1      26.979   8.939  49.795  1.00  0.00    -0.383 N 
HETATM   33  H28 UNL     1      27.196   9.468  50.692  1.00  0.00     0.157 HD
HETATM   34  H29 UNL     1      27.408   9.076  48.848  1.00  0.00     0.157 HD
ENDBRANCH  14  32
TORSDOF 5
ENDMDL
MODEL 8
REMARK VINA RESULT:      -9.0      2.426      5.249
REMARK  5 active torsions:
REMARK  status: ('A' for Active; 'I' for Inactive)
REMARK    1  A    between atoms: C6_6  and  C7_7 
REMARK    2  A    between atoms: C7_7  and  O1_8 
REMARK    3  A    between atoms: O1_8  and  C8_9 
REMARK    4  A    between atoms: C12_13  and  C13_14 
REMARK    5  A    between atoms: C23_27  and  N4_28 
ROOT
HETATM    1  C13 UNL     1      24.995   3.608  50.005  1.00  0.00     0.004 C 
HETATM    2  C14 UNL     1      23.943   3.203  49.301  1.00  0.00     0.101 C 
HETATM    3  N1  UNL     1      23.050   2.341  49.964  1.00  0.00    -0.358 N 
HETATM    4  C15 UNL     1      21.846   1.536  49.928  1.00  0.00     0.134 C 
HETATM    5  C16 UNL     1      20.796   2.514  50.466  1.00  0.00     0.036 A 
HETATM    6  C17 UNL     1      19.544   2.019  51.024  1.00  0.00     0.038 A 
HETATM    7  C18 UNL     1      20.085   2.508  52.305  1.00  0.00    -0.023 A 
HETATM    8  C19 UNL     1      21.218   2.951  51.836  1.00  0.00    -0.073 A 
HETATM    9  C20 UNL     1      22.610   3.576  51.937  1.00  0.00     0.093 C 
HETATM   10  C21 UNL     1      23.517   2.440  51.331  1.00  0.00     0.143 C 
HETATM   11  N2  UNL     1      23.283   1.376  52.237  1.00  0.00    -0.354 N 
HETATM   12  C22 UNL     1      24.304   1.029  53.201  1.00  0.00     0.207 C 
HETATM   13  N3  UNL     1      25.534   1.484  53.130  1.00  0.00    -0.227 NA
HETATM   14  C23 UNL     1      25.816   2.366  52.052  1.00  0.00     0.134 C 
HETATM   15  C24 UNL     1      24.902   2.751  51.175  1.00  0.00     0.049 C 
HETATM   16  H26 UNL     1      22.499   0.692  52.442  1.00  0.00     0.163 HD
ENDROOT
BRANCH   1  17
HETATM   17  C12 UNL     1      26.003   4.504  49.513  1.00  0.00    -0.021 A 
HETATM   18  C11 UNL     1      27.179   4.168  48.951  1.00  0.00     0.012 A 
HETATM   19  C10 UNL     1      28.080   5.069  48.441  1.00  0.00     0.004 A 
HETATM   20  C9  UNL     1      27.785   6.411  48.499  1.00  0.00     0.037 A 
HETATM   21  C8  UNL     1      26.619   6.891  49.048  1.00  0.00     0.069 A 
HETATM   22  C25 UNL     1      25.766   5.890  49.539  1.00  0.00     0.049 A 
BRANCH  21  23
HETATM   23  O1  UNL     1      26.153   8.144  49.200  1.00  0.00    -0.349 OA
BRANCH  23  24
HETATM   24  C7  UNL     1      26.580   9.205  49.991  1.00  0.00     0.207 C 
BRANCH  24  25
HETATM   25  C6  UNL     1      27.582  10.113  49.333  1.00  0.00     0.146 C 
HETATM   26  C5  UNL     1      27.467  10.063  47.816  1.00  0.00     0.037 C 
HETATM   27  C4  UNL     1      28.890  10.390  47.417  1.00  0.00     0.040 C 
HETATM   28  C2  UNL     1      29.684   9.958  48.596  1.00  0.00     0.054 C 
HETATM   29  C1  UNL     1      30.576   8.770  48.291  1.00  0.00     0.045 C 
HETATM   30  C3  UNL     1      30.596  11.043  49.130  1.00  0.00     0.045 C 
HETATM   31  O2  UNL     1      28.837   9.598  49.628  1.00  0.00    -0.373 OA
ENDBRANCH  24  25
ENDBRANCH  23  24
ENDBRANCH  21  23
ENDBRANCH   1  17
BRANCH  14  32
HETATM   32  N4  UNL     1      27.181   2.744  51.974  1.00  0.00    -0.383 N 
HETATM   33  H28 UNL     1      27.850   1.917  51.996  1.00  0.00     0.157 HD
HETATM   34  H29 UNL     1      27.418   3.762  51.903  1.00  0.00     0.157 HD
ENDBRANCH  14  32
TORSDOF 5
ENDMDL
MODEL 9
REMARK VINA RESULT:      -8.9      2.335      5.634
REMARK  5 active torsions:
REMARK  status: ('A' for Active; 'I' for Inactive)
REMARK    1  A    between atoms: C6_6  and  C7_7 
REMARK    2  A    between atoms: C7_7  and  O1_8 
REMARK    3  A    between atoms: O1_8  and  C8_9 
REMARK    4  A    between atoms: C12_13  and  C13_14 
REMARK    5  A    between atoms: C23_27  and  N4_28 
ROOT
HETATM    1  C13 UNL     1      24.875   3.341  50.144  1.00  0.00     0.004 C 
HETATM    2  C14 UNL     1      23.837   2.843  49.480  1.00  0.00     0.101 C 
HETATM    3  N1  UNL     1      23.042   1.916  50.179  1.00  0.00    -0.358 N 
HETATM    4  C15 UNL     1      21.909   1.012  50.191  1.00  0.00     0.134 C 
HETATM    5  C16 UNL     1      20.801   1.905  50.759  1.00  0.00     0.036 A 
HETATM    6  C17 UNL     1      19.615   1.312  51.365  1.00  0.00     0.038 A 
HETATM    7  C18 UNL     1      20.157   1.856  52.623  1.00  0.00    -0.023 A 
HETATM    8  C19 UNL     1      21.232   2.387  52.111  1.00  0.00    -0.073 A 
HETATM    9  C20 UNL     1      22.570   3.127  52.159  1.00  0.00     0.093 C 
HETATM   10  C21 UNL     1      23.547   2.065  51.528  1.00  0.00     0.143 C 
HETATM   11  N2  UNL     1      23.434   0.994  52.448  1.00  0.00    -0.354 N 
HETATM   12  C22 UNL     1      24.514   0.742  53.378  1.00  0.00     0.207 C 
HETATM   13  N3  UNL     1      25.698   1.298  53.261  1.00  0.00    -0.227 NA
HETATM   14  C23 UNL     1      25.867   2.189  52.168  1.00  0.00     0.134 C 
HETATM   15  C24 UNL     1      24.895   2.489  51.321  1.00  0.00     0.049 C 
HETATM   16  H26 UNL     1      22.718   0.248  52.685  1.00  0.00     0.163 HD
ENDROOT
BRANCH   1  17
HETATM   17  C12 UNL     1      25.786   4.313  49.610  1.00  0.00    -0.021 A 
HETATM   18  C11 UNL     1      27.008   4.078  49.096  1.00  0.00     0.012 A 
HETATM   19  C10 UNL     1      27.814   5.043  48.543  1.00  0.00     0.004 A 
HETATM   20  C9  UNL     1      27.365   6.342  48.502  1.00  0.00     0.037 A 
HETATM   21  C8  UNL     1      26.138   6.719  48.994  1.00  0.00     0.069 A 
HETATM   22  C25 UNL     1      25.392   5.660  49.536  1.00  0.00     0.049 A 
BRANCH  21  23
HETATM   23  O1  UNL     1      25.528   7.917  49.050  1.00  0.00    -0.349 OA
BRANCH  23  24
HETATM   24  C7  UNL     1      24.534   8.492  48.265  1.00  0.00     0.207 C 
BRANCH  24  25
HETATM   25  C6  UNL     1      23.167   8.496  48.890  1.00  0.00     0.146 C 
HETATM   26  C5  UNL     1      23.234   8.183  50.378  1.00  0.00     0.037 C 
HETATM   27  C4  UNL     1      21.878   7.545  50.591  1.00  0.00     0.040 C 
HETATM   28  C2  UNL     1      21.534   7.014  49.247  1.00  0.00     0.054 C 
HETATM   29  C1  UNL     1      21.503   5.498  49.211  1.00  0.00     0.045 C 
HETATM   30  C3  UNL     1      20.178   7.475  48.754  1.00  0.00     0.045 C 
HETATM   31  O2  UNL     1      22.468   7.441  48.320  1.00  0.00    -0.373 OA
ENDBRANCH  24  25
ENDBRANCH  23  24
ENDBRANCH  21  23
ENDBRANCH   1  17
BRANCH  14  32
HETATM   32  N4  UNL     1      27.193   2.679  52.039  1.00  0.00    -0.383 N 
HETATM   33  H28 UNL     1      27.240   3.690  51.709  1.00  0.00     0.157 HD
HETATM   34  H29 UNL     1      27.991   2.039  52.268  1.00  0.00     0.157 HD
ENDBRANCH  14  32
TORSDOF 5
ENDMDL
