MODEL 1
REMARK VINA RESULT:      -6.1      0.000      0.000
REMARK  4 active torsions:
REMARK  status: ('A' for Active; 'I' for Inactive)
REMARK    1  A    between atoms: C2_2  and  O1_3 
REMARK    2  A    between atoms: O1_3  and  C3_4 
REMARK    3  A    between atoms: C8_11  and  C9_12 
REMARK    4  A    between atoms: C9_12  and  N1_13 
ROOT
HETATM    1  C3  UNL     1      23.780   0.635  52.489  1.00  0.00     0.060 C 
HETATM    2  C4  UNL     1      22.546   1.079  52.109  1.00  0.00     0.009 C 
HETATM    3  C5  UNL     1      22.427   2.114  51.116  1.00  0.00     0.056 C 
HETATM    4  C6  UNL     1      22.310   3.527  51.476  1.00  0.00     0.122 C 
HETATM    5 BR1  UNL     1      23.595   4.279  52.641  1.00  0.00    -0.079 Br
HETATM    6  S1  UNL     1      22.482   4.473  49.837  1.00  0.00    -0.148 SA
HETATM    7  C7  UNL     1      23.925   3.922  49.023  1.00  0.00     0.111 C 
HETATM    8  C8  UNL     1      25.207   4.462  49.413  1.00  0.00    -0.037 C 
HETATM    9  C12 UNL     1      26.099   3.919  50.213  1.00  0.00     0.079 C 
HETATM   10  C13 UNL     1      26.524   2.842  51.095  1.00  0.00     0.241 C 
HETATM   11  O2  UNL     1      27.386   2.230  51.771  1.00  0.00    -0.269 OA
HETATM   12  N2  UNL     1      25.796   1.762  51.754  1.00  0.00    -0.351 N 
HETATM   13  C14 UNL     1      25.242   0.614  52.497  1.00  0.00     0.187 C 
HETATM   14  H21 UNL     1      24.974   2.095  51.252  1.00  0.00     0.163 HD
ENDROOT
BRANCH   8  15
HETATM   15  C9  UNL     1      25.537   5.763  48.818  1.00  0.00     0.306 C 
BRANCH  15  16
HETATM   16  N1  UNL     1      26.084   6.757  49.710  1.00  0.00     0.083 N 
HETATM   17  C10 UNL     1      24.941   7.456  50.325  1.00  0.00     0.309 C 
HETATM   18  C11 UNL     1      26.883   7.740  48.974  1.00  0.00     0.309 C 
ENDBRANCH  15  16
ENDBRANCH   8  15
BRANCH   1  19
HETATM   19  O1  UNL     1      23.476  -0.374  53.433  1.00  0.00    -0.354 OA
BRANCH  19  20
HETATM   20  C2  UNL     1      22.313  -1.156  53.315  1.00  0.00     0.171 C 
HETATM   21  C1  UNL     1      21.767  -1.565  54.674  1.00  0.00     0.034 C 
ENDBRANCH  19  20
ENDBRANCH   1  19
TORSDOF 4
ENDMDL
MODEL 2
REMARK VINA RESULT:      -6.1      2.614      4.136
REMARK  4 active torsions:
REMARK  status: ('A' for Active; 'I' for Inactive)
REMARK    1  A    between atoms: C2_2  and  O1_3 
REMARK    2  A    between atoms: O1_3  and  C3_4 
REMARK    3  A    between atoms: C8_11  and  C9_12 
REMARK    4  A    between atoms: C9_12  and  N1_13 
ROOT
HETATM    1  C3  UNL     1      26.214   1.202  52.905  1.00  0.00     0.060 C 
HETATM    2  C4  UNL     1      25.010   0.724  53.336  1.00  0.00     0.009 C 
HETATM    3  C5  UNL     1      23.836   0.888  52.520  1.00  0.00     0.056 C 
HETATM    4  C6  UNL     1      22.921   2.016  52.690  1.00  0.00     0.122 C 
HETATM    5 BR1  UNL     1      23.626   3.770  52.678  1.00  0.00    -0.079 Br
HETATM    6  S1  UNL     1      21.738   1.925  51.207  1.00  0.00    -0.148 SA
HETATM    7  C7  UNL     1      22.683   1.814  49.744  1.00  0.00     0.111 C 
HETATM    8  C8  UNL     1      23.236   3.017  49.166  1.00  0.00    -0.037 C 
HETATM    9  C12 UNL     1      24.463   3.477  49.286  1.00  0.00     0.079 C 
HETATM   10  C13 UNL     1      25.809   3.375  49.830  1.00  0.00     0.241 C 
HETATM   11  O2  UNL     1      27.018   3.707  49.882  1.00  0.00    -0.269 OA
HETATM   12  N2  UNL     1      26.372   2.597  50.930  1.00  0.00    -0.351 N 
HETATM   13  C14 UNL     1      27.119   1.899  51.993  1.00  0.00     0.187 C 
HETATM   14  H21 UNL     1      25.448   2.177  51.022  1.00  0.00     0.163 HD
ENDROOT
BRANCH   8  15
HETATM   15  C9  UNL     1      22.303   3.791  48.338  1.00  0.00     0.306 C 
BRANCH  15  16
HETATM   16  N1  UNL     1      21.579   3.055  47.329  1.00  0.00     0.083 N 
HETATM   17  C10 UNL     1      21.919   3.661  46.029  1.00  0.00     0.309 C 
HETATM   18  C11 UNL     1      20.131   3.177  47.529  1.00  0.00     0.309 C 
ENDBRANCH  15  16
ENDBRANCH   8  15
BRANCH   1  19
HETATM   19  O1  UNL     1      27.094   0.828  53.948  1.00  0.00    -0.354 OA
BRANCH  19  20
HETATM   20  C2  UNL     1      28.490   0.863  53.772  1.00  0.00     0.171 C 
HETATM   21  C1  UNL     1      29.112  -0.517  53.926  1.00  0.00     0.034 C 
ENDBRANCH  19  20
ENDBRANCH   1  19
TORSDOF 4
ENDMDL
MODEL 3
REMARK VINA RESULT:      -6.1      3.534      5.636
REMARK  4 active torsions:
REMARK  status: ('A' for Active; 'I' for Inactive)
REMARK    1  A    between atoms: C2_2  and  O1_3 
REMARK    2  A    between atoms: O1_3  and  C3_4 
REMARK    3  A    between atoms: C8_11  and  C9_12 
REMARK    4  A    between atoms: C9_12  and  N1_13 
ROOT
HETATM    1  C3  UNL     1      21.910   1.441  50.808  1.00  0.00     0.060 C 
HETATM    2  C4  UNL     1      22.791   2.272  50.177  1.00  0.00     0.009 C 
HETATM    3  C5  UNL     1      24.201   2.162  50.441  1.00  0.00     0.056 C 
HETATM    4  C6  UNL     1      24.869   2.985  51.450  1.00  0.00     0.122 C 
HETATM    5 BR1  UNL     1      24.167   3.026  53.203  1.00  0.00    -0.079 Br
HETATM    6  S1  UNL     1      26.615   2.254  51.609  1.00  0.00    -0.148 SA
HETATM    7  C7  UNL     1      26.479   0.534  51.873  1.00  0.00     0.111 C 
HETATM    8  C8  UNL     1      26.205   0.042  53.205  1.00  0.00    -0.037 C 
HETATM    9  C12 UNL     1      25.046  -0.332  53.701  1.00  0.00     0.079 C 
HETATM   10  C13 UNL     1      23.609  -0.523  53.565  1.00  0.00     0.241 C 
HETATM   11  O2  UNL     1      22.503  -0.975  53.950  1.00  0.00    -0.269 OA
HETATM   12  N2  UNL     1      22.633  -0.017  52.603  1.00  0.00    -0.351 N 
HETATM   13  C14 UNL     1      21.509   0.388  51.739  1.00  0.00     0.187 C 
HETATM   14  H21 UNL     1      23.424   0.404  52.118  1.00  0.00     0.163 HD
ENDROOT
BRANCH   8  15
HETATM   15  C9  UNL     1      27.378  -0.057  54.081  1.00  0.00     0.306 C 
BRANCH  15  16
HETATM   16  N1  UNL     1      28.652   0.270  53.487  1.00  0.00     0.083 N 
HETATM   17  C10 UNL     1      29.492  -0.938  53.580  1.00  0.00     0.309 C 
HETATM   18  C11 UNL     1      29.315   1.348  54.227  1.00  0.00     0.309 C 
ENDBRANCH  15  16
ENDBRANCH   8  15
BRANCH   1  19
HETATM   19  O1  UNL     1      20.662   1.837  50.271  1.00  0.00    -0.354 OA
BRANCH  19  20
HETATM   20  C2  UNL     1      20.253   3.183  50.294  1.00  0.00     0.171 C 
HETATM   21  C1  UNL     1      19.494   3.520  51.569  1.00  0.00     0.034 C 
ENDBRANCH  19  20
ENDBRANCH   1  19
TORSDOF 4
ENDMDL
MODEL 4
REMARK VINA RESULT:      -5.9      2.213      3.037
REMARK  4 active torsions:
REMARK  status: ('A' for Active; 'I' for Inactive)
REMARK    1  A    between atoms: C2_2  and  O1_3 
REMARK    2  A    between atoms: O1_3  and  C3_4 
REMARK    3  A    between atoms: C8_11  and  C9_12 
REMARK    4  A    between atoms: C9_12  and  N1_13 
ROOT
HETATM    1  C3  UNL     1      25.737   0.799  52.711  1.00  0.00     0.060 C 
HETATM    2  C4  UNL     1      24.438   0.497  53.005  1.00  0.00     0.009 C 
HETATM    3  C5  UNL     1      23.379   0.960  52.147  1.00  0.00     0.056 C 
HETATM    4  C6  UNL     1      22.658   2.207  52.407  1.00  0.00     0.122 C 
HETATM    5 BR1  UNL     1      23.649   3.795  52.662  1.00  0.00    -0.079 Br
HETATM    6  S1  UNL     1      21.601   2.501  50.857  1.00  0.00    -0.148 SA
HETATM    7  C7  UNL     1      22.629   2.393  49.450  1.00  0.00     0.111 C 
HETATM    8  C8  UNL     1      23.423   3.538  49.066  1.00  0.00    -0.037 C 
HETATM    9  C12 UNL     1      24.696   3.755  49.316  1.00  0.00     0.079 C 
HETATM   10  C13 UNL     1      25.957   3.351  49.921  1.00  0.00     0.241 C 
HETATM   11  O2  UNL     1      27.197   3.454  50.088  1.00  0.00    -0.269 OA
HETATM   12  N2  UNL     1      26.289   2.363  50.944  1.00  0.00    -0.351 N 
HETATM   13  C14 UNL     1      26.818   1.425  51.951  1.00  0.00     0.187 C 
HETATM   14  H21 UNL     1      25.303   2.107  50.926  1.00  0.00     0.163 HD
ENDROOT
BRANCH   8  15
HETATM   15  C9  UNL     1      22.705   4.557  48.290  1.00  0.00     0.306 C 
BRANCH  15  16
HETATM   16  N1  UNL     1      22.974   5.933  48.632  1.00  0.00     0.083 N 
HETATM   17  C10 UNL     1      21.927   6.351  49.582  1.00  0.00     0.309 C 
HETATM   18  C11 UNL     1      22.892   6.794  47.449  1.00  0.00     0.309 C 
ENDBRANCH  15  16
ENDBRANCH   8  15
BRANCH   1  19
HETATM   19  O1  UNL     1      26.453   0.155  53.748  1.00  0.00    -0.354 OA
BRANCH  19  20
HETATM   20  C2  UNL     1      27.818  -0.158  53.605  1.00  0.00     0.171 C 
HETATM   21  C1  UNL     1      28.605   0.166  54.866  1.00  0.00     0.034 C 
ENDBRANCH  19  20
ENDBRANCH   1  19
TORSDOF 4
ENDMDL
MODEL 5
REMARK VINA RESULT:      -5.9      2.435      6.319
REMARK  4 active torsions:
REMARK  status: ('A' for Active; 'I' for Inactive)
REMARK    1  A    between atoms: C2_2  and  O1_3 
REMARK    2  A    between atoms: O1_3  and  C3_4 
REMARK    3  A    between atoms: C8_11  and  C9_12 
REMARK    4  A    between atoms: C9_12  and  N1_13 
ROOT
HETATM    1  C3  UNL     1      26.175   3.913  49.870  1.00  0.00     0.060 C 
HETATM    2  C4  UNL     1      25.344   4.894  49.408  1.00  0.00     0.009 C 
HETATM    3  C5  UNL     1      23.998   4.992  49.910  1.00  0.00     0.056 C 
HETATM    4  C6  UNL     1      22.867   4.362  49.229  1.00  0.00     0.122 C 
HETATM    5 BR1  UNL     1      22.969   2.523  48.806  1.00  0.00    -0.079 Br
HETATM    6  S1  UNL     1      21.406   4.535  50.431  1.00  0.00    -0.148 SA
HETATM    7  C7  UNL     1      21.895   3.936  51.996  1.00  0.00     0.111 C 
HETATM    8  C8  UNL     1      21.870   2.513  52.248  1.00  0.00    -0.037 C 
HETATM    9  C12 UNL     1      22.880   1.671  52.207  1.00  0.00     0.079 C 
HETATM   10  C13 UNL     1      24.288   1.389  51.970  1.00  0.00     0.241 C 
HETATM   11  O2  UNL     1      25.303   0.652  52.029  1.00  0.00    -0.269 OA
HETATM   12  N2  UNL     1      25.344   2.137  51.293  1.00  0.00    -0.351 N 
HETATM   13  C14 UNL     1      26.532   2.735  50.657  1.00  0.00     0.187 C 
HETATM   14  H21 UNL     1      24.657   2.880  51.178  1.00  0.00     0.163 HD
ENDROOT
BRANCH   8  15
HETATM   15  C9  UNL     1      20.554   1.972  52.608  1.00  0.00     0.306 C 
BRANCH  15  16
HETATM   16  N1  UNL     1      20.127   0.794  51.891  1.00  0.00     0.083 N 
HETATM   17  C10 UNL     1      19.267   1.254  50.785  1.00  0.00     0.309 C 
HETATM   18  C11 UNL     1      19.334  -0.086  52.754  1.00  0.00     0.309 C 
ENDBRANCH  15  16
ENDBRANCH   8  15
BRANCH   1  19
HETATM   19  O1  UNL     1      27.380   4.167  49.173  1.00  0.00    -0.354 OA
BRANCH  19  20
HETATM   20  C2  UNL     1      27.608   5.402  48.538  1.00  0.00     0.171 C 
HETATM   21  C1  UNL     1      29.080   5.604  48.210  1.00  0.00     0.034 C 
ENDBRANCH  19  20
ENDBRANCH   1  19
TORSDOF 4
ENDMDL
MODEL 6
REMARK VINA RESULT:      -5.8      2.909      6.256
REMARK  4 active torsions:
REMARK  status: ('A' for Active; 'I' for Inactive)
REMARK    1  A    between atoms: C2_2  and  O1_3 
REMARK    2  A    between atoms: O1_3  and  C3_4 
REMARK    3  A    between atoms: C8_11  and  C9_12 
REMARK    4  A    between atoms: C9_12  and  N1_13 
ROOT
HETATM    1  C3  UNL     1      24.165   6.367  50.685  1.00  0.00     0.060 C 
HETATM    2  C4  UNL     1      23.196   5.926  51.541  1.00  0.00     0.009 C 
HETATM    3  C5  UNL     1      23.369   4.683  52.246  1.00  0.00     0.056 C 
HETATM    4  C6  UNL     1      22.837   3.419  51.735  1.00  0.00     0.122 C 
HETATM    5 BR1  UNL     1      23.258   2.903  49.967  1.00  0.00    -0.079 Br
HETATM    6  S1  UNL     1      23.581   2.079  52.857  1.00  0.00    -0.148 SA
HETATM    7  C7  UNL     1      25.311   2.305  52.926  1.00  0.00     0.111 C 
HETATM    8  C8  UNL     1      26.135   1.795  51.853  1.00  0.00    -0.037 C 
HETATM    9  C12 UNL     1      26.628   2.461  50.832  1.00  0.00     0.079 C 
HETATM   10  C13 UNL     1      26.779   3.696  50.075  1.00  0.00     0.241 C 
HETATM   11  O2  UNL     1      27.318   4.400  49.187  1.00  0.00    -0.269 OA
HETATM   12  N2  UNL     1      26.041   4.956  50.086  1.00  0.00    -0.351 N 
HETATM   13  C14 UNL     1      25.426   6.289  49.950  1.00  0.00     0.187 C 
HETATM   14  H21 UNL     1      25.506   4.563  50.858  1.00  0.00     0.163 HD
ENDROOT
BRANCH   8  15
HETATM   15  C9  UNL     1      26.458   0.366  51.947  1.00  0.00     0.306 C 
BRANCH  15  16
HETATM   16  N1  UNL     1      26.798  -0.129  53.259  1.00  0.00     0.083 N 
HETATM   17  C10 UNL     1      28.099  -0.813  53.135  1.00  0.00     0.309 C 
HETATM   18  C11 UNL     1      25.808  -1.105  53.724  1.00  0.00     0.309 C 
ENDBRANCH  15  16
ENDBRANCH   8  15
BRANCH   1  19
HETATM   19  O1  UNL     1      23.644   7.601  50.228  1.00  0.00    -0.354 OA
BRANCH  19  20
HETATM   20  C2  UNL     1      23.571   7.897  48.855  1.00  0.00     0.171 C 
HETATM   21  C1  UNL     1      22.330   7.296  48.213  1.00  0.00     0.034 C 
ENDBRANCH  19  20
ENDBRANCH   1  19
TORSDOF 4
ENDMDL
MODEL 7
REMARK VINA RESULT:      -5.8      3.338      6.006
REMARK  4 active torsions:
REMARK  status: ('A' for Active; 'I' for Inactive)
REMARK    1  A    between atoms: C2_2  and  O1_3 
REMARK    2  A    between atoms: O1_3  and  C3_4 
REMARK    3  A    between atoms: C8_11  and  C9_12 
REMARK    4  A    between atoms: C9_12  and  N1_13 
ROOT
HETATM    1  C3  UNL     1      25.045   1.548  53.356  1.00  0.00     0.060 C 
HETATM    2  C4  UNL     1      24.914   2.869  53.036  1.00  0.00     0.009 C 
HETATM    3  C5  UNL     1      23.613   3.415  52.750  1.00  0.00     0.056 C 
HETATM    4  C6  UNL     1      23.094   3.514  51.385  1.00  0.00     0.122 C 
HETATM    5 BR1  UNL     1      23.093   1.969  50.297  1.00  0.00    -0.079 Br
HETATM    6  S1  UNL     1      21.271   4.009  51.583  1.00  0.00    -0.148 SA
HETATM    7  C7  UNL     1      20.510   2.905  52.701  1.00  0.00     0.111 C 
HETATM    8  C8  UNL     1      20.059   1.617  52.227  1.00  0.00    -0.037 C 
HETATM    9  C12 UNL     1      20.672   0.459  52.336  1.00  0.00     0.079 C 
HETATM   10  C13 UNL     1      21.814  -0.337  52.763  1.00  0.00     0.241 C 
HETATM   11  O2  UNL     1      22.387  -1.429  52.996  1.00  0.00    -0.269 OA
HETATM   12  N2  UNL     1      23.174   0.021  53.155  1.00  0.00    -0.351 N 
HETATM   13  C14 UNL     1      24.578   0.181  53.578  1.00  0.00     0.187 C 
HETATM   14  H21 UNL     1      22.881   0.991  53.054  1.00  0.00     0.163 HD
ENDROOT
BRANCH   8  15
HETATM   15  C9  UNL     1      18.749   1.627  51.563  1.00  0.00     0.306 C 
BRANCH  15  16
HETATM   16  N1  UNL     1      18.703   1.083  50.227  1.00  0.00     0.083 N 
HETATM   17  C10 UNL     1      18.680   2.227  49.298  1.00  0.00     0.309 C 
HETATM   18  C11 UNL     1      17.481   0.299  50.021  1.00  0.00     0.309 C 
ENDBRANCH  15  16
ENDBRANCH   8  15
BRANCH   1  19
HETATM   19  O1  UNL     1      26.435   1.416  53.587  1.00  0.00    -0.354 OA
BRANCH  19  20
HETATM   20  C2  UNL     1      27.374   2.084  52.781  1.00  0.00     0.171 C 
HETATM   21  C1  UNL     1      28.625   2.456  53.563  1.00  0.00     0.034 C 
ENDBRANCH  19  20
ENDBRANCH   1  19
TORSDOF 4
ENDMDL
MODEL 8
REMARK VINA RESULT:      -5.7      4.806      7.491
REMARK  4 active torsions:
REMARK  status: ('A' for Active; 'I' for Inactive)
REMARK    1  A    between atoms: C2_2  and  O1_3 
REMARK    2  A    between atoms: O1_3  and  C3_4 
REMARK    3  A    between atoms: C8_11  and  C9_12 
REMARK    4  A    between atoms: C9_12  and  N1_13 
ROOT
HETATM    1  C3  UNL     1      26.771   5.644  49.115  1.00  0.00     0.060 C 
HETATM    2  C4  UNL     1      27.842   5.135  48.439  1.00  0.00     0.009 C 
HETATM    3  C5  UNL     1      29.060   5.895  48.342  1.00  0.00     0.056 C 
HETATM    4  C6  UNL     1      29.345   6.763  47.199  1.00  0.00     0.122 C 
HETATM    5 BR1  UNL     1      28.062   8.055  46.695  1.00  0.00    -0.079 Br
HETATM    6  S1  UNL     1      30.897   7.742  47.694  1.00  0.00    -0.148 SA
HETATM    7  C7  UNL     1      30.626   8.463  49.260  1.00  0.00     0.111 C 
HETATM    8  C8  UNL     1      29.879   9.697  49.352  1.00  0.00    -0.037 C 
HETATM    9  C12 UNL     1      28.609   9.847  49.659  1.00  0.00     0.079 C 
HETATM   10  C13 UNL     1      27.312   9.285  50.006  1.00  0.00     0.241 C 
HETATM   11  O2  UNL     1      26.129   9.380  50.415  1.00  0.00    -0.269 OA
HETATM   12  N2  UNL     1      26.761   7.937  49.899  1.00  0.00    -0.351 N 
HETATM   13  C14 UNL     1      26.033   6.654  49.871  1.00  0.00     0.187 C 
HETATM   14  H21 UNL     1      27.684   7.654  49.576  1.00  0.00     0.163 HD
ENDROOT
BRANCH   8  15
HETATM   15  C9  UNL     1      30.657  10.912  49.081  1.00  0.00     0.306 C 
BRANCH  15  16
HETATM   16  N1  UNL     1      30.461  11.525  47.789  1.00  0.00     0.083 N 
HETATM   17  C10 UNL     1      31.771  11.531  47.114  1.00  0.00     0.309 C 
HETATM   18  C11 UNL     1      30.010  12.913  47.930  1.00  0.00     0.309 C 
ENDBRANCH  15  16
ENDBRANCH   8  15
BRANCH   1  19
HETATM   19  O1  UNL     1      25.810   4.610  49.009  1.00  0.00    -0.354 OA
BRANCH  19  20
HETATM   20  C2  UNL     1      24.432   4.884  49.094  1.00  0.00     0.171 C 
HETATM   21  C1  UNL     1      23.612   3.611  49.236  1.00  0.00     0.034 C 
ENDBRANCH  19  20
ENDBRANCH   1  19
TORSDOF 4
ENDMDL
MODEL 9
REMARK VINA RESULT:      -5.7      3.178      4.193
REMARK  4 active torsions:
REMARK  status: ('A' for Active; 'I' for Inactive)
REMARK    1  A    between atoms: C2_2  and  O1_3 
REMARK    2  A    between atoms: O1_3  and  C3_4 
REMARK    3  A    between atoms: C8_11  and  C9_12 
REMARK    4  A    between atoms: C9_12  and  N1_13 
ROOT
HETATM    1  C3  UNL     1      22.291   0.488  52.815  1.00  0.00     0.060 C 
HETATM    2  C4  UNL     1      23.604   0.699  52.503  1.00  0.00     0.009 C 
HETATM    3  C5  UNL     1      24.058   2.019  52.153  1.00  0.00     0.056 C 
HETATM    4  C6  UNL     1      24.140   2.470  50.763  1.00  0.00     0.122 C 
HETATM    5 BR1  UNL     1      22.615   2.299  49.660  1.00  0.00    -0.079 Br
HETATM    6  S1  UNL     1      24.497   4.333  50.866  1.00  0.00    -0.148 SA
HETATM    7  C7  UNL     1      23.324   5.069  51.929  1.00  0.00     0.111 C 
HETATM    8  C8  UNL     1      22.014   5.399  51.416  1.00  0.00    -0.037 C 
HETATM    9  C12 UNL     1      20.902   4.708  51.546  1.00  0.00     0.079 C 
HETATM   10  C13 UNL     1      20.185   3.535  52.026  1.00  0.00     0.241 C 
HETATM   11  O2  UNL     1      19.134   2.897  52.277  1.00  0.00    -0.269 OA
HETATM   12  N2  UNL     1      20.635   2.228  52.496  1.00  0.00    -0.351 N 
HETATM   13  C14 UNL     1      20.891   0.865  52.996  1.00  0.00     0.187 C 
HETATM   14  H21 UNL     1      21.583   2.587  52.389  1.00  0.00     0.163 HD
ENDROOT
BRANCH   8  15
HETATM   15  C9  UNL     1      21.938   6.668  50.682  1.00  0.00     0.306 C 
BRANCH  15  16
HETATM   16  N1  UNL     1      20.927   6.756  49.655  1.00  0.00     0.083 N 
HETATM   17  C10 UNL     1      21.610   6.558  48.363  1.00  0.00     0.309 C 
HETATM   18  C11 UNL     1      20.302   8.082  49.647  1.00  0.00     0.309 C 
ENDBRANCH  15  16
ENDBRANCH   8  15
BRANCH   1  19
HETATM   19  O1  UNL     1      22.257  -0.893  53.121  1.00  0.00    -0.354 OA
BRANCH  19  20
HETATM   20  C2  UNL     1      21.790  -1.353  54.365  1.00  0.00     0.171 C 
HETATM   21  C1  UNL     1      22.898  -1.388  55.406  1.00  0.00     0.034 C 
ENDBRANCH  19  20
ENDBRANCH   1  19
TORSDOF 4
ENDMDL
