MODEL 1
REMARK VINA RESULT:      -8.1      0.000      0.000
REMARK  4 active torsions:
REMARK  status: ('A' for Active; 'I' for Inactive)
REMARK    1  A    between atoms: C2_2  and  C3_3 
REMARK       I    between atoms: C3_3  and  N1_5 
REMARK    2  A    between atoms: N1_5  and  C4_6 
REMARK    3  A    between atoms: C5_7  and  C6_8 
REMARK    4  A    between atoms: C9_11  and  C10_12 
ROOT
HETATM    1  C6  UNL     1      23.730   1.215  52.579  1.00  0.00     0.054 C 
HETATM    2  C7  UNL     1      23.085   0.080  52.681  1.00  0.00     0.009 C 
HETATM    3  C8  UNL     1      21.690  -0.356  52.740  1.00  0.00     0.070 C 
HETATM    4  C9  UNL     1      20.687   0.686  52.490  1.00  0.00    -0.022 C 
HETATM    5  C16 UNL     1      20.739   1.999  52.349  1.00  0.00     0.069 C 
HETATM    6  C17 UNL     1      19.534   2.733  52.112  1.00  0.00     0.101 C 
HETATM    7  N2  UNL     1      18.561   3.336  51.939  1.00  0.00    -0.191 NA
HETATM    8  C18 UNL     1      21.916   2.852  52.398  1.00  0.00     0.140 C 
HETATM    9  N3  UNL     1      23.134   2.489  52.493  1.00  0.00    -0.260 NA
ENDROOT
BRANCH   4  10
HETATM   10  C10 UNL     1      19.372   0.081  52.339  1.00  0.00    -0.027 A 
HETATM   11  C11 UNL     1      18.817  -0.634  53.356  1.00  0.00     0.012 A 
HETATM   12  C12 UNL     1      17.576  -1.253  53.254  1.00  0.00     0.002 A 
HETATM   13  C13 UNL     1      16.854  -1.154  52.076  1.00  0.00     0.019 A 
HETATM   14  C14 UNL     1      17.380  -0.442  51.026  1.00  0.00     0.011 A 
HETATM   15 BR1  UNL     1      16.417  -0.271  49.365  1.00  0.00    -0.051 Br
HETATM   16  C15 UNL     1      18.615   0.150  51.188  1.00  0.00     0.031 A 
ENDBRANCH   4  10
BRANCH   1  17
HETATM   17  C5  UNL     1      25.210   1.233  52.551  1.00  0.00     0.048 C 
HETATM   18  C4  UNL     1      25.881   0.151  52.800  1.00  0.00     0.093 C 
BRANCH  18  19
HETATM   19  N1  UNL     1      27.276  -0.039  52.823  1.00  0.00    -0.337 N 
HETATM   20  C3  UNL     1      28.213   0.295  53.853  1.00  0.00     0.221 C 
HETATM   21  O1  UNL     1      27.725   0.831  54.881  1.00  0.00    -0.273 OA
HETATM   22  H6  UNL     1      27.758  -0.490  51.986  1.00  0.00     0.168 HD
BRANCH  20  23
HETATM   23  C2  UNL     1      29.664   0.013  53.694  1.00  0.00     0.098 C 
HETATM   24  C1  UNL     1      29.831  -1.477  53.489  1.00  0.00     0.014 C 
ENDBRANCH  20  23
ENDBRANCH  18  19
ENDBRANCH   1  17
TORSDOF 4
ENDMDL
MODEL 2
REMARK VINA RESULT:      -8.0      2.155      2.888
REMARK  4 active torsions:
REMARK  status: ('A' for Active; 'I' for Inactive)
REMARK    1  A    between atoms: C2_2  and  C3_3 
REMARK       I    between atoms: C3_3  and  N1_5 
REMARK    2  A    between atoms: N1_5  and  C4_6 
REMARK    3  A    between atoms: C5_7  and  C6_8 
REMARK    4  A    between atoms: C9_11  and  C10_12 
ROOT
HETATM    1  C6  UNL     1      22.927  -0.517  53.639  1.00  0.00     0.054 C 
HETATM    2  C7  UNL     1      22.662   0.249  52.611  1.00  0.00     0.009 C 
HETATM    3  C8  UNL     1      21.492   0.583  51.798  1.00  0.00     0.070 C 
HETATM    4  C9  UNL     1      20.210   0.063  52.287  1.00  0.00    -0.022 C 
HETATM    5  C16 UNL     1      19.862  -0.774  53.248  1.00  0.00     0.069 C 
HETATM    6  C17 UNL     1      18.479  -1.075  53.457  1.00  0.00     0.101 C 
HETATM    7  N2  UNL     1      17.364  -1.338  53.620  1.00  0.00    -0.191 NA
HETATM    8  C18 UNL     1      20.736  -1.471  54.178  1.00  0.00     0.140 C 
HETATM    9  N3  UNL     1      21.997  -1.336  54.309  1.00  0.00    -0.260 NA
ENDROOT
BRANCH   4  10
HETATM   10  C10 UNL     1      19.115   0.662  51.536  1.00  0.00    -0.027 A 
HETATM   11  C11 UNL     1      18.560   0.007  50.480  1.00  0.00     0.012 A 
HETATM   12  C12 UNL     1      17.531   0.545  49.715  1.00  0.00     0.002 A 
HETATM   13  C13 UNL     1      17.032   1.801  50.020  1.00  0.00     0.019 A 
HETATM   14  C14 UNL     1      17.566   2.494  51.079  1.00  0.00     0.011 A 
HETATM   15 BR1  UNL     1      16.910   4.244  51.549  1.00  0.00    -0.051 Br
HETATM   16  C15 UNL     1      18.585   1.907  51.800  1.00  0.00     0.031 A 
ENDBRANCH   4  10
BRANCH   1  17
HETATM   17  C5  UNL     1      24.299  -0.579  54.190  1.00  0.00     0.048 C 
HETATM   18  C4  UNL     1      25.317  -0.718  53.396  1.00  0.00     0.093 C 
BRANCH  18  19
HETATM   19  N1  UNL     1      26.685  -0.797  53.718  1.00  0.00    -0.337 N 
HETATM   20  C3  UNL     1      27.538   0.210  54.276  1.00  0.00     0.221 C 
HETATM   21  O1  UNL     1      26.990   1.317  54.512  1.00  0.00    -0.273 OA
HETATM   22  H6  UNL     1      27.213  -1.706  53.545  1.00  0.00     0.168 HD
BRANCH  20  23
HETATM   23  C2  UNL     1      28.973  -0.063  54.549  1.00  0.00     0.098 C 
HETATM   24  C1  UNL     1      29.456  -1.079  53.537  1.00  0.00     0.014 C 
ENDBRANCH  20  23
ENDBRANCH  18  19
ENDBRANCH   1  17
TORSDOF 4
ENDMDL
MODEL 3
REMARK VINA RESULT:      -8.0      4.119      8.853
REMARK  4 active torsions:
REMARK  status: ('A' for Active; 'I' for Inactive)
REMARK    1  A    between atoms: C2_2  and  C3_3 
REMARK       I    between atoms: C3_3  and  N1_5 
REMARK    2  A    between atoms: N1_5  and  C4_6 
REMARK    3  A    between atoms: C5_7  and  C6_8 
REMARK    4  A    between atoms: C9_11  and  C10_12 
ROOT
HETATM    1  C6  UNL     1      21.801   0.379  51.779  1.00  0.00     0.054 C 
HETATM    2  C7  UNL     1      22.848   1.042  51.358  1.00  0.00     0.009 C 
HETATM    3  C8  UNL     1      24.202   1.321  51.836  1.00  0.00     0.070 C 
HETATM    4  C9  UNL     1      24.616   0.585  53.037  1.00  0.00    -0.022 C 
HETATM    5  C16 UNL     1      23.990  -0.199  53.897  1.00  0.00     0.069 C 
HETATM    6  C17 UNL     1      24.715  -0.766  54.992  1.00  0.00     0.101 C 
HETATM    7  N2  UNL     1      25.291  -1.214  55.892  1.00  0.00    -0.191 NA
HETATM    8  C18 UNL     1      22.590  -0.592  53.886  1.00  0.00     0.140 C 
HETATM    9  N3  UNL     1      21.719  -0.334  52.992  1.00  0.00    -0.260 NA
ENDROOT
BRANCH   4  10
HETATM   10  C10 UNL     1      26.043   0.766  53.260  1.00  0.00    -0.027 A 
HETATM   11  C11 UNL     1      26.551   2.002  53.523  1.00  0.00     0.012 A 
HETATM   12  C12 UNL     1      27.909   2.232  53.719  1.00  0.00     0.002 A 
HETATM   13  C13 UNL     1      28.802   1.177  53.648  1.00  0.00     0.019 A 
HETATM   14  C14 UNL     1      28.329  -0.085  53.384  1.00  0.00     0.011 A 
HETATM   15 BR1  UNL     1      29.528  -1.590  53.275  1.00  0.00    -0.051 Br
HETATM   16  C15 UNL     1      26.972  -0.250  53.199  1.00  0.00     0.031 A 
ENDBRANCH   4  10
BRANCH   1  17
HETATM   17  C5  UNL     1      20.565   0.338  50.965  1.00  0.00     0.048 C 
HETATM   18  C4  UNL     1      19.414   0.148  51.534  1.00  0.00     0.093 C 
BRANCH  18  19
HETATM   19  N1  UNL     1      18.137   0.077  50.945  1.00  0.00    -0.337 N 
HETATM   20  C3  UNL     1      16.966  -0.601  51.414  1.00  0.00     0.221 C 
HETATM   21  O1  UNL     1      17.094  -1.220  52.502  1.00  0.00    -0.273 OA
HETATM   22  H6  UNL     1      17.957   0.579  50.023  1.00  0.00     0.168 HD
BRANCH  20  23
HETATM   23  C2  UNL     1      15.695  -0.560  50.646  1.00  0.00     0.098 C 
HETATM   24  C1  UNL     1      16.029  -0.234  49.206  1.00  0.00     0.014 C 
ENDBRANCH  20  23
ENDBRANCH  18  19
ENDBRANCH   1  17
TORSDOF 4
ENDMDL
MODEL 4
REMARK VINA RESULT:      -7.8      5.817      6.850
REMARK  4 active torsions:
REMARK  status: ('A' for Active; 'I' for Inactive)
REMARK    1  A    between atoms: C2_2  and  C3_3 
REMARK       I    between atoms: C3_3  and  N1_5 
REMARK    2  A    between atoms: N1_5  and  C4_6 
REMARK    3  A    between atoms: C5_7  and  C6_8 
REMARK    4  A    between atoms: C9_11  and  C10_12 
ROOT
HETATM    1  C6  UNL     1      27.010   5.583  48.965  1.00  0.00     0.054 C 
HETATM    2  C7  UNL     1      26.883   4.279  48.970  1.00  0.00     0.009 C 
HETATM    3  C8  UNL     1      25.941   3.298  49.508  1.00  0.00     0.070 C 
HETATM    4  C9  UNL     1      24.715   3.850  50.096  1.00  0.00    -0.022 C 
HETATM    5  C16 UNL     1      24.303   5.072  50.386  1.00  0.00     0.069 C 
HETATM    6  C17 UNL     1      23.013   5.261  50.976  1.00  0.00     0.101 C 
HETATM    7  N2  UNL     1      21.979   5.420  51.471  1.00  0.00    -0.191 NA
HETATM    8  C18 UNL     1      25.012   6.323  50.174  1.00  0.00     0.140 C 
HETATM    9  N3  UNL     1      26.128   6.492  49.581  1.00  0.00    -0.260 NA
ENDROOT
BRANCH   4  10
HETATM   10  C10 UNL     1      23.770   2.777  50.368  1.00  0.00    -0.027 A 
HETATM   11  C11 UNL     1      22.813   2.451  49.456  1.00  0.00     0.012 A 
HETATM   12  C12 UNL     1      21.871   1.452  49.677  1.00  0.00     0.002 A 
HETATM   13  C13 UNL     1      21.885   0.745  50.867  1.00  0.00     0.019 A 
HETATM   14  C14 UNL     1      22.835   1.045  51.812  1.00  0.00     0.011 A 
HETATM   15 BR1  UNL     1      22.902   0.091  53.486  1.00  0.00    -0.051 Br
HETATM   16  C15 UNL     1      23.743   2.046  51.536  1.00  0.00     0.031 A 
ENDBRANCH   4  10
BRANCH   1  17
HETATM   17  C5  UNL     1      28.157   6.219  48.277  1.00  0.00     0.048 C 
HETATM   18  C4  UNL     1      29.306   5.618  48.232  1.00  0.00     0.093 C 
BRANCH  18  19
HETATM   19  N1  UNL     1      30.506   6.049  47.634  1.00  0.00    -0.337 N 
HETATM   20  C3  UNL     1      31.824   5.504  47.767  1.00  0.00     0.221 C 
HETATM   21  O1  UNL     1      31.926   4.503  48.521  1.00  0.00    -0.273 OA
HETATM   22  H6  UNL     1      30.494   6.892  46.982  1.00  0.00     0.168 HD
BRANCH  20  23
HETATM   23  C2  UNL     1      32.979   6.102  47.049  1.00  0.00     0.098 C 
HETATM   24  C1  UNL     1      34.095   5.081  47.025  1.00  0.00     0.014 C 
ENDBRANCH  20  23
ENDBRANCH  18  19
ENDBRANCH   1  17
TORSDOF 4
ENDMDL
MODEL 5
REMARK VINA RESULT:      -7.7      6.564      7.807
REMARK  4 active torsions:
REMARK  status: ('A' for Active; 'I' for Inactive)
REMARK    1  A    between atoms: C2_2  and  C3_3 
REMARK       I    between atoms: C3_3  and  N1_5 
REMARK    2  A    between atoms: N1_5  and  C4_6 
REMARK    3  A    between atoms: C5_7  and  C6_8 
REMARK    4  A    between atoms: C9_11  and  C10_12 
ROOT
HETATM    1  C6  UNL     1      27.948   6.090  48.453  1.00  0.00     0.054 C 
HETATM    2  C7  UNL     1      27.790   4.800  48.613  1.00  0.00     0.009 C 
HETATM    3  C8  UNL     1      26.840   3.914  49.285  1.00  0.00     0.070 C 
HETATM    4  C9  UNL     1      25.644   4.563  49.834  1.00  0.00    -0.022 C 
HETATM    5  C16 UNL     1      25.268   5.821  49.988  1.00  0.00     0.069 C 
HETATM    6  C17 UNL     1      24.000   6.112  50.583  1.00  0.00     0.101 C 
HETATM    7  N2  UNL     1      22.983   6.355  51.081  1.00  0.00    -0.191 NA
HETATM    8  C18 UNL     1      26.001   7.020  49.614  1.00  0.00     0.140 C 
HETATM    9  N3  UNL     1      27.104   7.088  48.979  1.00  0.00    -0.260 NA
ENDROOT
BRANCH   4  10
HETATM   10  C10 UNL     1      24.681   3.554  50.251  1.00  0.00    -0.027 A 
HETATM   11  C11 UNL     1      24.748   3.006  51.496  1.00  0.00     0.012 A 
HETATM   12  C12 UNL     1      23.869   2.022  51.934  1.00  0.00     0.002 A 
HETATM   13  C13 UNL     1      22.874   1.562  51.088  1.00  0.00     0.019 A 
HETATM   14  C14 UNL     1      22.774   2.090  49.824  1.00  0.00     0.011 A 
HETATM   15 BR1  UNL     1      21.407   1.488  48.605  1.00  0.00    -0.051 Br
HETATM   16  C15 UNL     1      23.675   3.064  49.447  1.00  0.00     0.031 A 
ENDBRANCH   4  10
BRANCH   1  17
HETATM   17  C5  UNL     1      29.090   6.611  47.668  1.00  0.00     0.048 C 
HETATM   18  C4  UNL     1      30.274   6.667  48.197  1.00  0.00     0.093 C 
BRANCH  18  19
HETATM   19  N1  UNL     1      31.477   7.123  47.625  1.00  0.00    -0.337 N 
HETATM   20  C3  UNL     1      32.825   6.853  48.029  1.00  0.00     0.221 C 
HETATM   21  O1  UNL     1      32.953   6.105  49.032  1.00  0.00    -0.273 OA
HETATM   22  H6  UNL     1      31.444   7.760  46.771  1.00  0.00     0.168 HD
BRANCH  20  23
HETATM   23  C2  UNL     1      33.979   7.431  47.292  1.00  0.00     0.098 C 
HETATM   24  C1  UNL     1      35.068   7.739  48.296  1.00  0.00     0.014 C 
ENDBRANCH  20  23
ENDBRANCH  18  19
ENDBRANCH   1  17
TORSDOF 4
ENDMDL
MODEL 6
REMARK VINA RESULT:      -7.7      3.885      8.673
REMARK  4 active torsions:
REMARK  status: ('A' for Active; 'I' for Inactive)
REMARK    1  A    between atoms: C2_2  and  C3_3 
REMARK       I    between atoms: C3_3  and  N1_5 
REMARK    2  A    between atoms: N1_5  and  C4_6 
REMARK    3  A    between atoms: C5_7  and  C6_8 
REMARK    4  A    between atoms: C9_11  and  C10_12 
ROOT
HETATM    1  C6  UNL     1      21.992   1.024  52.629  1.00  0.00     0.054 C 
HETATM    2  C7  UNL     1      22.816   0.454  53.472  1.00  0.00     0.009 C 
HETATM    3  C8  UNL     1      24.263   0.296  53.614  1.00  0.00     0.070 C 
HETATM    4  C9  UNL     1      25.081   1.069  52.672  1.00  0.00    -0.022 C 
HETATM    5  C16 UNL     1      24.813   1.798  51.602  1.00  0.00     0.069 C 
HETATM    6  C17 UNL     1      25.882   2.430  50.892  1.00  0.00     0.101 C 
HETATM    7  N2  UNL     1      26.743   2.929  50.301  1.00  0.00    -0.191 NA
HETATM    8  C18 UNL     1      23.511   2.066  51.014  1.00  0.00     0.140 C 
HETATM    9  N3  UNL     1      22.369   1.730  51.470  1.00  0.00    -0.260 NA
ENDROOT
BRANCH   4  10
HETATM   10  C10 UNL     1      26.480   1.014  53.072  1.00  0.00    -0.027 A 
HETATM   11  C11 UNL     1      27.123   2.137  53.495  1.00  0.00     0.012 A 
HETATM   12  C12 UNL     1      28.464   2.144  53.864  1.00  0.00     0.002 A 
HETATM   13  C13 UNL     1      29.199   0.972  53.805  1.00  0.00     0.019 A 
HETATM   14  C14 UNL     1      28.586  -0.182  53.382  1.00  0.00     0.011 A 
HETATM   15 BR1  UNL     1      29.561  -1.842  53.283  1.00  0.00    -0.051 Br
HETATM   16  C15 UNL     1      27.253  -0.126  53.030  1.00  0.00     0.031 A 
ENDBRANCH   4  10
BRANCH   1  17
HETATM   17  C5  UNL     1      20.530   0.954  52.850  1.00  0.00     0.048 C 
HETATM   18  C4  UNL     1      19.760   0.411  51.957  1.00  0.00     0.093 C 
BRANCH  18  19
HETATM   19  N1  UNL     1      18.361   0.248  51.977  1.00  0.00    -0.337 N 
HETATM   20  C3  UNL     1      17.579  -0.725  52.680  1.00  0.00     0.221 C 
HETATM   21  O1  UNL     1      18.229  -1.547  53.376  1.00  0.00    -0.273 OA
HETATM   22  H6  UNL     1      17.747   0.909  51.411  1.00  0.00     0.168 HD
BRANCH  20  23
HETATM   23  C2  UNL     1      16.097  -0.740  52.577  1.00  0.00     0.098 C 
HETATM   24  C1  UNL     1      15.723  -1.493  51.318  1.00  0.00     0.014 C 
ENDBRANCH  20  23
ENDBRANCH  18  19
ENDBRANCH   1  17
TORSDOF 4
ENDMDL
MODEL 7
REMARK VINA RESULT:      -7.6      7.099      8.290
REMARK  4 active torsions:
REMARK  status: ('A' for Active; 'I' for Inactive)
REMARK    1  A    between atoms: C2_2  and  C3_3 
REMARK       I    between atoms: C3_3  and  N1_5 
REMARK    2  A    between atoms: N1_5  and  C4_6 
REMARK    3  A    between atoms: C5_7  and  C6_8 
REMARK    4  A    between atoms: C9_11  and  C10_12 
ROOT
HETATM    1  C6  UNL     1      27.855   6.191  48.470  1.00  0.00     0.054 C 
HETATM    2  C7  UNL     1      27.729   4.895  48.609  1.00  0.00     0.009 C 
HETATM    3  C8  UNL     1      26.811   3.976  49.281  1.00  0.00     0.070 C 
HETATM    4  C9  UNL     1      25.612   4.588  49.865  1.00  0.00    -0.022 C 
HETATM    5  C16 UNL     1      25.212   5.834  50.051  1.00  0.00     0.069 C 
HETATM    6  C17 UNL     1      23.950   6.086  50.675  1.00  0.00     0.101 C 
HETATM    7  N2  UNL     1      22.938   6.297  51.196  1.00  0.00    -0.191 NA
HETATM    8  C18 UNL     1      25.912   7.056  49.685  1.00  0.00     0.140 C 
HETATM    9  N3  UNL     1      27.001   7.161  49.032  1.00  0.00    -0.260 NA
ENDROOT
BRANCH   4  10
HETATM   10  C10 UNL     1      24.679   3.551  50.282  1.00  0.00    -0.027 A 
HETATM   11  C11 UNL     1      24.765   3.002  51.525  1.00  0.00     0.012 A 
HETATM   12  C12 UNL     1      23.916   1.991  51.962  1.00  0.00     0.002 A 
HETATM   13  C13 UNL     1      22.933   1.505  51.116  1.00  0.00     0.019 A 
HETATM   14  C14 UNL     1      22.815   2.033  49.854  1.00  0.00     0.011 A 
HETATM   15 BR1  UNL     1      21.465   1.395  48.636  1.00  0.00    -0.051 Br
HETATM   16  C15 UNL     1      23.687   3.034  49.478  1.00  0.00     0.031 A 
ENDBRANCH   4  10
BRANCH   1  17
HETATM   17  C5  UNL     1      28.970   6.752  47.674  1.00  0.00     0.048 C 
HETATM   18  C4  UNL     1      29.402   7.953  47.910  1.00  0.00     0.093 C 
BRANCH  18  19
HETATM   19  N1  UNL     1      30.440   8.661  47.274  1.00  0.00    -0.337 N 
HETATM   20  C3  UNL     1      31.808   8.802  47.671  1.00  0.00     0.221 C 
HETATM   21  O1  UNL     1      32.130   8.212  48.735  1.00  0.00    -0.273 OA
HETATM   22  H6  UNL     1      30.239   9.183  46.367  1.00  0.00     0.168 HD
BRANCH  20  23
HETATM   23  C2  UNL     1      32.766   9.598  46.861  1.00  0.00     0.098 C 
HETATM   24  C1  UNL     1      32.544  11.061  47.178  1.00  0.00     0.014 C 
ENDBRANCH  20  23
ENDBRANCH  18  19
ENDBRANCH   1  17
TORSDOF 4
ENDMDL
MODEL 8
REMARK VINA RESULT:      -7.5      1.885      2.118
REMARK  4 active torsions:
REMARK  status: ('A' for Active; 'I' for Inactive)
REMARK    1  A    between atoms: C2_2  and  C3_3 
REMARK       I    between atoms: C3_3  and  N1_5 
REMARK    2  A    between atoms: N1_5  and  C4_6 
REMARK    3  A    between atoms: C5_7  and  C6_8 
REMARK    4  A    between atoms: C9_11  and  C10_12 
ROOT
HETATM    1  C6  UNL     1      23.482   0.758  52.708  1.00  0.00     0.054 C 
HETATM    2  C7  UNL     1      22.348   0.584  53.341  1.00  0.00     0.009 C 
HETATM    3  C8  UNL     1      20.929   0.821  53.078  1.00  0.00     0.070 C 
HETATM    4  C9  UNL     1      20.597   1.239  51.711  1.00  0.00    -0.022 C 
HETATM    5  C16 UNL     1      21.312   1.592  50.657  1.00  0.00     0.069 C 
HETATM    6  C17 UNL     1      20.648   1.957  49.443  1.00  0.00     0.101 C 
HETATM    7  N2  UNL     1      20.118   2.271  48.463  1.00  0.00    -0.191 NA
HETATM    8  C18 UNL     1      22.760   1.664  50.549  1.00  0.00     0.140 C 
HETATM    9  N3  UNL     1      23.622   1.308  51.419  1.00  0.00    -0.260 NA
ENDROOT
BRANCH   4  10
HETATM   10  C10 UNL     1      19.154   1.204  51.520  1.00  0.00    -0.027 A 
HETATM   11  C11 UNL     1      18.531   0.046  51.166  1.00  0.00     0.012 A 
HETATM   12  C12 UNL     1      17.160  -0.035  50.947  1.00  0.00     0.002 A 
HETATM   13  C13 UNL     1      16.373   1.096  51.086  1.00  0.00     0.019 A 
HETATM   14  C14 UNL     1      16.965   2.283  51.441  1.00  0.00     0.011 A 
HETATM   15 BR1  UNL     1      15.918   3.888  51.651  1.00  0.00    -0.051 Br
HETATM   16  C15 UNL     1      18.329   2.301  51.646  1.00  0.00     0.031 A 
ENDBRANCH   4  10
BRANCH   1  17
HETATM   17  C5  UNL     1      24.760   0.371  53.346  1.00  0.00     0.048 C 
HETATM   18  C4  UNL     1      25.880   0.515  52.705  1.00  0.00     0.093 C 
BRANCH  18  19
HETATM   19  N1  UNL     1      27.187   0.212  53.131  1.00  0.00    -0.337 N 
HETATM   20  C3  UNL     1      28.148   1.066  53.763  1.00  0.00     0.221 C 
HETATM   21  O1  UNL     1      27.774   2.249  53.969  1.00  0.00    -0.273 OA
HETATM   22  H6  UNL     1      27.570  -0.772  52.989  1.00  0.00     0.168 HD
BRANCH  20  23
HETATM   23  C2  UNL     1      29.493   0.560  54.143  1.00  0.00     0.098 C 
HETATM   24  C1  UNL     1      29.662  -0.817  53.539  1.00  0.00     0.014 C 
ENDBRANCH  20  23
ENDBRANCH  18  19
ENDBRANCH   1  17
TORSDOF 4
ENDMDL
MODEL 9
REMARK VINA RESULT:      -7.4      4.314      8.792
REMARK  4 active torsions:
REMARK  status: ('A' for Active; 'I' for Inactive)
REMARK    1  A    between atoms: C2_2  and  C3_3 
REMARK       I    between atoms: C3_3  and  N1_5 
REMARK    2  A    between atoms: N1_5  and  C4_6 
REMARK    3  A    between atoms: C5_7  and  C6_8 
REMARK    4  A    between atoms: C9_11  and  C10_12 
ROOT
HETATM    1  C6  UNL     1      21.670   1.717  52.430  1.00  0.00     0.054 C 
HETATM    2  C7  UNL     1      22.293   0.777  53.095  1.00  0.00     0.009 C 
HETATM    3  C8  UNL     1      23.650   0.235  53.165  1.00  0.00     0.070 C 
HETATM    4  C9  UNL     1      24.671   0.981  52.419  1.00  0.00    -0.022 C 
HETATM    5  C16 UNL     1      24.634   1.985  51.561  1.00  0.00     0.069 C 
HETATM    6  C17 UNL     1      25.853   2.481  51.001  1.00  0.00     0.101 C 
HETATM    7  N2  UNL     1      26.834   2.875  50.529  1.00  0.00    -0.191 NA
HETATM    8  C18 UNL     1      23.463   2.701  51.081  1.00  0.00     0.140 C 
HETATM    9  N3  UNL     1      22.256   2.561  51.466  1.00  0.00    -0.260 NA
ENDROOT
BRANCH   4  10
HETATM   10  C10 UNL     1      25.996   0.487  52.765  1.00  0.00    -0.027 A 
HETATM   11  C11 UNL     1      26.355  -0.794  52.472  1.00  0.00     0.012 A 
HETATM   12  C12 UNL     1      27.598  -1.322  52.804  1.00  0.00     0.002 A 
HETATM   13  C13 UNL     1      28.527  -0.533  53.462  1.00  0.00     0.019 A 
HETATM   14  C14 UNL     1      28.202   0.764  53.775  1.00  0.00     0.011 A 
HETATM   15 BR1  UNL     1      29.456   1.908  54.688  1.00  0.00    -0.051 Br
HETATM   16  C15 UNL     1      26.953   1.231  53.419  1.00  0.00     0.031 A 
ENDBRANCH   4  10
BRANCH   1  17
HETATM   17  C5  UNL     1      20.228   1.963  52.657  1.00  0.00     0.048 C 
HETATM   18  C4  UNL     1      19.492   2.457  51.709  1.00  0.00     0.093 C 
BRANCH  18  19
HETATM   19  N1  UNL     1      18.117   2.761  51.723  1.00  0.00    -0.337 N 
HETATM   20  C3  UNL     1      17.436   3.876  51.137  1.00  0.00     0.221 C 
HETATM   21  O1  UNL     1      18.164   4.698  50.524  1.00  0.00    -0.273 OA
HETATM   22  H6  UNL     1      17.441   2.107  52.224  1.00  0.00     0.168 HD
BRANCH  20  23
HETATM   23  C2  UNL     1      15.962   4.027  51.260  1.00  0.00     0.098 C 
HETATM   24  C1  UNL     1      15.635   4.245  52.721  1.00  0.00     0.014 C 
ENDBRANCH  20  23
ENDBRANCH  18  19
ENDBRANCH   1  17
TORSDOF 4
ENDMDL
