MODEL 1
REMARK VINA RESULT:      -8.3      0.000      0.000
REMARK  6 active torsions:
REMARK  status: ('A' for Active; 'I' for Inactive)
REMARK    1  A    between atoms: C6_7  and  O1_8 
REMARK    2  A    between atoms: C7_9  and  C8_10 
REMARK    3  A    between atoms: C8_10  and  C9_11 
REMARK    4  A    between atoms: C9_11  and  C10_12 
REMARK    5  A    between atoms: C9_11  and  C17_21 
REMARK       I    between atoms: C10_12  and  N1_14 
REMARK    6  A    between atoms: N1_14  and  C11_15 
ROOT
HETATM    1  C9  UNL     1      23.543   2.176  50.808  1.00  0.00     0.094 C 
ENDROOT
BRANCH   1   2
HETATM    2  C8  UNL     1      23.736   2.354  52.289  1.00  0.00     0.057 C 
BRANCH   2   3
HETATM    3  C7  UNL     1      24.529   1.338  52.964  1.00  0.00    -0.017 A 
HETATM    4  C2  UNL     1      24.211   0.126  53.508  1.00  0.00    -0.053 A 
HETATM    5  C1  UNL     1      22.828  -0.327  53.346  1.00  0.00     0.049 C 
HETATM    6  C3  UNL     1      25.057  -0.738  54.164  1.00  0.00     0.009 A 
HETATM    7  C4  UNL     1      26.380  -0.382  54.311  1.00  0.00     0.022 A 
HETATM    8  C5  UNL     1      26.800   0.822  53.798  1.00  0.00     0.044 A 
HETATM    9 BR1  UNL     1      28.619   1.308  53.998  1.00  0.00    -0.048 Br
HETATM   10  C6  UNL     1      25.894   1.633  53.154  1.00  0.00     0.089 A 
BRANCH  10  11
HETATM   11  O1  UNL     1      26.414   2.840  52.661  1.00  0.00    -0.359 OA
HETATM   12  H6  UNL     1      26.383   2.934  51.646  1.00  0.00     0.217 HD
ENDBRANCH  10  11
ENDBRANCH   2   3
ENDBRANCH   1   2
BRANCH   1  13
HETATM   13  C10 UNL     1      24.227   3.135  49.930  1.00  0.00     0.227 C 
HETATM   14  O2  UNL     1      23.799   3.310  48.760  1.00  0.00    -0.273 OA
HETATM   15  N1  UNL     1      25.353   3.901  50.296  1.00  0.00    -0.327 N 
HETATM   16  H10 UNL     1      25.645   3.688  51.297  1.00  0.00     0.169 HD
BRANCH  15  17
HETATM   17  C11 UNL     1      26.121   4.857  49.594  1.00  0.00     0.034 A 
HETATM   18  C12 UNL     1      27.313   4.488  49.013  1.00  0.00     0.029 A 
HETATM   19  C13 UNL     1      28.100   5.354  48.324  1.00  0.00     0.002 A 
HETATM   20  C14 UNL     1      27.743   6.670  48.168  1.00  0.00     0.000 A 
HETATM   21  C15 UNL     1      26.560   7.103  48.726  1.00  0.00     0.002 A 
HETATM   22  C16 UNL     1      25.806   6.181  49.411  1.00  0.00     0.029 A 
ENDBRANCH  15  17
ENDBRANCH   1  13
BRANCH   1  23
HETATM   23  C17 UNL     1      22.071   2.244  50.445  1.00  0.00     0.047 A 
HETATM   24  C18 UNL     1      21.558   0.954  49.954  1.00  0.00    -0.014 A 
HETATM   25  C19 UNL     1      20.505   0.631  50.690  1.00  0.00     0.038 A 
HETATM   26  C20 UNL     1      20.267   1.681  51.700  1.00  0.00     0.113 A 
HETATM   27  F1  UNL     1      19.264   1.662  52.618  1.00  0.00    -0.206 F 
HETATM   28  C21 UNL     1      21.195   2.636  51.553  1.00  0.00     0.025 A 
ENDBRANCH   1  23
TORSDOF 6
ENDMDL
MODEL 2
REMARK VINA RESULT:      -8.2      3.352      5.216
REMARK  6 active torsions:
REMARK  status: ('A' for Active; 'I' for Inactive)
REMARK    1  A    between atoms: C6_7  and  O1_8 
REMARK    2  A    between atoms: C7_9  and  C8_10 
REMARK    3  A    between atoms: C8_10  and  C9_11 
REMARK    4  A    between atoms: C9_11  and  C10_12 
REMARK    5  A    between atoms: C9_11  and  C17_21 
REMARK       I    between atoms: C10_12  and  N1_14 
REMARK    6  A    between atoms: N1_14  and  C11_15 
ROOT
HETATM    1  C9  UNL     1      25.696   1.319  52.980  1.00  0.00     0.094 C 
ENDROOT
BRANCH   1   2
HETATM    2  C8  UNL     1      25.016   0.012  52.677  1.00  0.00     0.057 C 
BRANCH   2   3
HETATM    3  C7  UNL     1      23.741  -0.221  53.336  1.00  0.00    -0.017 A 
HETATM    4  C2  UNL     1      23.408  -0.792  54.532  1.00  0.00    -0.053 A 
HETATM    5  C1  UNL     1      24.515  -1.203  55.398  1.00  0.00     0.049 C 
HETATM    6  C3  UNL     1      22.143  -0.993  55.032  1.00  0.00     0.009 A 
HETATM    7  C4  UNL     1      21.062  -0.589  54.278  1.00  0.00     0.022 A 
HETATM    8  C5  UNL     1      21.293  -0.004  53.057  1.00  0.00     0.044 A 
HETATM    9 BR1  UNL     1      19.808   0.554  52.023  1.00  0.00    -0.048 Br
HETATM   10  C6  UNL     1      22.588   0.164  52.623  1.00  0.00     0.089 A 
BRANCH  10  11
HETATM   11  O1  UNL     1      22.726   0.773  51.366  1.00  0.00    -0.359 OA
HETATM   12  H6  UNL     1      22.974   0.136  50.609  1.00  0.00     0.217 HD
ENDBRANCH  10  11
ENDBRANCH   2   3
ENDBRANCH   1   2
BRANCH   1  13
HETATM   13  C10 UNL     1      25.200   2.505  52.268  1.00  0.00     0.227 C 
HETATM   14  O2  UNL     1      24.549   3.375  52.903  1.00  0.00    -0.273 OA
HETATM   15  N1  UNL     1      25.399   2.763  50.896  1.00  0.00    -0.327 N 
HETATM   16  H10 UNL     1      25.955   1.978  50.442  1.00  0.00     0.169 HD
BRANCH  15  17
HETATM   17  C11 UNL     1      25.004   3.833  50.063  1.00  0.00     0.034 A 
HETATM   18  C12 UNL     1      25.923   4.785  49.684  1.00  0.00     0.029 A 
HETATM   19  C13 UNL     1      25.612   5.838  48.885  1.00  0.00     0.002 A 
HETATM   20  C14 UNL     1      24.339   6.015  48.403  1.00  0.00     0.000 A 
HETATM   21  C15 UNL     1      23.371   5.095  48.746  1.00  0.00     0.002 A 
HETATM   22  C16 UNL     1      23.746   4.051  49.556  1.00  0.00     0.029 A 
ENDBRANCH  15  17
ENDBRANCH   1  13
BRANCH   1  23
HETATM   23  C17 UNL     1      27.182   1.237  52.682  1.00  0.00     0.047 A 
HETATM   24  C18 UNL     1      27.952   2.265  53.401  1.00  0.00    -0.014 A 
HETATM   25  C19 UNL     1      28.904   1.652  54.088  1.00  0.00     0.038 A 
HETATM   26  C20 UNL     1      28.815   0.195  53.862  1.00  0.00     0.113 A 
HETATM   27  F1  UNL     1      29.643  -0.729  54.418  1.00  0.00    -0.206 F 
HETATM   28  C21 UNL     1      27.795  -0.049  53.028  1.00  0.00     0.025 A 
ENDBRANCH   1  23
TORSDOF 6
ENDMDL
MODEL 3
REMARK VINA RESULT:      -8.2      3.622      5.224
REMARK  6 active torsions:
REMARK  status: ('A' for Active; 'I' for Inactive)
REMARK    1  A    between atoms: C6_7  and  O1_8 
REMARK    2  A    between atoms: C7_9  and  C8_10 
REMARK    3  A    between atoms: C8_10  and  C9_11 
REMARK    4  A    between atoms: C9_11  and  C10_12 
REMARK    5  A    between atoms: C9_11  and  C17_21 
REMARK       I    between atoms: C10_12  and  N1_14 
REMARK    6  A    between atoms: N1_14  and  C11_15 
ROOT
HETATM    1  C9  UNL     1      24.627   1.936  52.528  1.00  0.00     0.094 C 
ENDROOT
BRANCH   1   2
HETATM    2  C8  UNL     1      24.131   0.574  52.126  1.00  0.00     0.057 C 
BRANCH   2   3
HETATM    3  C7  UNL     1      23.103  -0.014  52.969  1.00  0.00    -0.017 A 
HETATM    4  C2  UNL     1      23.156  -0.722  54.136  1.00  0.00    -0.053 A 
HETATM    5  C1  UNL     1      24.477  -0.891  54.745  1.00  0.00     0.049 C 
HETATM    6  C3  UNL     1      22.098  -1.267  54.826  1.00  0.00     0.009 A 
HETATM    7  C4  UNL     1      20.826  -1.105  54.322  1.00  0.00     0.022 A 
HETATM    8  C5  UNL     1      20.667  -0.406  53.149  1.00  0.00     0.044 A 
HETATM    9 BR1  UNL     1      18.919  -0.181  52.457  1.00  0.00    -0.048 Br
HETATM   10  C6  UNL     1      21.774   0.109  52.516  1.00  0.00     0.089 A 
BRANCH  10  11
HETATM   11  O1  UNL     1      21.514   0.809  51.326  1.00  0.00    -0.359 OA
HETATM   12  H6  UNL     1      20.804   1.537  51.408  1.00  0.00     0.217 HD
ENDBRANCH  10  11
ENDBRANCH   2   3
ENDBRANCH   1   2
BRANCH   1  13
HETATM   13  C10 UNL     1      24.160   3.075  51.725  1.00  0.00     0.227 C 
HETATM   14  O2  UNL     1      23.861   2.893  50.516  1.00  0.00    -0.273 OA
HETATM   15  N1  UNL     1      24.009   4.392  52.205  1.00  0.00    -0.327 N 
HETATM   16  H10 UNL     1      24.284   4.453  53.232  1.00  0.00     0.169 HD
BRANCH  15  17
HETATM   17  C11 UNL     1      23.577   5.586  51.587  1.00  0.00     0.034 A 
HETATM   18  C12 UNL     1      22.234   5.811  51.388  1.00  0.00     0.029 A 
HETATM   19  C13 UNL     1      21.751   6.936  50.801  1.00  0.00     0.002 A 
HETATM   20  C14 UNL     1      22.591   7.929  50.365  1.00  0.00     0.000 A 
HETATM   21  C15 UNL     1      23.949   7.765  50.535  1.00  0.00     0.002 A 
HETATM   22  C16 UNL     1      24.379   6.607  51.135  1.00  0.00     0.029 A 
ENDBRANCH  15  17
ENDBRANCH   1  13
BRANCH   1  23
HETATM   23  C17 UNL     1      26.143   1.989  52.496  1.00  0.00     0.047 A 
HETATM   24  C18 UNL     1      26.721   2.208  53.833  1.00  0.00    -0.014 A 
HETATM   25  C19 UNL     1      27.590   1.235  54.063  1.00  0.00     0.038 A 
HETATM   26  C20 UNL     1      27.634   0.328  52.899  1.00  0.00     0.113 A 
HETATM   27  F1  UNL     1      28.423  -0.776  52.804  1.00  0.00    -0.206 F 
HETATM   28  C21 UNL     1      26.777   0.776  51.972  1.00  0.00     0.025 A 
ENDBRANCH   1  23
TORSDOF 6
ENDMDL
MODEL 4
REMARK VINA RESULT:      -8.2      2.533      5.486
REMARK  6 active torsions:
REMARK  status: ('A' for Active; 'I' for Inactive)
REMARK    1  A    between atoms: C6_7  and  O1_8 
REMARK    2  A    between atoms: C7_9  and  C8_10 
REMARK    3  A    between atoms: C8_10  and  C9_11 
REMARK    4  A    between atoms: C9_11  and  C10_12 
REMARK    5  A    between atoms: C9_11  and  C17_21 
REMARK       I    between atoms: C10_12  and  N1_14 
REMARK    6  A    between atoms: N1_14  and  C11_15 
ROOT
HETATM    1  C9  UNL     1      23.522   0.969  52.849  1.00  0.00     0.094 C 
ENDROOT
BRANCH   1   2
HETATM    2  C8  UNL     1      23.483   1.447  51.423  1.00  0.00     0.057 C 
BRANCH   2   3
HETATM    3  C7  UNL     1      23.476   2.887  51.225  1.00  0.00    -0.017 A 
HETATM    4  C2  UNL     1      22.554   3.855  51.507  1.00  0.00    -0.053 A 
HETATM    5  C1  UNL     1      21.345   3.429  52.215  1.00  0.00     0.049 C 
HETATM    6  C3  UNL     1      22.649   5.199  51.229  1.00  0.00     0.009 A 
HETATM    7  C4  UNL     1      23.783   5.665  50.599  1.00  0.00     0.022 A 
HETATM    8  C5  UNL     1      24.770   4.767  50.272  1.00  0.00     0.044 A 
HETATM    9 BR1  UNL     1      26.329   5.408  49.409  1.00  0.00    -0.048 Br
HETATM   10  C6  UNL     1      24.603   3.438  50.583  1.00  0.00     0.089 A 
BRANCH  10  11
HETATM   11  O1  UNL     1      25.665   2.597  50.213  1.00  0.00    -0.359 OA
HETATM   12  H6  UNL     1      26.468   3.078  49.810  1.00  0.00     0.217 HD
ENDBRANCH  10  11
ENDBRANCH   2   3
ENDBRANCH   1   2
BRANCH   1  13
HETATM   13  C10 UNL     1      24.787   0.390  53.320  1.00  0.00     0.227 C 
HETATM   14  O2  UNL     1      24.799  -0.274  54.389  1.00  0.00    -0.273 OA
HETATM   15  N1  UNL     1      26.026   0.514  52.658  1.00  0.00    -0.327 N 
HETATM   16  H10 UNL     1      25.923   1.090  51.769  1.00  0.00     0.169 HD
BRANCH  15  17
HETATM   17  C11 UNL     1      27.318   0.029  52.959  1.00  0.00     0.034 A 
HETATM   18  C12 UNL     1      28.298   0.897  53.384  1.00  0.00     0.029 A 
HETATM   19  C13 UNL     1      29.559   0.498  53.691  1.00  0.00     0.002 A 
HETATM   20  C14 UNL     1      29.933  -0.819  53.592  1.00  0.00     0.000 A 
HETATM   21  C15 UNL     1      28.997  -1.740  53.172  1.00  0.00     0.002 A 
HETATM   22  C16 UNL     1      27.738  -1.277  52.876  1.00  0.00     0.029 A 
ENDBRANCH  15  17
ENDBRANCH   1  13
BRANCH   1  23
HETATM   23  C17 UNL     1      22.457  -0.084  53.094  1.00  0.00     0.047 A 
HETATM   24  C18 UNL     1      21.617   0.233  54.262  1.00  0.00    -0.014 A 
HETATM   25  C19 UNL     1      20.353   0.223  53.866  1.00  0.00     0.038 A 
HETATM   26  C20 UNL     1      20.289  -0.099  52.427  1.00  0.00     0.113 A 
HETATM   27  F1  UNL     1      19.142  -0.191  51.702  1.00  0.00    -0.206 F 
HETATM   28  C21 UNL     1      21.536  -0.281  51.971  1.00  0.00     0.025 A 
ENDBRANCH   1  23
TORSDOF 6
ENDMDL
MODEL 5
REMARK VINA RESULT:      -8.1      3.163      5.174
REMARK  6 active torsions:
REMARK  status: ('A' for Active; 'I' for Inactive)
REMARK    1  A    between atoms: C6_7  and  O1_8 
REMARK    2  A    between atoms: C7_9  and  C8_10 
REMARK    3  A    between atoms: C8_10  and  C9_11 
REMARK    4  A    between atoms: C9_11  and  C10_12 
REMARK    5  A    between atoms: C9_11  and  C17_21 
REMARK       I    between atoms: C10_12  and  N1_14 
REMARK    6  A    between atoms: N1_14  and  C11_15 
ROOT
HETATM    1  C9  UNL     1      24.200   0.750  53.368  1.00  0.00     0.094 C 
ENDROOT
BRANCH   1   2
HETATM    2  C8  UNL     1      23.456  -0.287  52.572  1.00  0.00     0.057 C 
BRANCH   2   3
HETATM    3  C7  UNL     1      22.004  -0.238  52.647  1.00  0.00    -0.017 A 
HETATM    4  C2  UNL     1      21.108  -0.717  53.560  1.00  0.00    -0.053 A 
HETATM    5  C1  UNL     1      21.663  -1.347  54.760  1.00  0.00     0.049 C 
HETATM    6  C3  UNL     1      19.736  -0.640  53.497  1.00  0.00     0.009 A 
HETATM    7  C4  UNL     1      19.158  -0.022  52.410  1.00  0.00     0.022 A 
HETATM    8  C5  UNL     1      19.977   0.492  51.433  1.00  0.00     0.044 A 
HETATM    9 BR1  UNL     1      19.183   1.345  49.940  1.00  0.00    -0.048 Br
HETATM   10  C6  UNL     1      21.341   0.378  51.567  1.00  0.00     0.089 A 
BRANCH  10  11
HETATM   11  O1  UNL     1      22.096   0.935  50.522  1.00  0.00    -0.359 OA
HETATM   12  H6  UNL     1      22.847   0.339  50.175  1.00  0.00     0.217 HD
ENDBRANCH  10  11
ENDBRANCH   2   3
ENDBRANCH   1   2
BRANCH   1  13
HETATM   13  C10 UNL     1      24.540   2.000  52.676  1.00  0.00     0.227 C 
HETATM   14  O2  UNL     1      24.513   3.084  53.315  1.00  0.00    -0.273 OA
HETATM   15  N1  UNL     1      24.908   2.095  51.317  1.00  0.00    -0.327 N 
HETATM   16  H10 UNL     1      24.903   1.135  50.858  1.00  0.00     0.169 HD
BRANCH  15  17
HETATM   17  C11 UNL     1      25.264   3.193  50.503  1.00  0.00     0.034 A 
HETATM   18  C12 UNL     1      26.544   3.295  50.009  1.00  0.00     0.029 A 
HETATM   19  C13 UNL     1      26.953   4.323  49.221  1.00  0.00     0.002 A 
HETATM   20  C14 UNL     1      26.096   5.335  48.868  1.00  0.00     0.000 A 
HETATM   21  C15 UNL     1      24.798   5.290  49.330  1.00  0.00     0.002 A 
HETATM   22  C16 UNL     1      24.443   4.227  50.123  1.00  0.00     0.029 A 
ENDBRANCH  15  17
ENDBRANCH   1  13
BRANCH   1  23
HETATM   23  C17 UNL     1      25.509   0.189  53.894  1.00  0.00     0.047 A 
HETATM   24  C18 UNL     1      26.011  -0.922  53.067  1.00  0.00    -0.014 A 
HETATM   25  C19 UNL     1      27.248  -0.625  52.699  1.00  0.00     0.038 A 
HETATM   26  C20 UNL     1      27.629   0.687  53.259  1.00  0.00     0.113 A 
HETATM   27  F1  UNL     1      28.834   1.290  53.074  1.00  0.00    -0.206 F 
HETATM   28  C21 UNL     1      26.598   1.167  53.967  1.00  0.00     0.025 A 
ENDBRANCH   1  23
TORSDOF 6
ENDMDL
MODEL 6
REMARK VINA RESULT:      -8.1      3.115      5.483
REMARK  6 active torsions:
REMARK  status: ('A' for Active; 'I' for Inactive)
REMARK    1  A    between atoms: C6_7  and  O1_8 
REMARK    2  A    between atoms: C7_9  and  C8_10 
REMARK    3  A    between atoms: C8_10  and  C9_11 
REMARK    4  A    between atoms: C9_11  and  C10_12 
REMARK    5  A    between atoms: C9_11  and  C17_21 
REMARK       I    between atoms: C10_12  and  N1_14 
REMARK    6  A    between atoms: N1_14  and  C11_15 
ROOT
HETATM    1  C9  UNL     1      24.601   2.342  51.244  1.00  0.00     0.094 C 
ENDROOT
BRANCH   1   2
HETATM    2  C8  UNL     1      23.775   2.755  52.432  1.00  0.00     0.057 C 
BRANCH   2   3
HETATM    3  C7  UNL     1      22.501   2.075  52.599  1.00  0.00    -0.017 A 
HETATM    4  C2  UNL     1      21.217   2.426  52.291  1.00  0.00    -0.053 A 
HETATM    5  C1  UNL     1      21.032   3.695  51.583  1.00  0.00     0.049 C 
HETATM    6  C3  UNL     1      20.075   1.701  52.540  1.00  0.00     0.009 A 
HETATM    7  C4  UNL     1      20.190   0.480  53.167  1.00  0.00     0.022 A 
HETATM    8  C5  UNL     1      21.443   0.037  53.520  1.00  0.00     0.044 A 
HETATM    9 BR1  UNL     1      21.602  -1.643  54.380  1.00  0.00    -0.048 Br
HETATM   10  C6  UNL     1      22.539   0.819  53.237  1.00  0.00     0.089 A 
BRANCH  10  11
HETATM   11  O1  UNL     1      23.775   0.284  53.632  1.00  0.00    -0.359 OA
HETATM   12  H6  UNL     1      24.031   0.472  54.601  1.00  0.00     0.217 HD
ENDBRANCH  10  11
ENDBRANCH   2   3
ENDBRANCH   1   2
BRANCH   1  13
HETATM   13  C10 UNL     1      25.950   1.829  51.521  1.00  0.00     0.227 C 
HETATM   14  O2  UNL     1      26.917   2.241  50.830  1.00  0.00    -0.273 OA
HETATM   15  N1  UNL     1      26.264   0.890  52.525  1.00  0.00    -0.327 N 
HETATM   16  H10 UNL     1      25.390   0.599  53.056  1.00  0.00     0.169 HD
BRANCH  15  17
HETATM   17  C11 UNL     1      27.484   0.300  52.926  1.00  0.00     0.034 A 
HETATM   18  C12 UNL     1      27.650  -1.063  52.838  1.00  0.00     0.029 A 
HETATM   19  C13 UNL     1      28.794  -1.694  53.205  1.00  0.00     0.002 A 
HETATM   20  C14 UNL     1      29.869  -0.994  53.695  1.00  0.00     0.000 A 
HETATM   21  C15 UNL     1      29.767   0.376  53.807  1.00  0.00     0.002 A 
HETATM   22  C16 UNL     1      28.584   0.958  53.420  1.00  0.00     0.029 A 
ENDBRANCH  15  17
ENDBRANCH   1  13
BRANCH   1  23
HETATM   23  C17 UNL     1      24.779   3.503  50.282  1.00  0.00     0.047 A 
HETATM   24  C18 UNL     1      23.935   3.366  49.083  1.00  0.00    -0.014 A 
HETATM   25  C19 UNL     1      23.210   4.468  48.969  1.00  0.00     0.038 A 
HETATM   26  C20 UNL     1      23.532   5.387  50.079  1.00  0.00     0.113 A 
HETATM   27  F1  UNL     1      22.966   6.610  50.264  1.00  0.00    -0.206 F 
HETATM   28  C21 UNL     1      24.461   4.814  50.856  1.00  0.00     0.025 A 
ENDBRANCH   1  23
TORSDOF 6
ENDMDL
MODEL 7
REMARK VINA RESULT:      -8.0      3.486      7.368
REMARK  6 active torsions:
REMARK  status: ('A' for Active; 'I' for Inactive)
REMARK    1  A    between atoms: C6_7  and  O1_8 
REMARK    2  A    between atoms: C7_9  and  C8_10 
REMARK    3  A    between atoms: C8_10  and  C9_11 
REMARK    4  A    between atoms: C9_11  and  C10_12 
REMARK    5  A    between atoms: C9_11  and  C17_21 
REMARK       I    between atoms: C10_12  and  N1_14 
REMARK    6  A    between atoms: N1_14  and  C11_15 
ROOT
HETATM    1  C9  UNL     1      24.252   0.514  52.733  1.00  0.00     0.094 C 
ENDROOT
BRANCH   1   2
HETATM    2  C8  UNL     1      24.452   1.988  52.955  1.00  0.00     0.057 C 
BRANCH   2   3
HETATM    3  C7  UNL     1      24.585   2.809  51.762  1.00  0.00    -0.017 A 
HETATM    4  C2  UNL     1      25.645   3.090  50.946  1.00  0.00    -0.053 A 
HETATM    5  C1  UNL     1      26.904   2.401  51.238  1.00  0.00     0.049 C 
HETATM    6  C3  UNL     1      25.653   3.926  49.854  1.00  0.00     0.009 A 
HETATM    7  C4  UNL     1      24.486   4.572  49.507  1.00  0.00     0.022 A 
HETATM    8  C5  UNL     1      23.362   4.354  50.268  1.00  0.00     0.044 A 
HETATM    9 BR1  UNL     1      21.758   5.239  49.789  1.00  0.00    -0.048 Br
HETATM   10  C6  UNL     1      23.432   3.503  51.346  1.00  0.00     0.089 A 
BRANCH  10  11
HETATM   11  O1  UNL     1      22.235   3.342  52.061  1.00  0.00    -0.359 OA
HETATM   12  H6  UNL     1      22.053   4.066  52.756  1.00  0.00     0.217 HD
ENDBRANCH  10  11
ENDBRANCH   2   3
ENDBRANCH   1   2
BRANCH   1  13
HETATM   13  C10 UNL     1      22.908  -0.019  52.992  1.00  0.00     0.227 C 
HETATM   14  O2  UNL     1      22.746  -0.851  53.922  1.00  0.00    -0.273 OA
HETATM   15  N1  UNL     1      21.749   0.333  52.271  1.00  0.00    -0.327 N 
HETATM   16  H10 UNL     1      21.979   1.037  51.508  1.00  0.00     0.169 HD
BRANCH  15  17
HETATM   17  C11 UNL     1      20.399  -0.071  52.385  1.00  0.00     0.034 A 
HETATM   18  C12 UNL     1      19.495   0.272  51.406  1.00  0.00     0.029 A 
HETATM   19  C13 UNL     1      18.185  -0.083  51.452  1.00  0.00     0.002 A 
HETATM   20  C14 UNL     1      17.682  -0.817  52.497  1.00  0.00     0.000 A 
HETATM   21  C15 UNL     1      18.538  -1.194  53.510  1.00  0.00     0.002 A 
HETATM   22  C16 UNL     1      19.851  -0.805  53.409  1.00  0.00     0.029 A 
ENDBRANCH  15  17
ENDBRANCH   1  13
BRANCH   1  23
HETATM   23  C17 UNL     1      25.203  -0.295  53.597  1.00  0.00     0.047 A 
HETATM   24  C18 UNL     1      26.151  -1.084  52.794  1.00  0.00    -0.014 A 
HETATM   25  C19 UNL     1      27.376  -0.776  53.193  1.00  0.00     0.038 A 
HETATM   26  C20 UNL     1      27.304   0.227  54.275  1.00  0.00     0.113 A 
HETATM   27  F1  UNL     1      28.381   0.762  54.911  1.00  0.00    -0.206 F 
HETATM   28  C21 UNL     1      26.017   0.511  54.513  1.00  0.00     0.025 A 
ENDBRANCH   1  23
TORSDOF 6
ENDMDL
MODEL 8
REMARK VINA RESULT:      -7.8      2.843      5.633
REMARK  6 active torsions:
REMARK  status: ('A' for Active; 'I' for Inactive)
REMARK    1  A    between atoms: C6_7  and  O1_8 
REMARK    2  A    between atoms: C7_9  and  C8_10 
REMARK    3  A    between atoms: C8_10  and  C9_11 
REMARK    4  A    between atoms: C9_11  and  C10_12 
REMARK    5  A    between atoms: C9_11  and  C17_21 
REMARK       I    between atoms: C10_12  and  N1_14 
REMARK    6  A    between atoms: N1_14  and  C11_15 
ROOT
HETATM    1  C9  UNL     1      24.981   3.960  50.215  1.00  0.00     0.094 C 
ENDROOT
BRANCH   1   2
HETATM    2  C8  UNL     1      23.689   3.865  50.979  1.00  0.00     0.057 C 
BRANCH   2   3
HETATM    3  C7  UNL     1      22.885   2.677  50.744  1.00  0.00    -0.017 A 
HETATM    4  C2  UNL     1      22.177   2.238  49.661  1.00  0.00    -0.053 A 
HETATM    5  C1  UNL     1      22.267   3.046  48.443  1.00  0.00     0.049 C 
HETATM    6  C3  UNL     1      21.413   1.097  49.575  1.00  0.00     0.009 A 
HETATM    7  C4  UNL     1      21.323   0.277  50.679  1.00  0.00     0.022 A 
HETATM    8  C5  UNL     1      22.001   0.633  51.820  1.00  0.00     0.044 A 
HETATM    9 BR1  UNL     1      21.881  -0.496  53.336  1.00  0.00    -0.048 Br
HETATM   10  C6  UNL     1      22.746   1.789  51.830  1.00  0.00     0.089 A 
BRANCH  10  11
HETATM   11  O1  UNL     1      23.404   2.069  53.038  1.00  0.00    -0.359 OA
HETATM   12  H6  UNL     1      24.409   2.218  52.951  1.00  0.00     0.217 HD
ENDBRANCH  10  11
ENDBRANCH   2   3
ENDBRANCH   1   2
BRANCH   1  13
HETATM   13  C10 UNL     1      26.126   3.214  50.754  1.00  0.00     0.227 C 
HETATM   14  O2  UNL     1      27.157   3.074  50.046  1.00  0.00    -0.273 OA
HETATM   15  N1  UNL     1      26.174   2.626  52.035  1.00  0.00    -0.327 N 
HETATM   16  H10 UNL     1      25.264   2.792  52.561  1.00  0.00     0.169 HD
BRANCH  15  17
HETATM   17  C11 UNL     1      27.176   1.890  52.707  1.00  0.00     0.034 A 
HETATM   18  C12 UNL     1      27.163   0.515  52.664  1.00  0.00     0.029 A 
HETATM   19  C13 UNL     1      28.095  -0.253  53.286  1.00  0.00     0.002 A 
HETATM   20  C14 UNL     1      29.119   0.311  54.005  1.00  0.00     0.000 A 
HETATM   21  C15 UNL     1      29.189   1.685  54.085  1.00  0.00     0.002 A 
HETATM   22  C16 UNL     1      28.218   2.409  53.436  1.00  0.00     0.029 A 
ENDBRANCH  15  17
ENDBRANCH   1  13
BRANCH   1  23
HETATM   23  C17 UNL     1      25.434   5.404  50.098  1.00  0.00     0.047 A 
HETATM   24  C18 UNL     1      25.450   5.871  48.701  1.00  0.00    -0.014 A 
HETATM   25  C19 UNL     1      24.712   6.969  48.633  1.00  0.00     0.038 A 
HETATM   26  C20 UNL     1      24.173   7.285  49.971  1.00  0.00     0.113 A 
HETATM   27  F1  UNL     1      23.374   8.349  50.255  1.00  0.00    -0.206 F 
HETATM   28  C21 UNL     1      24.602   6.358  50.837  1.00  0.00     0.025 A 
ENDBRANCH   1  23
TORSDOF 6
ENDMDL
MODEL 9
REMARK VINA RESULT:      -7.8      3.780      5.929
REMARK  6 active torsions:
REMARK  status: ('A' for Active; 'I' for Inactive)
REMARK    1  A    between atoms: C6_7  and  O1_8 
REMARK    2  A    between atoms: C7_9  and  C8_10 
REMARK    3  A    between atoms: C8_10  and  C9_11 
REMARK    4  A    between atoms: C9_11  and  C10_12 
REMARK    5  A    between atoms: C9_11  and  C17_21 
REMARK       I    between atoms: C10_12  and  N1_14 
REMARK    6  A    between atoms: N1_14  and  C11_15 
ROOT
HETATM    1  C9  UNL     1      23.567   1.148  52.162  1.00  0.00     0.094 C 
ENDROOT
BRANCH   1   2
HETATM    2  C8  UNL     1      22.492   1.510  53.151  1.00  0.00     0.057 C 
BRANCH   2   3
HETATM    3  C7  UNL     1      21.303   0.672  53.147  1.00  0.00    -0.017 A 
HETATM    4  C2  UNL     1      20.938  -0.421  53.881  1.00  0.00    -0.053 A 
HETATM    5  C1  UNL     1      21.853  -0.834  54.948  1.00  0.00     0.049 C 
HETATM    6  C3  UNL     1      19.786  -1.160  53.752  1.00  0.00     0.009 A 
HETATM    7  C4  UNL     1      18.869  -0.794  52.791  1.00  0.00     0.022 A 
HETATM    8  C5  UNL     1      19.145   0.294  51.999  1.00  0.00     0.044 A 
HETATM    9 BR1  UNL     1      17.884   0.799  50.680  1.00  0.00    -0.048 Br
HETATM   10  C6  UNL     1      20.320   0.985  52.187  1.00  0.00     0.089 A 
BRANCH  10  11
HETATM   11  O1  UNL     1      20.514   2.083  51.333  1.00  0.00    -0.359 OA
HETATM   12  H6  UNL     1      19.658   2.561  51.054  1.00  0.00     0.217 HD
ENDBRANCH  10  11
ENDBRANCH   2   3
ENDBRANCH   1   2
BRANCH   1  13
HETATM   13  C10 UNL     1      24.724   0.407  52.683  1.00  0.00     0.227 C 
HETATM   14  O2  UNL     1      24.532  -0.617  53.387  1.00  0.00    -0.273 OA
HETATM   15  N1  UNL     1      26.072   0.752  52.451  1.00  0.00    -0.327 N 
HETATM   16  H10 UNL     1      26.139   1.627  51.850  1.00  0.00     0.169 HD
BRANCH  15  17
HETATM   17  C11 UNL     1      27.288   0.162  52.862  1.00  0.00     0.034 A 
HETATM   18  C12 UNL     1      28.288   0.946  53.392  1.00  0.00     0.029 A 
HETATM   19  C13 UNL     1      29.480   0.444  53.807  1.00  0.00     0.002 A 
HETATM   20  C14 UNL     1      29.758  -0.897  53.718  1.00  0.00     0.000 A 
HETATM   21  C15 UNL     1      28.797  -1.737  53.196  1.00  0.00     0.002 A 
HETATM   22  C16 UNL     1      27.611  -1.172  52.794  1.00  0.00     0.029 A 
ENDBRANCH  15  17
ENDBRANCH   1  13
BRANCH   1  23
HETATM   23  C17 UNL     1      24.126   2.392  51.495  1.00  0.00     0.047 A 
HETATM   24  C18 UNL     1      23.680   2.521  50.097  1.00  0.00    -0.014 A 
HETATM   25  C19 UNL     1      23.118   3.713  49.960  1.00  0.00     0.038 A 
HETATM   26  C20 UNL     1      23.162   4.430  51.250  1.00  0.00     0.113 A 
HETATM   27  F1  UNL     1      22.671   5.681  51.459  1.00  0.00    -0.206 F 
HETATM   28  C21 UNL     1      23.759   3.647  52.157  1.00  0.00     0.025 A 
ENDBRANCH   1  23
TORSDOF 6
ENDMDL
