MODEL 1
REMARK VINA RESULT:      -8.8      0.000      0.000
REMARK  3 active torsions:
REMARK  status: ('A' for Active; 'I' for Inactive)
REMARK    1  A    between atoms: N1_1  and  C1_2 
REMARK    2  A    between atoms: C5_6  and  C6_7 
REMARK    3  A    between atoms: C7_8  and  N2_9 
ROOT
HETATM    1  N2  UNL     1      24.377   0.218  53.661  1.00  0.00    -0.271 N 
HETATM    2  C8  UNL     1      23.430   0.280  52.785  1.00  0.00     0.100 A 
HETATM    3  C9  UNL     1      23.318   1.190  51.599  1.00  0.00     0.121 C 
HETATM    4  C10 UNL     1      22.175   2.132  51.622  1.00  0.00     0.003 A 
HETATM    5  P1  UNL     1      20.970   3.241  51.634  1.00  0.00    -0.018 P 
HETATM    6  C11 UNL     1      19.294   2.359  51.922  1.00  0.00     0.031 A 
HETATM    7  C12 UNL     1      19.516   1.146  52.032  1.00  0.00    -0.015 A 
HETATM    8  S1  UNL     1      21.128   0.636  51.898  1.00  0.00    -0.097 SA
HETATM    9  C13 UNL     1      18.576  -0.050  52.397  1.00  0.00     0.051 C 
HETATM   10  C14 UNL     1      19.459  -0.888  53.339  1.00  0.00     0.001 C 
HETATM   11  C15 UNL     1      20.468  -1.476  54.068  1.00  0.00     0.018 C 
HETATM   12  C16 UNL     1      21.950  -1.090  53.946  1.00  0.00     0.112 C 
HETATM   13  N3  UNL     1      23.220  -0.716  53.796  1.00  0.00    -0.169 NA
ENDROOT
BRANCH   1  14
HETATM   14  C7  UNL     1      25.468   1.082  53.548  1.00  0.00     0.113 C 
HETATM   15  C6  UNL     1      26.716   1.457  53.461  1.00  0.00     0.030 C 
BRANCH  15  16
HETATM   16  C5  UNL     1      27.820   0.538  53.466  1.00  0.00    -0.033 A 
HETATM   17  C4  UNL     1      29.127   0.874  53.665  1.00  0.00     0.011 A 
HETATM   18  C3  UNL     1      30.176  -0.023  53.660  1.00  0.00     0.003 A 
HETATM   19  C2  UNL     1      29.869  -1.354  53.440  1.00  0.00     0.029 A 
HETATM   20  C1  UNL     1      28.575  -1.772  53.232  1.00  0.00     0.026 A 
HETATM   21  C17 UNL     1      27.583  -0.810  53.252  1.00  0.00     0.040 A 
BRANCH  20  22
HETATM   22  N1  UNL     1      28.273  -3.143  53.006  1.00  0.00    -0.399 N 
HETATM   23  H1  UNL     1      29.162  -3.532  53.415  1.00  0.00     0.156 HD
HETATM   24  H2  UNL     1      27.332  -2.957  52.559  1.00  0.00     0.156 HD
ENDBRANCH  20  22
ENDBRANCH  15  16
ENDBRANCH   1  14
TORSDOF 3
ENDMDL
MODEL 2
REMARK VINA RESULT:      -8.3      2.450      3.422
REMARK  3 active torsions:
REMARK  status: ('A' for Active; 'I' for Inactive)
REMARK    1  A    between atoms: N1_1  and  C1_2 
REMARK    2  A    between atoms: C5_6  and  C6_7 
REMARK    3  A    between atoms: C7_8  and  N2_9 
ROOT
HETATM    1  N2  UNL     1      24.006   2.775  50.325  1.00  0.00    -0.271 N 
HETATM    2  C8  UNL     1      23.244   2.492  51.329  1.00  0.00     0.100 A 
HETATM    3  C9  UNL     1      23.621   2.351  52.773  1.00  0.00     0.121 C 
HETATM    4  C10 UNL     1      23.421   1.005  53.357  1.00  0.00     0.003 A 
HETATM    5  P1  UNL     1      23.287  -0.482  54.030  1.00  0.00    -0.018 P 
HETATM    6  C11 UNL     1      21.507  -1.143  53.768  1.00  0.00     0.031 A 
HETATM    7  C12 UNL     1      20.869  -0.282  53.147  1.00  0.00    -0.015 A 
HETATM    8  S1  UNL     1      21.688   1.145  52.736  1.00  0.00    -0.097 SA
HETATM    9  C13 UNL     1      19.427  -0.299  52.541  1.00  0.00     0.051 C 
HETATM   10  C14 UNL     1      19.631   0.403  51.185  1.00  0.00     0.001 C 
HETATM   11  C15 UNL     1      20.066   1.120  50.095  1.00  0.00     0.018 C 
HETATM   12  C16 UNL     1      21.392   1.895  50.052  1.00  0.00     0.112 C 
HETATM   13  N3  UNL     1      22.551   2.551  50.074  1.00  0.00    -0.169 NA
ENDROOT
BRANCH   1  14
HETATM   14  C7  UNL     1      25.368   2.991  50.543  1.00  0.00     0.113 C 
HETATM   15  C6  UNL     1      26.571   2.783  51.006  1.00  0.00     0.030 C 
BRANCH  15  16
HETATM   16  C5  UNL     1      26.912   1.672  51.851  1.00  0.00    -0.033 A 
HETATM   17  C4  UNL     1      26.529   0.378  51.646  1.00  0.00     0.011 A 
HETATM   18  C3  UNL     1      26.862  -0.677  52.472  1.00  0.00     0.003 A 
HETATM   19  C2  UNL     1      27.639  -0.392  53.581  1.00  0.00     0.029 A 
HETATM   20  C1  UNL     1      28.066   0.887  53.854  1.00  0.00     0.026 A 
HETATM   21  C17 UNL     1      27.689   1.886  52.977  1.00  0.00     0.040 A 
BRANCH  20  22
HETATM   22  N1  UNL     1      28.864   1.166  54.997  1.00  0.00    -0.399 N 
HETATM   23  H1  UNL     1      28.111   1.002  55.715  1.00  0.00     0.156 HD
HETATM   24  H2  UNL     1      29.743   1.375  54.445  1.00  0.00     0.156 HD
ENDBRANCH  20  22
ENDBRANCH  15  16
ENDBRANCH   1  14
TORSDOF 3
ENDMDL
MODEL 3
REMARK VINA RESULT:      -8.3      2.426      3.731
REMARK  3 active torsions:
REMARK  status: ('A' for Active; 'I' for Inactive)
REMARK    1  A    between atoms: N1_1  and  C1_2 
REMARK    2  A    between atoms: C5_6  and  C6_7 
REMARK    3  A    between atoms: C7_8  and  N2_9 
ROOT
HETATM    1  N2  UNL     1      24.512   1.591  53.016  1.00  0.00    -0.271 N 
HETATM    2  C8  UNL     1      23.308   1.849  52.625  1.00  0.00     0.100 A 
HETATM    3  C9  UNL     1      22.263   0.891  52.137  1.00  0.00     0.121 C 
HETATM    4  C10 UNL     1      21.828   1.081  50.734  1.00  0.00     0.003 A 
HETATM    5  P1  UNL     1      21.367   1.203  49.167  1.00  0.00    -0.018 P 
HETATM    6  C11 UNL     1      20.804   2.999  48.806  1.00  0.00     0.031 A 
HETATM    7  C12 UNL     1      20.922   3.652  49.851  1.00  0.00    -0.015 A 
HETATM    8  S1  UNL     1      21.500   2.832  51.219  1.00  0.00    -0.097 SA
HETATM    9  C13 UNL     1      20.742   5.178  50.144  1.00  0.00     0.051 C 
HETATM   10  C14 UNL     1      21.924   5.476  51.085  1.00  0.00     0.001 C 
HETATM   11  C15 UNL     1      22.990   5.448  51.955  1.00  0.00     0.018 C 
HETATM   12  C16 UNL     1      23.579   4.159  52.549  1.00  0.00     0.112 C 
HETATM   13  N3  UNL     1      24.045   3.010  53.034  1.00  0.00    -0.169 NA
ENDROOT
BRANCH   1  14
HETATM   14  C7  UNL     1      24.963   0.270  53.007  1.00  0.00     0.113 C 
HETATM   15  C6  UNL     1      25.806  -0.725  53.071  1.00  0.00     0.030 C 
BRANCH  15  16
HETATM   16  C5  UNL     1      27.218  -0.554  53.278  1.00  0.00    -0.033 A 
HETATM   17  C4  UNL     1      28.168  -1.510  53.067  1.00  0.00     0.011 A 
HETATM   18  C3  UNL     1      29.520  -1.329  53.277  1.00  0.00     0.003 A 
HETATM   19  C2  UNL     1      29.930  -0.088  53.731  1.00  0.00     0.029 A 
HETATM   20  C1  UNL     1      29.032   0.927  53.967  1.00  0.00     0.026 A 
HETATM   21  C17 UNL     1      27.695   0.664  53.731  1.00  0.00     0.040 A 
BRANCH  20  22
HETATM   22  N1  UNL     1      29.466   2.198  54.433  1.00  0.00    -0.399 N 
HETATM   23  H1  UNL     1      29.676   2.610  53.487  1.00  0.00     0.156 HD
HETATM   24  H2  UNL     1      29.319   1.974  55.457  1.00  0.00     0.156 HD
ENDBRANCH  20  22
ENDBRANCH  15  16
ENDBRANCH   1  14
TORSDOF 3
ENDMDL
MODEL 4
REMARK VINA RESULT:      -8.1      3.398      4.929
REMARK  3 active torsions:
REMARK  status: ('A' for Active; 'I' for Inactive)
REMARK    1  A    between atoms: N1_1  and  C1_2 
REMARK    2  A    between atoms: C5_6  and  C6_7 
REMARK    3  A    between atoms: C7_8  and  N2_9 
ROOT
HETATM    1  N2  UNL     1      25.569   2.546  51.174  1.00  0.00    -0.271 N 
HETATM    2  C8  UNL     1      24.874   3.593  51.474  1.00  0.00     0.100 A 
HETATM    3  C9  UNL     1      23.783   3.724  52.494  1.00  0.00     0.121 C 
HETATM    4  C10 UNL     1      22.444   4.061  51.957  1.00  0.00     0.003 A 
HETATM    5  P1  UNL     1      20.931   4.360  51.406  1.00  0.00    -0.018 P 
HETATM    6  C11 UNL     1      20.954   5.919  50.292  1.00  0.00     0.031 A 
HETATM    7  C12 UNL     1      22.118   6.339  50.249  1.00  0.00    -0.015 A 
HETATM    8  S1  UNL     1      23.285   5.483  51.133  1.00  0.00    -0.097 SA
HETATM    9  C13 UNL     1      22.774   7.488  49.414  1.00  0.00     0.051 C 
HETATM   10  C14 UNL     1      24.115   6.862  48.989  1.00  0.00     0.001 C 
HETATM   11  C15 UNL     1      25.254   6.108  48.823  1.00  0.00     0.018 C 
HETATM   12  C16 UNL     1      25.600   4.877  49.674  1.00  0.00     0.112 C 
HETATM   13  N3  UNL     1      25.848   3.820  50.445  1.00  0.00    -0.169 NA
ENDROOT
BRANCH   1  14
HETATM   14  C7  UNL     1      25.323   1.349  51.848  1.00  0.00     0.113 C 
HETATM   15  C6  UNL     1      25.581   0.252  52.508  1.00  0.00     0.030 C 
BRANCH  15  16
HETATM   16  C5  UNL     1      26.910  -0.160  52.868  1.00  0.00    -0.033 A 
HETATM   17  C4  UNL     1      27.928   0.677  53.218  1.00  0.00     0.011 A 
HETATM   18  C3  UNL     1      29.202   0.263  53.555  1.00  0.00     0.003 A 
HETATM   19  C2  UNL     1      29.451  -1.098  53.534  1.00  0.00     0.029 A 
HETATM   20  C1  UNL     1      28.475  -2.006  53.192  1.00  0.00     0.026 A 
HETATM   21  C17 UNL     1      27.227  -1.508  52.868  1.00  0.00     0.040 A 
BRANCH  20  22
HETATM   22  N1  UNL     1      28.744  -3.401  53.174  1.00  0.00    -0.399 N 
HETATM   23  H1  UNL     1      29.784  -3.327  53.324  1.00  0.00     0.156 HD
HETATM   24  H2  UNL     1      27.737  -3.687  53.020  1.00  0.00     0.156 HD
ENDBRANCH  20  22
ENDBRANCH  15  16
ENDBRANCH   1  14
TORSDOF 3
ENDMDL
MODEL 5
REMARK VINA RESULT:      -8.1      3.198      6.742
REMARK  3 active torsions:
REMARK  status: ('A' for Active; 'I' for Inactive)
REMARK    1  A    between atoms: N1_1  and  C1_2 
REMARK    2  A    between atoms: C5_6  and  C6_7 
REMARK    3  A    between atoms: C7_8  and  N2_9 
ROOT
HETATM    1  N2  UNL     1      25.291   1.180  52.279  1.00  0.00    -0.271 N 
HETATM    2  C8  UNL     1      25.029   2.443  52.222  1.00  0.00     0.100 A 
HETATM    3  C9  UNL     1      23.942   3.200  52.924  1.00  0.00     0.121 C 
HETATM    4  C10 UNL     1      22.936   3.838  52.044  1.00  0.00     0.003 A 
HETATM    5  P1  UNL     1      21.758   4.499  51.118  1.00  0.00    -0.018 P 
HETATM    6  C11 UNL     1      22.552   5.618  49.779  1.00  0.00     0.031 A 
HETATM    7  C12 UNL     1      23.781   5.578  49.930  1.00  0.00    -0.015 A 
HETATM    8  S1  UNL     1      24.377   4.619  51.195  1.00  0.00    -0.097 SA
HETATM    9  C13 UNL     1      24.948   6.175  49.077  1.00  0.00     0.051 C 
HETATM   10  C14 UNL     1      25.982   5.033  49.088  1.00  0.00     0.001 C 
HETATM   11  C15 UNL     1      26.744   3.913  49.324  1.00  0.00     0.018 C 
HETATM   12  C16 UNL     1      26.452   2.895  50.437  1.00  0.00     0.112 C 
HETATM   13  N3  UNL     1      26.150   2.048  51.419  1.00  0.00    -0.169 NA
ENDROOT
BRANCH   1  14
HETATM   14  C7  UNL     1      24.501   0.355  53.081  1.00  0.00     0.113 C 
HETATM   15  C6  UNL     1      23.429  -0.260  53.505  1.00  0.00     0.030 C 
BRANCH  15  16
HETATM   16  C5  UNL     1      22.144  -0.134  52.876  1.00  0.00    -0.033 A 
HETATM   17  C4  UNL     1      21.917   0.409  51.645  1.00  0.00     0.011 A 
HETATM   18  C3  UNL     1      20.672   0.527  51.059  1.00  0.00     0.003 A 
HETATM   19  C2  UNL     1      19.587   0.059  51.778  1.00  0.00     0.029 A 
HETATM   20  C1  UNL     1      19.735  -0.502  53.025  1.00  0.00     0.026 A 
HETATM   21  C17 UNL     1      21.015  -0.583  53.540  1.00  0.00     0.040 A 
BRANCH  20  22
HETATM   22  N1  UNL     1      18.611  -0.980  53.753  1.00  0.00    -0.399 N 
HETATM   23  H1  UNL     1      18.705  -1.990  53.473  1.00  0.00     0.156 HD
HETATM   24  H2  UNL     1      18.347  -0.033  54.145  1.00  0.00     0.156 HD
ENDBRANCH  20  22
ENDBRANCH  15  16
ENDBRANCH   1  14
TORSDOF 3
ENDMDL
MODEL 6
REMARK VINA RESULT:      -7.8      3.858      5.883
REMARK  3 active torsions:
REMARK  status: ('A' for Active; 'I' for Inactive)
REMARK    1  A    between atoms: N1_1  and  C1_2 
REMARK    2  A    between atoms: C5_6  and  C6_7 
REMARK    3  A    between atoms: C7_8  and  N2_9 
ROOT
HETATM    1  N2  UNL     1      22.236   3.114  52.229  1.00  0.00    -0.271 N 
HETATM    2  C8  UNL     1      22.722   3.446  51.079  1.00  0.00     0.100 A 
HETATM    3  C9  UNL     1      23.563   2.622  50.152  1.00  0.00     0.121 C 
HETATM    4  C10 UNL     1      24.931   3.134  49.903  1.00  0.00     0.003 A 
HETATM    5  P1  UNL     1      26.475   3.619  49.654  1.00  0.00    -0.018 P 
HETATM    6  C11 UNL     1      26.483   5.445  49.070  1.00  0.00     0.031 A 
HETATM    7  C12 UNL     1      25.309   5.833  49.017  1.00  0.00    -0.015 A 
HETATM    8  S1  UNL     1      24.103   4.718  49.438  1.00  0.00    -0.097 SA
HETATM    9  C13 UNL     1      24.697   7.244  48.734  1.00  0.00     0.051 C 
HETATM   10  C14 UNL     1      23.555   7.322  49.765  1.00  0.00     0.001 C 
HETATM   11  C15 UNL     1      22.574   7.098  50.703  1.00  0.00     0.018 C 
HETATM   12  C16 UNL     1      22.219   5.711  51.260  1.00  0.00     0.112 C 
HETATM   13  N3  UNL     1      21.954   4.484  51.705  1.00  0.00    -0.169 NA
ENDROOT
BRANCH   1  14
HETATM   14  C7  UNL     1      22.488   1.837  52.732  1.00  0.00     0.113 C 
HETATM   15  C6  UNL     1      23.177   0.788  53.093  1.00  0.00     0.030 C 
BRANCH  15  16
HETATM   16  C5  UNL     1      24.607   0.703  52.975  1.00  0.00    -0.033 A 
HETATM   17  C4  UNL     1      25.292  -0.332  52.409  1.00  0.00     0.011 A 
HETATM   18  C3  UNL     1      26.668  -0.399  52.309  1.00  0.00     0.003 A 
HETATM   19  C2  UNL     1      27.392   0.663  52.821  1.00  0.00     0.029 A 
HETATM   20  C1  UNL     1      26.773   1.744  53.406  1.00  0.00     0.026 A 
HETATM   21  C17 UNL     1      25.392   1.733  53.465  1.00  0.00     0.040 A 
BRANCH  20  22
HETATM   22  N1  UNL     1      27.529   2.829  53.928  1.00  0.00    -0.399 N 
HETATM   23  H1  UNL     1      27.570   3.389  53.037  1.00  0.00     0.156 HD
HETATM   24  H2  UNL     1      27.602   2.428  54.905  1.00  0.00     0.156 HD
ENDBRANCH  20  22
ENDBRANCH  15  16
ENDBRANCH   1  14
TORSDOF 3
ENDMDL
MODEL 7
REMARK VINA RESULT:      -7.8      3.960      6.342
REMARK  3 active torsions:
REMARK  status: ('A' for Active; 'I' for Inactive)
REMARK    1  A    between atoms: N1_1  and  C1_2 
REMARK    2  A    between atoms: C5_6  and  C6_7 
REMARK    3  A    between atoms: C7_8  and  N2_9 
ROOT
HETATM    1  N2  UNL     1      24.159   2.218  50.889  1.00  0.00    -0.271 N 
HETATM    2  C8  UNL     1      24.271   3.465  51.209  1.00  0.00     0.100 A 
HETATM    3  C9  UNL     1      23.362   4.290  52.069  1.00  0.00     0.121 C 
HETATM    4  C10 UNL     1      22.694   5.424  51.389  1.00  0.00     0.003 A 
HETATM    5  P1  UNL     1      21.876   6.644  50.667  1.00  0.00    -0.018 P 
HETATM    6  C11 UNL     1      23.114   7.793  49.761  1.00  0.00     0.031 A 
HETATM    7  C12 UNL     1      24.253   7.340  49.936  1.00  0.00    -0.015 A 
HETATM    8  S1  UNL     1      24.392   5.931  50.870  1.00  0.00    -0.097 SA
HETATM    9  C13 UNL     1      25.638   7.764  49.347  1.00  0.00     0.051 C 
HETATM   10  C14 UNL     1      26.299   6.406  49.047  1.00  0.00     0.001 C 
HETATM   11  C15 UNL     1      26.680   5.087  48.959  1.00  0.00     0.018 C 
HETATM   12  C16 UNL     1      25.976   3.939  49.698  1.00  0.00     0.112 C 
HETATM   13  N3  UNL     1      25.328   2.986  50.365  1.00  0.00    -0.169 NA
ENDROOT
BRANCH   1  14
HETATM   14  C7  UNL     1      23.074   1.485  51.373  1.00  0.00     0.113 C 
HETATM   15  C6  UNL     1      22.408   0.668  52.144  1.00  0.00     0.030 C 
BRANCH  15  16
HETATM   16  C5  UNL     1      22.992  -0.013  53.267  1.00  0.00    -0.033 A 
HETATM   17  C4  UNL     1      22.297  -0.662  54.245  1.00  0.00     0.011 A 
HETATM   18  C3  UNL     1      22.875  -1.305  55.321  1.00  0.00     0.003 A 
HETATM   19  C2  UNL     1      24.256  -1.285  55.403  1.00  0.00     0.029 A 
HETATM   20  C1  UNL     1      25.026  -0.652  54.455  1.00  0.00     0.026 A 
HETATM   21  C17 UNL     1      24.369  -0.032  53.409  1.00  0.00     0.040 A 
BRANCH  20  22
HETATM   22  N1  UNL     1      26.445  -0.639  54.551  1.00  0.00    -0.399 N 
HETATM   23  H1  UNL     1      26.499  -0.854  55.581  1.00  0.00     0.156 HD
HETATM   24  H2  UNL     1      26.603  -0.419  53.528  1.00  0.00     0.156 HD
ENDBRANCH  20  22
ENDBRANCH  15  16
ENDBRANCH   1  14
TORSDOF 3
ENDMDL
MODEL 8
REMARK VINA RESULT:      -7.8      1.837      2.295
REMARK  3 active torsions:
REMARK  status: ('A' for Active; 'I' for Inactive)
REMARK    1  A    between atoms: N1_1  and  C1_2 
REMARK    2  A    between atoms: C5_6  and  C6_7 
REMARK    3  A    between atoms: C7_8  and  N2_9 
ROOT
HETATM    1  N2  UNL     1      23.119   0.914  52.815  1.00  0.00    -0.271 N 
HETATM    2  C8  UNL     1      22.225   0.677  51.913  1.00  0.00     0.100 A 
HETATM    3  C9  UNL     1      22.123   1.251  50.531  1.00  0.00     0.121 C 
HETATM    4  C10 UNL     1      20.918   2.071  50.267  1.00  0.00     0.003 A 
HETATM    5  P1  UNL     1      19.642   3.046  49.948  1.00  0.00    -0.018 P 
HETATM    6  C11 UNL     1      18.015   2.129  50.380  1.00  0.00     0.031 A 
HETATM    7  C12 UNL     1      18.314   1.003  50.802  1.00  0.00    -0.015 A 
HETATM    8  S1  UNL     1      19.962   0.611  50.869  1.00  0.00    -0.097 SA
HETATM    9  C13 UNL     1      17.438  -0.137  51.418  1.00  0.00     0.051 C 
HETATM   10  C14 UNL     1      18.317  -0.638  52.578  1.00  0.00     0.001 C 
HETATM   11  C15 UNL     1      19.318  -0.941  53.473  1.00  0.00     0.018 C 
HETATM   12  C16 UNL     1      20.775  -0.478  53.319  1.00  0.00     0.112 C 
HETATM   13  N3  UNL     1      22.022  -0.050  53.133  1.00  0.00    -0.169 NA
ENDROOT
BRANCH   1  14
HETATM   14  C7  UNL     1      24.152   1.809  52.533  1.00  0.00     0.113 C 
HETATM   15  C6  UNL     1      25.372   2.264  52.439  1.00  0.00     0.030 C 
BRANCH  15  16
HETATM   16  C5  UNL     1      26.531   1.505  52.823  1.00  0.00    -0.033 A 
HETATM   17  C4  UNL     1      26.712   0.172  52.595  1.00  0.00     0.011 A 
HETATM   18  C3  UNL     1      27.830  -0.542  52.977  1.00  0.00     0.003 A 
HETATM   19  C2  UNL     1      28.830   0.151  53.634  1.00  0.00     0.029 A 
HETATM   20  C1  UNL     1      28.721   1.497  53.901  1.00  0.00     0.026 A 
HETATM   21  C17 UNL     1      27.569   2.137  53.484  1.00  0.00     0.040 A 
BRANCH  20  22
HETATM   22  N1  UNL     1      29.756   2.197  54.577  1.00  0.00    -0.399 N 
HETATM   23  H1  UNL     1      29.780   1.583  55.432  1.00  0.00     0.156 HD
HETATM   24  H2  UNL     1      29.888   2.922  53.818  1.00  0.00     0.156 HD
ENDBRANCH  20  22
ENDBRANCH  15  16
ENDBRANCH   1  14
TORSDOF 3
ENDMDL
MODEL 9
REMARK VINA RESULT:      -7.7      7.248      9.784
REMARK  3 active torsions:
REMARK  status: ('A' for Active; 'I' for Inactive)
REMARK    1  A    between atoms: N1_1  and  C1_2 
REMARK    2  A    between atoms: C5_6  and  C6_7 
REMARK    3  A    between atoms: C7_8  and  N2_9 
ROOT
HETATM    1  N2  UNL     1      26.806   5.632  49.064  1.00  0.00    -0.271 N 
HETATM    2  C8  UNL     1      27.825   6.212  48.522  1.00  0.00     0.100 A 
HETATM    3  C9  UNL     1      29.045   5.581  47.921  1.00  0.00     0.121 C 
HETATM    4  C10 UNL     1      30.325   5.895  48.596  1.00  0.00     0.003 A 
HETATM    5  P1  UNL     1      31.756   6.153  49.350  1.00  0.00    -0.018 P 
HETATM    6  C11 UNL     1      32.044   8.038  49.545  1.00  0.00     0.031 A 
HETATM    7  C12 UNL     1      31.072   8.624  49.050  1.00  0.00    -0.015 A 
HETATM    8  S1  UNL     1      29.846   7.665  48.377  1.00  0.00    -0.097 SA
HETATM    9  C13 UNL     1      30.681  10.139  49.022  1.00  0.00     0.051 C 
HETATM   10  C14 UNL     1      29.165  10.093  49.286  1.00  0.00     0.001 C 
HETATM   11  C15 UNL     1      27.838   9.767  49.450  1.00  0.00     0.018 C 
HETATM   12  C16 UNL     1      27.265   8.361  49.216  1.00  0.00     0.112 C 
HETATM   13  N3  UNL     1      26.824   7.124  48.996  1.00  0.00    -0.169 NA
ENDROOT
BRANCH   1  14
HETATM   14  C7  UNL     1      26.772   4.238  49.132  1.00  0.00     0.113 C 
HETATM   15  C6  UNL     1      26.582   3.052  49.644  1.00  0.00     0.030 C 
BRANCH  15  16
HETATM   16  C5  UNL     1      26.104   2.836  50.981  1.00  0.00    -0.033 A 
HETATM   17  C4  UNL     1      24.846   3.122  51.426  1.00  0.00     0.011 A 
HETATM   18  C3  UNL     1      24.406   2.913  52.718  1.00  0.00     0.003 A 
HETATM   19  C2  UNL     1      25.310   2.374  53.615  1.00  0.00     0.029 A 
HETATM   20  C1  UNL     1      26.596   2.057  53.242  1.00  0.00     0.026 A 
HETATM   21  C17 UNL     1      26.957   2.298  51.930  1.00  0.00     0.040 A 
BRANCH  20  22
HETATM   22  N1  UNL     1      27.515   1.504  54.174  1.00  0.00    -0.399 N 
HETATM   23  H1  UNL     1      28.392   1.806  53.675  1.00  0.00     0.156 HD
HETATM   24  H2  UNL     1      26.770   1.115  54.818  1.00  0.00     0.156 HD
ENDBRANCH  20  22
ENDBRANCH  15  16
ENDBRANCH   1  14
TORSDOF 3
ENDMDL
