MODEL 1
REMARK VINA RESULT:      -8.3      0.000      0.000
REMARK  9 active torsions:
REMARK  status: ('A' for Active; 'I' for Inactive)
REMARK    1  A    between atoms: C2_2  and  C3_3 
REMARK    2  A    between atoms: C7_9  and  N3_10 
REMARK    3  A    between atoms: N3_10  and  C8_11 
REMARK    4  A    between atoms: C14_18  and  C15_19 
REMARK    5  A    between atoms: C15_19  and  C16_20 
REMARK    6  A    between atoms: C16_20  and  N4_21 
REMARK       I    between atoms: N4_21  and  C17_22 
REMARK    7  A    between atoms: C17_22  and  C18_24 
REMARK    8  A    between atoms: C19_25  and  C20_26 
REMARK    9  A    between atoms: C20_26  and  N5_27 
ROOT
HETATM    1  C3  UNL     1      22.338   1.445  50.637  1.00  0.00     0.068 A 
HETATM    2  N1  UNL     1      21.317   0.640  50.934  1.00  0.00    -0.259 NA
HETATM    3  C4  UNL     1      21.269  -0.122  52.029  1.00  0.00     0.142 A 
HETATM    4  C5  UNL     1      22.279  -0.142  52.951  1.00  0.00     0.089 A 
HETATM    5  C6  UNL     1      22.131  -0.985  54.081  1.00  0.00     0.103 C 
HETATM    6  N2  UNL     1      22.000  -1.657  55.002  1.00  0.00    -0.191 NA
HETATM    7  C7  UNL     1      23.371   0.678  52.693  1.00  0.00     0.067 A 
HETATM    8  C14 UNL     1      23.343   1.425  51.557  1.00  0.00     0.022 A 
ENDROOT
BRANCH   7   9
HETATM    9  N3  UNL     1      24.378   0.603  53.687  1.00  0.00    -0.354 N 
HETATM   10  H5  UNL     1      24.015   0.932  54.610  1.00  0.00     0.166 HD
BRANCH   9  11
HETATM   11  C8  UNL     1      25.741   0.145  53.539  1.00  0.00     0.033 A 
HETATM   12  C9  UNL     1      25.947  -1.088  52.959  1.00  0.00     0.029 A 
HETATM   13  C10 UNL     1      27.258  -1.516  52.826  1.00  0.00     0.004 A 
HETATM   14  C11 UNL     1      28.285  -0.716  53.265  1.00  0.00     0.019 A 
HETATM   15  C12 UNL     1      28.024   0.518  53.842  1.00  0.00     0.013 A 
HETATM   16 BR1  UNL     1      29.415   1.671  54.470  1.00  0.00    -0.051 Br
HETATM   17  C13 UNL     1      26.727   0.986  53.995  1.00  0.00     0.048 A 
ENDBRANCH   9  11
ENDBRANCH   7   9
BRANCH   8  18
HETATM   18  C15 UNL     1      24.518   2.208  51.449  1.00  0.00     0.033 C 
BRANCH  18  19
HETATM   19  C16 UNL     1      25.290   3.229  51.246  1.00  0.00     0.093 C 
BRANCH  19  20
HETATM   20  N4  UNL     1      26.375   3.798  50.561  1.00  0.00    -0.326 N 
HETATM   21  C17 UNL     1      26.158   4.568  49.393  1.00  0.00     0.300 C 
HETATM   22  O1  UNL     1      25.018   4.788  48.903  1.00  0.00    -0.258 OA
HETATM   23  H12 UNL     1      27.259   3.572  51.031  1.00  0.00     0.169 HD
BRANCH  21  24
HETATM   24  C18 UNL     1      27.375   5.082  48.814  1.00  0.00    -0.004 C 
HETATM   25  C19 UNL     1      28.396   5.513  48.352  1.00  0.00    -0.077 C 
BRANCH  25  26
HETATM   26  C20 UNL     1      29.673   6.054  47.803  1.00  0.00     0.211 C 
BRANCH  26  27
HETATM   27  N5  UNL     1      29.971   7.203  48.603  1.00  0.00    -0.411 N 
HETATM   28  C21 UNL     1      29.083   8.308  48.481  1.00  0.00     0.143 C 
HETATM   29  C22 UNL     1      31.360   7.513  48.711  1.00  0.00     0.143 C 
ENDBRANCH  26  27
ENDBRANCH  25  26
ENDBRANCH  21  24
ENDBRANCH  19  20
ENDBRANCH  18  19
ENDBRANCH   8  18
BRANCH   1  30
HETATM   30  C2  UNL     1      22.266   2.205  49.433  1.00  0.00     0.022 C 
HETATM   31  C1  UNL     1      22.259   1.896  48.175  1.00  0.00     0.013 C 
ENDBRANCH   1  30
TORSDOF 9
ENDMDL
MODEL 2
REMARK VINA RESULT:      -8.2      2.486      4.748
REMARK  9 active torsions:
REMARK  status: ('A' for Active; 'I' for Inactive)
REMARK    1  A    between atoms: C2_2  and  C3_3 
REMARK    2  A    between atoms: C7_9  and  N3_10 
REMARK    3  A    between atoms: N3_10  and  C8_11 
REMARK    4  A    between atoms: C14_18  and  C15_19 
REMARK    5  A    between atoms: C15_19  and  C16_20 
REMARK    6  A    between atoms: C16_20  and  N4_21 
REMARK       I    between atoms: N4_21  and  C17_22 
REMARK    7  A    between atoms: C17_22  and  C18_24 
REMARK    8  A    between atoms: C19_25  and  C20_26 
REMARK    9  A    between atoms: C20_26  and  N5_27 
ROOT
HETATM    1  C3  UNL     1      26.630   0.207  54.334  1.00  0.00     0.068 A 
HETATM    2  N1  UNL     1      26.186  -0.530  55.353  1.00  0.00    -0.259 NA
HETATM    3  C4  UNL     1      24.928  -0.964  55.461  1.00  0.00     0.142 A 
HETATM    4  C5  UNL     1      23.976  -0.684  54.521  1.00  0.00     0.089 A 
HETATM    5  C6  UNL     1      22.668  -1.193  54.727  1.00  0.00     0.103 C 
HETATM    6  N2  UNL     1      21.616  -1.621  54.890  1.00  0.00    -0.191 NA
HETATM    7  C7  UNL     1      24.381   0.083  53.434  1.00  0.00     0.067 A 
HETATM    8  C14 UNL     1      25.679   0.484  53.398  1.00  0.00     0.022 A 
ENDROOT
BRANCH   7   9
HETATM    9  N3  UNL     1      23.342   0.336  52.506  1.00  0.00    -0.354 N 
HETATM   10  H5  UNL     1      23.259  -0.447  51.818  1.00  0.00     0.166 HD
BRANCH   9  11
HETATM   11  C8  UNL     1      22.467   1.484  52.442  1.00  0.00     0.033 A 
HETATM   12  C9  UNL     1      21.132   1.293  52.726  1.00  0.00     0.029 A 
HETATM   13  C10 UNL     1      20.303   2.400  52.658  1.00  0.00     0.004 A 
HETATM   14  C11 UNL     1      20.825   3.624  52.318  1.00  0.00     0.019 A 
HETATM   15  C12 UNL     1      22.178   3.764  52.040  1.00  0.00     0.013 A 
HETATM   16 BR1  UNL     1      22.958   5.444  51.562  1.00  0.00    -0.051 Br
HETATM   17  C13 UNL     1      23.044   2.682  52.096  1.00  0.00     0.048 A 
ENDBRANCH   9  11
ENDBRANCH   7   9
BRANCH   8  18
HETATM   18  C15 UNL     1      25.931   1.242  52.228  1.00  0.00     0.033 C 
BRANCH  18  19
HETATM   19  C16 UNL     1      26.546   1.992  51.368  1.00  0.00     0.093 C 
BRANCH  19  20
HETATM   20  N4  UNL     1      26.773   3.270  50.832  1.00  0.00    -0.326 N 
HETATM   21  C17 UNL     1      25.952   3.764  49.790  1.00  0.00     0.300 C 
HETATM   22  O1  UNL     1      24.995   3.116  49.287  1.00  0.00    -0.258 OA
HETATM   23  H12 UNL     1      27.565   3.723  51.302  1.00  0.00     0.169 HD
BRANCH  21  24
HETATM   24  C18 UNL     1      26.317   5.090  49.357  1.00  0.00    -0.004 C 
HETATM   25  C19 UNL     1      26.618   6.188  48.975  1.00  0.00    -0.077 C 
BRANCH  25  26
HETATM   26  C20 UNL     1      26.992   7.543  48.476  1.00  0.00     0.211 C 
BRANCH  26  27
HETATM   27  N5  UNL     1      26.885   8.406  49.613  1.00  0.00    -0.411 N 
HETATM   28  C21 UNL     1      25.575   8.845  49.955  1.00  0.00     0.143 C 
HETATM   29  C22 UNL     1      27.928   9.372  49.732  1.00  0.00     0.143 C 
ENDBRANCH  26  27
ENDBRANCH  25  26
ENDBRANCH  21  24
ENDBRANCH  19  20
ENDBRANCH  18  19
ENDBRANCH   8  18
BRANCH   1  30
HETATM   30  C2  UNL     1      27.998   0.609  54.341  1.00  0.00     0.022 C 
HETATM   31  C1  UNL     1      29.117  -0.009  54.128  1.00  0.00     0.013 C 
ENDBRANCH   1  30
TORSDOF 9
ENDMDL
MODEL 3
REMARK VINA RESULT:      -7.8      1.305      1.613
REMARK  9 active torsions:
REMARK  status: ('A' for Active; 'I' for Inactive)
REMARK    1  A    between atoms: C2_2  and  C3_3 
REMARK    2  A    between atoms: C7_9  and  N3_10 
REMARK    3  A    between atoms: N3_10  and  C8_11 
REMARK    4  A    between atoms: C14_18  and  C15_19 
REMARK    5  A    between atoms: C15_19  and  C16_20 
REMARK    6  A    between atoms: C16_20  and  N4_21 
REMARK       I    between atoms: N4_21  and  C17_22 
REMARK    7  A    between atoms: C17_22  and  C18_24 
REMARK    8  A    between atoms: C19_25  and  C20_26 
REMARK    9  A    between atoms: C20_26  and  N5_27 
ROOT
HETATM    1  C3  UNL     1      22.133   1.359  50.641  1.00  0.00     0.068 A 
HETATM    2  N1  UNL     1      21.219   0.466  51.023  1.00  0.00    -0.259 NA
HETATM    3  C4  UNL     1      21.303  -0.243  52.150  1.00  0.00     0.142 A 
HETATM    4  C5  UNL     1      22.349  -0.111  53.021  1.00  0.00     0.089 A 
HETATM    5  C6  UNL     1      22.343  -0.910  54.193  1.00  0.00     0.103 C 
HETATM    6  N2  UNL     1      22.326  -1.547  55.148  1.00  0.00    -0.191 NA
HETATM    7  C7  UNL     1      23.334   0.806  52.675  1.00  0.00     0.067 A 
HETATM    8  C14 UNL     1      23.174   1.490  51.510  1.00  0.00     0.022 A 
ENDROOT
BRANCH   7   9
HETATM    9  N3  UNL     1      24.386   0.886  53.620  1.00  0.00    -0.354 N 
HETATM   10  H5  UNL     1      24.069   1.374  54.488  1.00  0.00     0.166 HD
BRANCH   9  11
HETATM   11  C8  UNL     1      25.737   0.389  53.491  1.00  0.00     0.033 A 
HETATM   12  C9  UNL     1      25.910  -0.877  52.975  1.00  0.00     0.029 A 
HETATM   13  C10 UNL     1      27.210  -1.343  52.859  1.00  0.00     0.004 A 
HETATM   14  C11 UNL     1      28.258  -0.548  53.253  1.00  0.00     0.019 A 
HETATM   15  C12 UNL     1      28.029   0.721  53.767  1.00  0.00     0.013 A 
HETATM   16 BR1  UNL     1      29.451   1.870  54.331  1.00  0.00    -0.051 Br
HETATM   17  C13 UNL     1      26.745   1.227  53.900  1.00  0.00     0.048 A 
ENDBRANCH   9  11
ENDBRANCH   7   9
BRANCH   8  18
HETATM   18  C15 UNL     1      24.252   2.387  51.311  1.00  0.00     0.033 C 
BRANCH  18  19
HETATM   19  C16 UNL     1      25.065   3.207  50.722  1.00  0.00     0.093 C 
BRANCH  19  20
HETATM   20  N4  UNL     1      25.638   4.487  50.648  1.00  0.00    -0.326 N 
HETATM   21  C17 UNL     1      24.887   5.579  50.151  1.00  0.00     0.300 C 
HETATM   22  O1  UNL     1      23.695   5.483  49.752  1.00  0.00    -0.258 OA
HETATM   23  H12 UNL     1      26.604   4.470  50.995  1.00  0.00     0.169 HD
BRANCH  21  24
HETATM   24  C18 UNL     1      25.620   6.820  50.145  1.00  0.00    -0.004 C 
HETATM   25  C19 UNL     1      26.250   7.842  50.144  1.00  0.00    -0.077 C 
BRANCH  25  26
HETATM   26  C20 UNL     1      27.052   9.100  50.153  1.00  0.00     0.211 C 
BRANCH  26  27
HETATM   27  N5  UNL     1      27.647   9.177  48.853  1.00  0.00    -0.411 N 
HETATM   28  C21 UNL     1      26.759   9.395  47.762  1.00  0.00     0.143 C 
HETATM   29  C22 UNL     1      28.715   8.258  48.628  1.00  0.00     0.143 C 
ENDBRANCH  26  27
ENDBRANCH  25  26
ENDBRANCH  21  24
ENDBRANCH  19  20
ENDBRANCH  18  19
ENDBRANCH   8  18
BRANCH   1  30
HETATM   30  C2  UNL     1      21.926   2.048  49.410  1.00  0.00     0.022 C 
HETATM   31  C1  UNL     1      22.103   1.736  48.165  1.00  0.00     0.013 C 
ENDBRANCH   1  30
TORSDOF 9
ENDMDL
MODEL 4
REMARK VINA RESULT:      -7.8      2.907      5.069
REMARK  9 active torsions:
REMARK  status: ('A' for Active; 'I' for Inactive)
REMARK    1  A    between atoms: C2_2  and  C3_3 
REMARK    2  A    between atoms: C7_9  and  N3_10 
REMARK    3  A    between atoms: N3_10  and  C8_11 
REMARK    4  A    between atoms: C14_18  and  C15_19 
REMARK    5  A    between atoms: C15_19  and  C16_20 
REMARK    6  A    between atoms: C16_20  and  N4_21 
REMARK       I    between atoms: N4_21  and  C17_22 
REMARK    7  A    between atoms: C17_22  and  C18_24 
REMARK    8  A    between atoms: C19_25  and  C20_26 
REMARK    9  A    between atoms: C20_26  and  N5_27 
ROOT
HETATM    1  C3  UNL     1      27.039   0.236  53.449  1.00  0.00     0.068 A 
HETATM    2  N1  UNL     1      26.447  -0.563  54.338  1.00  0.00    -0.259 NA
HETATM    3  C4  UNL     1      25.131  -0.783  54.375  1.00  0.00     0.142 A 
HETATM    4  C5  UNL     1      24.267  -0.198  53.492  1.00  0.00     0.089 A 
HETATM    5  C6  UNL     1      22.886  -0.498  53.614  1.00  0.00     0.103 C 
HETATM    6  N2  UNL     1      21.772  -0.757  53.707  1.00  0.00    -0.191 NA
HETATM    7  C7  UNL     1      24.827   0.647  52.541  1.00  0.00     0.067 A 
HETATM    8  C14 UNL     1      26.176   0.817  52.569  1.00  0.00     0.022 A 
ENDROOT
BRANCH   7   9
HETATM    9  N3  UNL     1      23.873   1.219  51.665  1.00  0.00    -0.354 N 
HETATM   10  H5  UNL     1      23.455   0.490  51.044  1.00  0.00     0.166 HD
BRANCH   9  11
HETATM   11  C8  UNL     1      23.468   2.604  51.572  1.00  0.00     0.033 A 
HETATM   12  C9  UNL     1      23.535   3.372  52.714  1.00  0.00     0.029 A 
HETATM   13  C10 UNL     1      23.142   4.696  52.613  1.00  0.00     0.004 A 
HETATM   14  C11 UNL     1      22.708   5.189  51.407  1.00  0.00     0.019 A 
HETATM   15  C12 UNL     1      22.660   4.374  50.285  1.00  0.00     0.013 A 
HETATM   16 BR1  UNL     1      22.065   5.008  48.582  1.00  0.00    -0.051 Br
HETATM   17  C13 UNL     1      23.044   3.042  50.342  1.00  0.00     0.048 A 
ENDBRANCH   9  11
ENDBRANCH   7   9
BRANCH   8  18
HETATM   18  C15 UNL     1      26.586   1.694  51.535  1.00  0.00     0.033 C 
BRANCH  18  19
HETATM   19  C16 UNL     1      26.763   2.785  50.858  1.00  0.00     0.093 C 
BRANCH  19  20
HETATM   20  N4  UNL     1      26.261   4.019  50.413  1.00  0.00    -0.326 N 
HETATM   21  C17 UNL     1      26.830   4.656  49.285  1.00  0.00     0.300 C 
HETATM   22  O1  UNL     1      27.793   4.181  48.625  1.00  0.00    -0.258 OA
HETATM   23  H12 UNL     1      25.480   4.326  51.004  1.00  0.00     0.169 HD
BRANCH  21  24
HETATM   24  C18 UNL     1      26.197   5.910  48.958  1.00  0.00    -0.004 C 
HETATM   25  C19 UNL     1      25.652   6.946  48.692  1.00  0.00    -0.077 C 
BRANCH  25  26
HETATM   26  C20 UNL     1      24.950   8.221  48.364  1.00  0.00     0.211 C 
BRANCH  26  27
HETATM   27  N5  UNL     1      25.900   9.256  48.639  1.00  0.00    -0.411 N 
HETATM   28  C21 UNL     1      26.351   9.360  49.985  1.00  0.00     0.143 C 
HETATM   29  C22 UNL     1      25.663  10.484  47.953  1.00  0.00     0.143 C 
ENDBRANCH  26  27
ENDBRANCH  25  26
ENDBRANCH  21  24
ENDBRANCH  19  20
ENDBRANCH  18  19
ENDBRANCH   8  18
BRANCH   1  30
HETATM   30  C2  UNL     1      28.454   0.387  53.520  1.00  0.00     0.022 C 
HETATM   31  C1  UNL     1      29.418  -0.365  53.950  1.00  0.00     0.013 C 
ENDBRANCH   1  30
TORSDOF 9
ENDMDL
MODEL 5
REMARK VINA RESULT:      -7.7      2.655      4.859
REMARK  9 active torsions:
REMARK  status: ('A' for Active; 'I' for Inactive)
REMARK    1  A    between atoms: C2_2  and  C3_3 
REMARK    2  A    between atoms: C7_9  and  N3_10 
REMARK    3  A    between atoms: N3_10  and  C8_11 
REMARK    4  A    between atoms: C14_18  and  C15_19 
REMARK    5  A    between atoms: C15_19  and  C16_20 
REMARK    6  A    between atoms: C16_20  and  N4_21 
REMARK       I    between atoms: N4_21  and  C17_22 
REMARK    7  A    between atoms: C17_22  and  C18_24 
REMARK    8  A    between atoms: C19_25  and  C20_26 
REMARK    9  A    between atoms: C20_26  and  N5_27 
ROOT
HETATM    1  C3  UNL     1      26.821   0.461  54.080  1.00  0.00     0.068 A 
HETATM    2  N1  UNL     1      26.503  -0.154  55.220  1.00  0.00    -0.259 NA
HETATM    3  C4  UNL     1      25.314  -0.715  55.452  1.00  0.00     0.142 A 
HETATM    4  C5  UNL     1      24.308  -0.706  54.526  1.00  0.00     0.089 A 
HETATM    5  C6  UNL     1      23.082  -1.332  54.869  1.00  0.00     0.103 C 
HETATM    6  N2  UNL     1      22.098  -1.854  55.145  1.00  0.00    -0.191 NA
HETATM    7  C7  UNL     1      24.582  -0.078  53.317  1.00  0.00     0.067 A 
HETATM    8  C14 UNL     1      25.817   0.468  53.158  1.00  0.00     0.022 A 
ENDROOT
BRANCH   7   9
HETATM    9  N3  UNL     1      23.495  -0.104  52.410  1.00  0.00    -0.354 N 
HETATM   10  H5  UNL     1      23.595  -0.892  51.731  1.00  0.00     0.166 HD
BRANCH   9  11
HETATM   11  C8  UNL     1      22.360   0.789  52.357  1.00  0.00     0.033 A 
HETATM   12  C9  UNL     1      22.591   2.135  52.539  1.00  0.00     0.029 A 
HETATM   13  C10 UNL     1      21.494   2.981  52.489  1.00  0.00     0.004 A 
HETATM   14  C11 UNL     1      20.242   2.462  52.264  1.00  0.00     0.019 A 
HETATM   15  C12 UNL     1      20.063   1.098  52.086  1.00  0.00     0.013 A 
HETATM   16 BR1  UNL     1      18.343   0.323  51.770  1.00  0.00    -0.051 Br
HETATM   17  C13 UNL     1      21.133   0.216  52.129  1.00  0.00     0.048 A 
ENDBRANCH   9  11
ENDBRANCH   7   9
BRANCH   8  18
HETATM   18  C15 UNL     1      25.938   1.056  51.876  1.00  0.00     0.033 C 
BRANCH  18  19
HETATM   19  C16 UNL     1      26.014   1.959  50.949  1.00  0.00     0.093 C 
BRANCH  19  20
HETATM   20  N4  UNL     1      26.761   2.953  50.296  1.00  0.00    -0.326 N 
HETATM   21  C17 UNL     1      26.110   3.946  49.525  1.00  0.00     0.300 C 
HETATM   22  O1  UNL     1      24.860   4.005  49.374  1.00  0.00    -0.258 OA
HETATM   23  H12 UNL     1      27.764   2.829  50.478  1.00  0.00     0.169 HD
BRANCH  21  24
HETATM   24  C18 UNL     1      27.020   4.890  48.926  1.00  0.00    -0.004 C 
HETATM   25  C19 UNL     1      27.773   5.668  48.408  1.00  0.00    -0.077 C 
BRANCH  25  26
HETATM   26  C20 UNL     1      28.706   6.622  47.741  1.00  0.00     0.211 C 
BRANCH  26  27
HETATM   27  N5  UNL     1      29.902   6.593  48.527  1.00  0.00    -0.411 N 
HETATM   28  C21 UNL     1      30.477   7.853  48.854  1.00  0.00     0.143 C 
HETATM   29  C22 UNL     1      30.813   5.547  48.193  1.00  0.00     0.143 C 
ENDBRANCH  26  27
ENDBRANCH  25  26
ENDBRANCH  21  24
ENDBRANCH  19  20
ENDBRANCH  18  19
ENDBRANCH   8  18
BRANCH   1  30
HETATM   30  C2  UNL     1      28.126   1.022  53.962  1.00  0.00     0.022 C 
HETATM   31  C1  UNL     1      29.300   0.526  53.729  1.00  0.00     0.013 C 
ENDBRANCH   1  30
TORSDOF 9
ENDMDL
MODEL 6
REMARK VINA RESULT:      -7.7      2.271      4.590
REMARK  9 active torsions:
REMARK  status: ('A' for Active; 'I' for Inactive)
REMARK    1  A    between atoms: C2_2  and  C3_3 
REMARK    2  A    between atoms: C7_9  and  N3_10 
REMARK    3  A    between atoms: N3_10  and  C8_11 
REMARK    4  A    between atoms: C14_18  and  C15_19 
REMARK    5  A    between atoms: C15_19  and  C16_20 
REMARK    6  A    between atoms: C16_20  and  N4_21 
REMARK       I    between atoms: N4_21  and  C17_22 
REMARK    7  A    between atoms: C17_22  and  C18_24 
REMARK    8  A    between atoms: C19_25  and  C20_26 
REMARK    9  A    between atoms: C20_26  and  N5_27 
ROOT
HETATM    1  C3  UNL     1      25.749   0.087  53.010  1.00  0.00     0.068 A 
HETATM    2  N1  UNL     1      25.148  -0.781  53.826  1.00  0.00    -0.259 NA
HETATM    3  C4  UNL     1      23.838  -0.772  54.081  1.00  0.00     0.142 A 
HETATM    4  C5  UNL     1      22.990   0.142  53.519  1.00  0.00     0.089 A 
HETATM    5  C6  UNL     1      21.614   0.066  53.854  1.00  0.00     0.103 C 
HETATM    6  N2  UNL     1      20.499  -0.010  54.115  1.00  0.00    -0.191 NA
HETATM    7  C7  UNL     1      23.562   1.073  52.660  1.00  0.00     0.067 A 
HETATM    8  C14 UNL     1      24.903   0.996  52.451  1.00  0.00     0.022 A 
ENDROOT
BRANCH   7   9
HETATM    9  N3  UNL     1      22.625   1.989  52.121  1.00  0.00    -0.354 N 
HETATM   10  H5  UNL     1      22.277   2.643  52.858  1.00  0.00     0.166 HD
BRANCH   9  11
HETATM   11  C8  UNL     1      22.159   2.084  50.756  1.00  0.00     0.033 A 
HETATM   12  C9  UNL     1      21.682   0.938  50.158  1.00  0.00     0.029 A 
HETATM   13  C10 UNL     1      21.240   1.041  48.849  1.00  0.00     0.004 A 
HETATM   14  C11 UNL     1      21.291   2.253  48.205  1.00  0.00     0.019 A 
HETATM   15  C12 UNL     1      21.780   3.379  48.853  1.00  0.00     0.013 A 
HETATM   16 BR1  UNL     1      21.873   5.090  48.004  1.00  0.00    -0.051 Br
HETATM   17  C13 UNL     1      22.232   3.320  50.163  1.00  0.00     0.048 A 
ENDBRANCH   9  11
ENDBRANCH   7   9
BRANCH   8  18
HETATM   18  C15 UNL     1      25.322   2.003  51.548  1.00  0.00     0.033 C 
BRANCH  18  19
HETATM   19  C16 UNL     1      25.830   3.110  51.104  1.00  0.00     0.093 C 
BRANCH  19  20
HETATM   20  N4  UNL     1      26.874   3.773  50.438  1.00  0.00    -0.326 N 
HETATM   21  C17 UNL     1      26.603   4.573  49.303  1.00  0.00     0.300 C 
HETATM   22  O1  UNL     1      25.449   4.740  48.825  1.00  0.00    -0.258 OA
HETATM   23  H12 UNL     1      27.772   3.583  50.897  1.00  0.00     0.169 HD
BRANCH  21  24
HETATM   24  C18 UNL     1      27.782   5.184  48.741  1.00  0.00    -0.004 C 
HETATM   25  C19 UNL     1      28.765   5.677  48.259  1.00  0.00    -0.077 C 
BRANCH  25  26
HETATM   26  C20 UNL     1      29.989   6.267  47.645  1.00  0.00     0.211 C 
BRANCH  26  27
HETATM   27  N5  UNL     1      30.792   6.703  48.747  1.00  0.00    -0.411 N 
HETATM   28  C21 UNL     1      31.071   8.097  48.816  1.00  0.00     0.143 C 
HETATM   29  C22 UNL     1      31.860   5.824  49.095  1.00  0.00     0.143 C 
ENDBRANCH  26  27
ENDBRANCH  25  26
ENDBRANCH  21  24
ENDBRANCH  19  20
ENDBRANCH  18  19
ENDBRANCH   8  18
BRANCH   1  30
HETATM   30  C2  UNL     1      27.158  -0.030  52.826  1.00  0.00     0.022 C 
HETATM   31  C1  UNL     1      28.040  -0.913  53.176  1.00  0.00     0.013 C 
ENDBRANCH   1  30
TORSDOF 9
ENDMDL
MODEL 7
REMARK VINA RESULT:      -7.2      2.440      4.721
REMARK  9 active torsions:
REMARK  status: ('A' for Active; 'I' for Inactive)
REMARK    1  A    between atoms: C2_2  and  C3_3 
REMARK    2  A    between atoms: C7_9  and  N3_10 
REMARK    3  A    between atoms: N3_10  and  C8_11 
REMARK    4  A    between atoms: C14_18  and  C15_19 
REMARK    5  A    between atoms: C15_19  and  C16_20 
REMARK    6  A    between atoms: C16_20  and  N4_21 
REMARK       I    between atoms: N4_21  and  C17_22 
REMARK    7  A    between atoms: C17_22  and  C18_24 
REMARK    8  A    between atoms: C19_25  and  C20_26 
REMARK    9  A    between atoms: C20_26  and  N5_27 
ROOT
HETATM    1  C3  UNL     1      23.904  -0.140  53.519  1.00  0.00     0.068 A 
HETATM    2  N1  UNL     1      22.954  -0.969  53.955  1.00  0.00    -0.259 NA
HETATM    3  C4  UNL     1      21.662  -0.845  53.641  1.00  0.00     0.142 A 
HETATM    4  C5  UNL     1      21.198   0.157  52.835  1.00  0.00     0.089 A 
HETATM    5  C6  UNL     1      19.808   0.200  52.560  1.00  0.00     0.103 C 
HETATM    6  N2  UNL     1      18.684   0.221  52.328  1.00  0.00    -0.191 NA
HETATM    7  C7  UNL     1      22.145   1.052  52.350  1.00  0.00     0.067 A 
HETATM    8  C14 UNL     1      23.440   0.857  52.715  1.00  0.00     0.022 A 
ENDROOT
BRANCH   7   9
HETATM    9  N3  UNL     1      21.592   2.064  51.527  1.00  0.00    -0.354 N 
HETATM   10  H5  UNL     1      20.946   2.677  52.074  1.00  0.00     0.166 HD
BRANCH   9  11
HETATM   11  C8  UNL     1      21.831   2.295  50.120  1.00  0.00     0.033 A 
HETATM   12  C9  UNL     1      21.718   1.222  49.263  1.00  0.00     0.029 A 
HETATM   13  C10 UNL     1      21.953   1.456  47.918  1.00  0.00     0.004 A 
HETATM   14  C11 UNL     1      22.281   2.719  47.492  1.00  0.00     0.019 A 
HETATM   15  C12 UNL     1      22.382   3.767  48.396  1.00  0.00     0.013 A 
HETATM   16 BR1  UNL     1      22.836   5.546  47.858  1.00  0.00    -0.051 Br
HETATM   17  C13 UNL     1      22.155   3.577  49.752  1.00  0.00     0.048 A 
ENDBRANCH   9  11
ENDBRANCH   7   9
BRANCH   8  18
HETATM   18  C15 UNL     1      24.273   1.843  52.132  1.00  0.00     0.033 C 
BRANCH  18  19
HETATM   19  C16 UNL     1      24.953   2.937  51.988  1.00  0.00     0.093 C 
BRANCH  19  20
HETATM   20  N4  UNL     1      25.338   4.016  51.176  1.00  0.00    -0.326 N 
HETATM   21  C17 UNL     1      26.121   3.795  50.018  1.00  0.00     0.300 C 
HETATM   22  O1  UNL     1      26.516   2.656  49.648  1.00  0.00    -0.258 OA
HETATM   23  H12 UNL     1      24.971   4.898  51.550  1.00  0.00     0.169 HD
BRANCH  21  24
HETATM   24  C18 UNL     1      26.426   5.005  49.296  1.00  0.00    -0.004 C 
HETATM   25  C19 UNL     1      26.697   6.016  48.708  1.00  0.00    -0.077 C 
BRANCH  25  26
HETATM   26  C20 UNL     1      27.051   7.278  47.996  1.00  0.00     0.211 C 
BRANCH  26  27
HETATM   27  N5  UNL     1      28.223   7.768  48.658  1.00  0.00    -0.411 N 
HETATM   28  C21 UNL     1      28.203   9.136  49.052  1.00  0.00     0.143 C 
HETATM   29  C22 UNL     1      29.456   7.277  48.134  1.00  0.00     0.143 C 
ENDBRANCH  26  27
ENDBRANCH  25  26
ENDBRANCH  21  24
ENDBRANCH  19  20
ENDBRANCH  18  19
ENDBRANCH   8  18
BRANCH   1  30
HETATM   30  C2  UNL     1      25.247  -0.382  53.931  1.00  0.00     0.022 C 
HETATM   31  C1  UNL     1      25.836  -0.438  55.084  1.00  0.00     0.013 C 
ENDBRANCH   1  30
TORSDOF 9
ENDMDL
MODEL 8
REMARK VINA RESULT:      -7.2      4.112      8.548
REMARK  9 active torsions:
REMARK  status: ('A' for Active; 'I' for Inactive)
REMARK    1  A    between atoms: C2_2  and  C3_3 
REMARK    2  A    between atoms: C7_9  and  N3_10 
REMARK    3  A    between atoms: N3_10  and  C8_11 
REMARK    4  A    between atoms: C14_18  and  C15_19 
REMARK    5  A    between atoms: C15_19  and  C16_20 
REMARK    6  A    between atoms: C16_20  and  N4_21 
REMARK       I    between atoms: N4_21  and  C17_22 
REMARK    7  A    between atoms: C17_22  and  C18_24 
REMARK    8  A    between atoms: C19_25  and  C20_26 
REMARK    9  A    between atoms: C20_26  and  N5_27 
ROOT
HETATM    1  C3  UNL     1      23.608  -0.212  53.344  1.00  0.00     0.068 A 
HETATM    2  N1  UNL     1      24.822  -0.753  53.454  1.00  0.00    -0.259 NA
HETATM    3  C4  UNL     1      25.956  -0.069  53.285  1.00  0.00     0.142 A 
HETATM    4  C5  UNL     1      25.967   1.264  52.981  1.00  0.00     0.089 A 
HETATM    5  C6  UNL     1      27.224   1.900  52.823  1.00  0.00     0.103 C 
HETATM    6  N2  UNL     1      28.245   2.414  52.713  1.00  0.00    -0.191 NA
HETATM    7  C7  UNL     1      24.728   1.883  52.853  1.00  0.00     0.067 A 
HETATM    8  C14 UNL     1      23.621   1.117  53.041  1.00  0.00     0.022 A 
ENDROOT
BRANCH   7   9
HETATM    9  N3  UNL     1      24.818   3.259  52.533  1.00  0.00    -0.354 N 
HETATM   10  H5  UNL     1      25.251   3.796  53.318  1.00  0.00     0.166 HD
BRANCH   9  11
HETATM   11  C8  UNL     1      24.398   3.919  51.317  1.00  0.00     0.033 A 
HETATM   12  C9  UNL     1      24.646   3.283  50.121  1.00  0.00     0.029 A 
HETATM   13  C10 UNL     1      24.243   3.927  48.963  1.00  0.00     0.004 A 
HETATM   14  C11 UNL     1      23.622   5.149  49.043  1.00  0.00     0.019 A 
HETATM   15  C12 UNL     1      23.395   5.749  50.273  1.00  0.00     0.013 A 
HETATM   16 BR1  UNL     1      22.536   7.449  50.443  1.00  0.00    -0.051 Br
HETATM   17  C13 UNL     1      23.783   5.139  51.458  1.00  0.00     0.048 A 
ENDBRANCH   9  11
ENDBRANCH   7   9
BRANCH   8  18
HETATM   18  C15 UNL     1      22.448   1.895  52.887  1.00  0.00     0.033 C 
BRANCH  18  19
HETATM   19  C16 UNL     1      21.402   2.431  52.341  1.00  0.00     0.093 C 
BRANCH  19  20
HETATM   20  N4  UNL     1      20.005   2.474  52.205  1.00  0.00    -0.326 N 
HETATM   21  C17 UNL     1      19.385   3.551  51.527  1.00  0.00     0.300 C 
HETATM   22  O1  UNL     1      20.020   4.514  51.018  1.00  0.00    -0.258 OA
HETATM   23  H12 UNL     1      19.574   1.653  52.644  1.00  0.00     0.169 HD
BRANCH  21  24
HETATM   24  C18 UNL     1      17.949   3.441  51.474  1.00  0.00    -0.004 C 
HETATM   25  C19 UNL     1      16.754   3.330  51.437  1.00  0.00    -0.077 C 
BRANCH  25  26
HETATM   26  C20 UNL     1      15.272   3.165  51.397  1.00  0.00     0.211 C 
BRANCH  26  27
HETATM   27  N5  UNL     1      14.870   3.034  52.765  1.00  0.00    -0.411 N 
HETATM   28  C21 UNL     1      13.881   2.049  53.043  1.00  0.00     0.143 C 
HETATM   29  C22 UNL     1      14.758   4.265  53.477  1.00  0.00     0.143 C 
ENDBRANCH  26  27
ENDBRANCH  25  26
ENDBRANCH  21  24
ENDBRANCH  19  20
ENDBRANCH  18  19
ENDBRANCH   8  18
BRANCH   1  30
HETATM   30  C2  UNL     1      22.476  -1.055  53.545  1.00  0.00     0.022 C 
HETATM   31  C1  UNL     1      21.757  -1.362  54.578  1.00  0.00     0.013 C 
ENDBRANCH   1  30
TORSDOF 9
ENDMDL
MODEL 9
REMARK VINA RESULT:      -7.0      3.471      5.295
REMARK  9 active torsions:
REMARK  status: ('A' for Active; 'I' for Inactive)
REMARK    1  A    between atoms: C2_2  and  C3_3 
REMARK    2  A    between atoms: C7_9  and  N3_10 
REMARK    3  A    between atoms: N3_10  and  C8_11 
REMARK    4  A    between atoms: C14_18  and  C15_19 
REMARK    5  A    between atoms: C15_19  and  C16_20 
REMARK    6  A    between atoms: C16_20  and  N4_21 
REMARK       I    between atoms: N4_21  and  C17_22 
REMARK    7  A    between atoms: C17_22  and  C18_24 
REMARK    8  A    between atoms: C19_25  and  C20_26 
REMARK    9  A    between atoms: C20_26  and  N5_27 
ROOT
HETATM    1  C3  UNL     1      25.275   1.220  52.709  1.00  0.00     0.068 A 
HETATM    2  N1  UNL     1      25.497   0.016  53.238  1.00  0.00    -0.259 NA
HETATM    3  C4  UNL     1      24.538  -0.752  53.759  1.00  0.00     0.142 A 
HETATM    4  C5  UNL     1      23.229  -0.362  53.796  1.00  0.00     0.089 A 
HETATM    5  C6  UNL     1      22.285  -1.252  54.371  1.00  0.00     0.103 C 
HETATM    6  N2  UNL     1      21.523  -1.982  54.822  1.00  0.00    -0.191 NA
HETATM    7  C7  UNL     1      22.937   0.887  53.260  1.00  0.00     0.067 A 
HETATM    8  C14 UNL     1      23.969   1.607  52.746  1.00  0.00     0.022 A 
ENDROOT
BRANCH   7   9
HETATM    9  N3  UNL     1      21.564   1.225  53.337  1.00  0.00    -0.354 N 
HETATM   10  H5  UNL     1      21.366   1.785  54.197  1.00  0.00     0.166 HD
BRANCH   9  11
HETATM   11  C8  UNL     1      20.511   0.890  52.404  1.00  0.00     0.033 A 
HETATM   12  C9  UNL     1      20.637   1.332  51.105  1.00  0.00     0.029 A 
HETATM   13  C10 UNL     1      19.620   1.007  50.222  1.00  0.00     0.004 A 
HETATM   14  C11 UNL     1      18.546   0.271  50.659  1.00  0.00     0.019 A 
HETATM   15  C12 UNL     1      18.467  -0.151  51.979  1.00  0.00     0.013 A 
HETATM   16 BR1  UNL     1      16.994  -1.177  52.641  1.00  0.00    -0.051 Br
HETATM   17  C13 UNL     1      19.462   0.153  52.897  1.00  0.00     0.048 A 
ENDBRANCH   9  11
ENDBRANCH   7   9
BRANCH   8  18
HETATM   18  C15 UNL     1      23.505   2.843  52.233  1.00  0.00     0.033 C 
BRANCH  18  19
HETATM   19  C16 UNL     1      23.410   4.117  52.019  1.00  0.00     0.093 C 
BRANCH  19  20
HETATM   20  N4  UNL     1      24.038   5.336  51.716  1.00  0.00    -0.326 N 
HETATM   21  C17 UNL     1      24.683   5.516  50.469  1.00  0.00     0.300 C 
HETATM   22  O1  UNL     1      24.740   4.627  49.576  1.00  0.00    -0.258 OA
HETATM   23  H12 UNL     1      23.939   5.997  52.494  1.00  0.00     0.169 HD
BRANCH  21  24
HETATM   24  C18 UNL     1      25.274   6.822  50.315  1.00  0.00    -0.004 C 
HETATM   25  C19 UNL     1      25.768   7.906  50.166  1.00  0.00    -0.077 C 
BRANCH  25  26
HETATM   26  C20 UNL     1      26.390   9.246  49.956  1.00  0.00     0.211 C 
BRANCH  26  27
HETATM   27  N5  UNL     1      26.092   9.591  48.599  1.00  0.00    -0.411 N 
HETATM   28  C21 UNL     1      26.688   8.780  47.593  1.00  0.00     0.143 C 
HETATM   29  C22 UNL     1      26.039  10.993  48.336  1.00  0.00     0.143 C 
ENDBRANCH  26  27
ENDBRANCH  25  26
ENDBRANCH  21  24
ENDBRANCH  19  20
ENDBRANCH  18  19
ENDBRANCH   8  18
BRANCH   1  30
HETATM   30  C2  UNL     1      26.390   1.940  52.187  1.00  0.00     0.022 C 
HETATM   31  C1  UNL     1      26.795   2.224  50.990  1.00  0.00     0.013 C 
ENDBRANCH   1  30
TORSDOF 9
ENDMDL
