MODEL 1
REMARK VINA RESULT:      -7.5      0.000      0.000
REMARK  8 active torsions:
REMARK  status: ('A' for Active; 'I' for Inactive)
REMARK    1  A    between atoms: O1_2  and  C2_3 
REMARK    2  A    between atoms: C5_6  and  O2_7 
REMARK    3  A    between atoms: O2_7  and  C6_8 
REMARK    4  A    between atoms: C6_8  and  N1_9 
REMARK    5  A    between atoms: C7_10  and  C8_11 
REMARK    6  A    between atoms: C11_14  and  N2_15 
REMARK    7  A    between atoms: N2_15  and  C12_16 
REMARK    8  A    between atoms: C18_22  and  N3_23 
ROOT
HETATM    1  C8  UNL     1      23.306   2.809  52.119  1.00  0.00     0.009 A 
HETATM    2  C9  UNL     1      23.527   3.977  52.690  1.00  0.00     0.017 A 
HETATM    3  C10 UNL     1      23.842   5.034  51.749  1.00  0.00     0.033 A 
HETATM    4  C11 UNL     1      23.821   4.524  50.530  1.00  0.00     0.063 A 
HETATM    5  C18 UNL     1      23.483   3.103  50.709  1.00  0.00     0.101 A 
ENDROOT
BRANCH   1   6
HETATM    6  C7  UNL     1      22.968   1.538  52.734  1.00  0.00     0.013 A 
HETATM    7  C5  UNL     1      23.884   0.606  53.153  1.00  0.00     0.082 A 
HETATM    8  C4  UNL     1      23.569  -0.601  53.738  1.00  0.00     0.040 A 
HETATM    9  C3  UNL     1      22.242  -0.929  53.932  1.00  0.00     0.039 A 
HETATM   10  C2  UNL     1      21.279  -0.028  53.530  1.00  0.00     0.069 A 
HETATM   11  C19 UNL     1      21.662   1.160  52.952  1.00  0.00     0.052 A 
BRANCH   7  12
HETATM   12  O2  UNL     1      25.221   0.845  53.001  1.00  0.00    -0.332 OA
BRANCH  12  13
HETATM   13  C6  UNL     1      26.145   1.182  53.986  1.00  0.00     0.290 C 
BRANCH  13  14
HETATM   14  N1  UNL     1      26.666   2.509  53.935  1.00  0.00    -0.410 N 
HETATM   15  H8  UNL     1      26.925   2.934  54.838  1.00  0.00     0.151 HD
HETATM   16  H9  UNL     1      26.147   3.116  53.287  1.00  0.00     0.151 HD
ENDBRANCH  13  14
ENDBRANCH  12  13
ENDBRANCH   7  12
BRANCH  10  17
HETATM   17  O1  UNL     1      19.973  -0.384  53.736  1.00  0.00    -0.356 OA
HETATM   18  C1  UNL     1      19.045  -0.311  52.678  1.00  0.00     0.210 C 
ENDBRANCH  10  17
ENDBRANCH   1   6
BRANCH   5  19
HETATM   19  N3  UNL     1      23.381   2.308  49.703  1.00  0.00    -0.212 NA
HETATM   20  I1  UNL     1      21.565   1.687  48.909  1.00  0.00     0.084 I 
ENDBRANCH   5  19
BRANCH   4  21
HETATM   21  N2  UNL     1      24.077   5.220  49.290  1.00  0.00    -0.354 N 
HETATM   22  H12 UNL     1      23.252   5.465  48.702  1.00  0.00     0.166 HD
BRANCH  21  23
HETATM   23  C12 UNL     1      25.391   5.542  48.916  1.00  0.00     0.032 A 
HETATM   24  C13 UNL     1      26.397   4.610  49.062  1.00  0.00     0.029 A 
HETATM   25  C14 UNL     1      27.715   4.900  48.698  1.00  0.00     0.002 A 
HETATM   26  C15 UNL     1      27.956   6.174  48.186  1.00  0.00     0.000 A 
HETATM   27  C16 UNL     1      26.947   7.121  48.035  1.00  0.00     0.002 A 
HETATM   28  C17 UNL     1      25.650   6.797  48.407  1.00  0.00     0.029 A 
ENDBRANCH  21  23
ENDBRANCH   4  21
TORSDOF 8
ENDMDL
MODEL 2
REMARK VINA RESULT:      -7.4      3.480      6.324
REMARK  8 active torsions:
REMARK  status: ('A' for Active; 'I' for Inactive)
REMARK    1  A    between atoms: O1_2  and  C2_3 
REMARK    2  A    between atoms: C5_6  and  O2_7 
REMARK    3  A    between atoms: O2_7  and  C6_8 
REMARK    4  A    between atoms: C6_8  and  N1_9 
REMARK    5  A    between atoms: C7_10  and  C8_11 
REMARK    6  A    between atoms: C11_14  and  N2_15 
REMARK    7  A    between atoms: N2_15  and  C12_16 
REMARK    8  A    between atoms: C18_22  and  N3_23 
ROOT
HETATM    1  C8  UNL     1      22.710   1.387  51.462  1.00  0.00     0.009 A 
HETATM    2  C9  UNL     1      22.026   0.295  51.744  1.00  0.00     0.017 A 
HETATM    3  C10 UNL     1      22.597  -0.487  52.823  1.00  0.00     0.033 A 
HETATM    4  C11 UNL     1      23.688   0.127  53.248  1.00  0.00     0.063 A 
HETATM    5  C18 UNL     1      23.807   1.331  52.411  1.00  0.00     0.101 A 
ENDROOT
BRANCH   1   6
HETATM    6  C7  UNL     1      22.446   2.399  50.456  1.00  0.00     0.013 A 
HETATM    7  C5  UNL     1      22.126   3.706  50.729  1.00  0.00     0.082 A 
HETATM    8  C4  UNL     1      21.875   4.671  49.779  1.00  0.00     0.040 A 
HETATM    9  C3  UNL     1      21.940   4.332  48.441  1.00  0.00     0.039 A 
HETATM   10  C2  UNL     1      22.258   3.031  48.110  1.00  0.00     0.069 A 
HETATM   11  C19 UNL     1      22.497   2.116  49.109  1.00  0.00     0.052 A 
BRANCH   7  12
HETATM   12  O2  UNL     1      22.039   4.132  52.025  1.00  0.00    -0.332 OA
BRANCH  12  13
HETATM   13  C6  UNL     1      22.627   5.257  52.594  1.00  0.00     0.290 C 
BRANCH  13  14
HETATM   14  N1  UNL     1      23.862   5.047  53.277  1.00  0.00    -0.410 N 
HETATM   15  H8  UNL     1      23.802   4.623  54.214  1.00  0.00     0.151 HD
HETATM   16  H9  UNL     1      24.507   5.844  53.187  1.00  0.00     0.151 HD
ENDBRANCH  13  14
ENDBRANCH  12  13
ENDBRANCH   7  12
BRANCH  10  17
HETATM   17  O1  UNL     1      22.313   2.728  46.777  1.00  0.00    -0.356 OA
HETATM   18  C1  UNL     1      21.894   3.672  45.819  1.00  0.00     0.210 C 
ENDBRANCH  10  17
ENDBRANCH   1   6
BRANCH   5  19
HETATM   19  N3  UNL     1      24.777   2.161  52.568  1.00  0.00    -0.212 NA
HETATM   20  I1  UNL     1      26.332   2.381  51.211  1.00  0.00     0.084 I 
ENDBRANCH   5  19
BRANCH   4  21
HETATM   21  N2  UNL     1      24.570  -0.301  54.309  1.00  0.00    -0.354 N 
HETATM   22  H12 UNL     1      24.138  -0.507  55.235  1.00  0.00     0.166 HD
BRANCH  21  23
HETATM   23  C12 UNL     1      25.949  -0.425  54.077  1.00  0.00     0.032 A 
HETATM   24  C13 UNL     1      26.847   0.241  54.884  1.00  0.00     0.029 A 
HETATM   25  C14 UNL     1      28.226   0.138  54.680  1.00  0.00     0.002 A 
HETATM   26  C15 UNL     1      28.641  -0.669  53.621  1.00  0.00     0.000 A 
HETATM   27  C16 UNL     1      27.742  -1.345  52.801  1.00  0.00     0.002 A 
HETATM   28  C17 UNL     1      26.380  -1.218  53.035  1.00  0.00     0.029 A 
ENDBRANCH  21  23
ENDBRANCH   4  21
TORSDOF 8
ENDMDL
MODEL 3
REMARK VINA RESULT:      -7.2      2.060      2.807
REMARK  8 active torsions:
REMARK  status: ('A' for Active; 'I' for Inactive)
REMARK    1  A    between atoms: O1_2  and  C2_3 
REMARK    2  A    between atoms: C5_6  and  O2_7 
REMARK    3  A    between atoms: O2_7  and  C6_8 
REMARK    4  A    between atoms: C6_8  and  N1_9 
REMARK    5  A    between atoms: C7_10  and  C8_11 
REMARK    6  A    between atoms: C11_14  and  N2_15 
REMARK    7  A    between atoms: N2_15  and  C12_16 
REMARK    8  A    between atoms: C18_22  and  N3_23 
ROOT
HETATM    1  C8  UNL     1      25.679   2.384  51.542  1.00  0.00     0.009 A 
HETATM    2  C9  UNL     1      26.566   2.353  50.565  1.00  0.00     0.017 A 
HETATM    3  C10 UNL     1      26.493   3.496  49.676  1.00  0.00     0.033 A 
HETATM    4  C11 UNL     1      25.523   4.289  50.099  1.00  0.00     0.063 A 
HETATM    5  C18 UNL     1      24.970   3.625  51.290  1.00  0.00     0.101 A 
ENDROOT
BRANCH   1   6
HETATM    6  C7  UNL     1      25.457   1.424  52.608  1.00  0.00     0.013 A 
HETATM    7  C5  UNL     1      26.280   1.260  53.694  1.00  0.00     0.082 A 
HETATM    8  C4  UNL     1      26.073   0.351  54.709  1.00  0.00     0.040 A 
HETATM    9  C3  UNL     1      24.965  -0.471  54.661  1.00  0.00     0.039 A 
HETATM   10  C2  UNL     1      24.103  -0.347  53.591  1.00  0.00     0.069 A 
HETATM   11  C19 UNL     1      24.369   0.581  52.611  1.00  0.00     0.052 A 
BRANCH   7  12
HETATM   12  O2  UNL     1      27.401   2.030  53.825  1.00  0.00    -0.332 OA
BRANCH  12  13
HETATM   13  C6  UNL     1      28.728   1.637  53.676  1.00  0.00     0.290 C 
BRANCH  13  14
HETATM   14  N1  UNL     1      29.657   2.180  54.611  1.00  0.00    -0.410 N 
HETATM   15  H8  UNL     1      30.382   2.806  54.228  1.00  0.00     0.151 HD
HETATM   16  H9  UNL     1      29.983   1.487  55.298  1.00  0.00     0.151 HD
ENDBRANCH  13  14
ENDBRANCH  12  13
ENDBRANCH   7  12
BRANCH  10  17
HETATM   17  O1  UNL     1      23.015  -1.177  53.574  1.00  0.00    -0.356 OA
HETATM   18  C1  UNL     1      22.208  -1.310  54.721  1.00  0.00     0.210 C 
ENDBRANCH  10  17
ENDBRANCH   1   6
BRANCH   5  19
HETATM   19  N3  UNL     1      23.996   4.142  51.952  1.00  0.00    -0.212 NA
HETATM   20  I1  UNL     1      21.997   3.745  51.555  1.00  0.00     0.084 I 
ENDBRANCH   5  19
BRANCH   4  21
HETATM   21  N2  UNL     1      25.103   5.540  49.511  1.00  0.00    -0.354 N 
HETATM   22  H12 UNL     1      24.111   5.610  49.198  1.00  0.00     0.166 HD
BRANCH  21  23
HETATM   23  C12 UNL     1      26.012   6.601  49.378  1.00  0.00     0.032 A 
HETATM   24  C13 UNL     1      25.962   7.665  50.253  1.00  0.00     0.029 A 
HETATM   25  C14 UNL     1      26.853   8.737  50.147  1.00  0.00     0.002 A 
HETATM   26  C15 UNL     1      27.788   8.671  49.115  1.00  0.00     0.000 A 
HETATM   27  C16 UNL     1      27.845   7.601  48.227  1.00  0.00     0.002 A 
HETATM   28  C17 UNL     1      26.944   6.555  48.363  1.00  0.00     0.029 A 
ENDBRANCH  21  23
ENDBRANCH   4  21
TORSDOF 8
ENDMDL
MODEL 4
REMARK VINA RESULT:      -7.0      3.659      6.357
REMARK  8 active torsions:
REMARK  status: ('A' for Active; 'I' for Inactive)
REMARK    1  A    between atoms: O1_2  and  C2_3 
REMARK    2  A    between atoms: C5_6  and  O2_7 
REMARK    3  A    between atoms: O2_7  and  C6_8 
REMARK    4  A    between atoms: C6_8  and  N1_9 
REMARK    5  A    between atoms: C7_10  and  C8_11 
REMARK    6  A    between atoms: C11_14  and  N2_15 
REMARK    7  A    between atoms: N2_15  and  C12_16 
REMARK    8  A    between atoms: C18_22  and  N3_23 
ROOT
HETATM    1  C8  UNL     1      24.787   3.529  49.971  1.00  0.00     0.009 A 
HETATM    2  C9  UNL     1      26.051   3.286  49.684  1.00  0.00     0.017 A 
HETATM    3  C10 UNL     1      26.782   2.655  50.766  1.00  0.00     0.033 A 
HETATM    4  C11 UNL     1      25.955   2.489  51.783  1.00  0.00     0.063 A 
HETATM    5  C18 UNL     1      24.666   3.031  51.329  1.00  0.00     0.101 A 
ENDROOT
BRANCH   1   6
HETATM    6  C7  UNL     1      23.762   4.142  49.145  1.00  0.00     0.013 A 
HETATM    7  C5  UNL     1      23.563   5.495  49.025  1.00  0.00     0.082 A 
HETATM    8  C4  UNL     1      22.592   6.081  48.243  1.00  0.00     0.040 A 
HETATM    9  C3  UNL     1      21.739   5.278  47.512  1.00  0.00     0.039 A 
HETATM   10  C2  UNL     1      21.896   3.910  47.596  1.00  0.00     0.069 A 
HETATM   11  C19 UNL     1      22.886   3.389  48.396  1.00  0.00     0.052 A 
BRANCH   7  12
HETATM   12  O2  UNL     1      24.359   6.367  49.712  1.00  0.00    -0.332 OA
BRANCH  12  13
HETATM   13  C6  UNL     1      24.009   7.172  50.792  1.00  0.00     0.290 C 
BRANCH  13  14
HETATM   14  N1  UNL     1      24.393   6.700  52.082  1.00  0.00    -0.410 N 
HETATM   15  H8  UNL     1      23.757   6.024  52.532  1.00  0.00     0.151 HD
HETATM   16  H9  UNL     1      24.753   7.448  52.690  1.00  0.00     0.151 HD
ENDBRANCH  13  14
ENDBRANCH  12  13
ENDBRANCH   7  12
BRANCH  10  17
HETATM   17  O1  UNL     1      21.034   3.142  46.860  1.00  0.00    -0.356 OA
HETATM   18  C1  UNL     1      19.745   3.621  46.555  1.00  0.00     0.210 C 
ENDBRANCH  10  17
ENDBRANCH   1   6
BRANCH   5  19
HETATM   19  N3  UNL     1      23.630   3.023  52.091  1.00  0.00    -0.212 NA
HETATM   20  I1  UNL     1      22.420   1.359  52.368  1.00  0.00     0.084 I 
ENDBRANCH   5  19
BRANCH   4  21
HETATM   21  N2  UNL     1      26.261   1.899  53.066  1.00  0.00    -0.354 N 
HETATM   22  H12 UNL     1      25.742   2.262  53.894  1.00  0.00     0.166 HD
BRANCH  21  23
HETATM   23  C12 UNL     1      27.223   0.881  53.167  1.00  0.00     0.032 A 
HETATM   24  C13 UNL     1      28.507   1.183  53.567  1.00  0.00     0.029 A 
HETATM   25  C14 UNL     1      29.487   0.192  53.677  1.00  0.00     0.002 A 
HETATM   26  C15 UNL     1      29.097  -1.109  53.362  1.00  0.00     0.000 A 
HETATM   27  C16 UNL     1      27.803  -1.423  52.956  1.00  0.00     0.002 A 
HETATM   28  C17 UNL     1      26.857  -0.412  52.858  1.00  0.00     0.029 A 
ENDBRANCH  21  23
ENDBRANCH   4  21
TORSDOF 8
ENDMDL
MODEL 5
REMARK VINA RESULT:      -6.9      1.579      3.021
REMARK  8 active torsions:
REMARK  status: ('A' for Active; 'I' for Inactive)
REMARK    1  A    between atoms: O1_2  and  C2_3 
REMARK    2  A    between atoms: C5_6  and  O2_7 
REMARK    3  A    between atoms: O2_7  and  C6_8 
REMARK    4  A    between atoms: C6_8  and  N1_9 
REMARK    5  A    between atoms: C7_10  and  C8_11 
REMARK    6  A    between atoms: C11_14  and  N2_15 
REMARK    7  A    between atoms: N2_15  and  C12_16 
REMARK    8  A    between atoms: C18_22  and  N3_23 
ROOT
HETATM    1  C8  UNL     1      23.533   3.108  51.848  1.00  0.00     0.009 A 
HETATM    2  C9  UNL     1      23.607   4.259  52.489  1.00  0.00     0.017 A 
HETATM    3  C10 UNL     1      23.892   5.388  51.625  1.00  0.00     0.033 A 
HETATM    4  C11 UNL     1      24.004   4.944  50.385  1.00  0.00     0.063 A 
HETATM    5  C18 UNL     1      23.783   3.493  50.470  1.00  0.00     0.101 A 
ENDROOT
BRANCH   1   6
HETATM    6  C7  UNL     1      23.268   1.782  52.375  1.00  0.00     0.013 A 
HETATM    7  C5  UNL     1      22.052   1.148  52.318  1.00  0.00     0.082 A 
HETATM    8  C4  UNL     1      21.796  -0.111  52.816  1.00  0.00     0.040 A 
HETATM    9  C3  UNL     1      22.817  -0.815  53.424  1.00  0.00     0.039 A 
HETATM   10  C2  UNL     1      24.060  -0.225  53.507  1.00  0.00     0.069 A 
HETATM   11  C19 UNL     1      24.249   1.036  52.990  1.00  0.00     0.052 A 
BRANCH   7  12
HETATM   12  O2  UNL     1      20.983   1.769  51.735  1.00  0.00    -0.332 OA
BRANCH  12  13
HETATM   13  C6  UNL     1      19.991   2.521  52.357  1.00  0.00     0.290 C 
BRANCH  13  14
HETATM   14  N1  UNL     1      19.606   3.726  51.699  1.00  0.00    -0.410 N 
HETATM   15  H8  UNL     1      18.719   4.153  52.006  1.00  0.00     0.151 HD
HETATM   16  H9  UNL     1      19.758   3.691  50.682  1.00  0.00     0.151 HD
ENDBRANCH  13  14
ENDBRANCH  12  13
ENDBRANCH   7  12
BRANCH  10  17
HETATM   17  O1  UNL     1      25.049  -0.949  54.116  1.00  0.00    -0.356 OA
HETATM   18  C1  UNL     1      26.343  -0.988  53.558  1.00  0.00     0.210 C 
ENDBRANCH  10  17
ENDBRANCH   1   6
BRANCH   5  19
HETATM   19  N3  UNL     1      23.824   2.747  49.423  1.00  0.00    -0.212 NA
HETATM   20  I1  UNL     1      22.209   2.463  48.151  1.00  0.00     0.084 I 
ENDBRANCH   5  19
BRANCH   4  21
HETATM   21  N2  UNL     1      24.284   5.726  49.203  1.00  0.00    -0.354 N 
HETATM   22  H12 UNL     1      23.467   6.105  48.677  1.00  0.00     0.166 HD
BRANCH  21  23
HETATM   23  C12 UNL     1      25.609   5.951  48.799  1.00  0.00     0.032 A 
HETATM   24  C13 UNL     1      26.560   4.969  48.977  1.00  0.00     0.029 A 
HETATM   25  C14 UNL     1      27.888   5.162  48.585  1.00  0.00     0.002 A 
HETATM   26  C15 UNL     1      28.196   6.394  48.010  1.00  0.00     0.000 A 
HETATM   27  C16 UNL     1      27.243   7.391  47.827  1.00  0.00     0.002 A 
HETATM   28  C17 UNL     1      25.934   7.163  48.228  1.00  0.00     0.029 A 
ENDBRANCH  21  23
ENDBRANCH   4  21
TORSDOF 8
ENDMDL
MODEL 6
REMARK VINA RESULT:      -6.9      3.589      6.034
REMARK  8 active torsions:
REMARK  status: ('A' for Active; 'I' for Inactive)
REMARK    1  A    between atoms: O1_2  and  C2_3 
REMARK    2  A    between atoms: C5_6  and  O2_7 
REMARK    3  A    between atoms: O2_7  and  C6_8 
REMARK    4  A    between atoms: C6_8  and  N1_9 
REMARK    5  A    between atoms: C7_10  and  C8_11 
REMARK    6  A    between atoms: C11_14  and  N2_15 
REMARK    7  A    between atoms: N2_15  and  C12_16 
REMARK    8  A    between atoms: C18_22  and  N3_23 
ROOT
HETATM    1  C8  UNL     1      22.974   0.519  52.341  1.00  0.00     0.009 A 
HETATM    2  C9  UNL     1      23.160  -0.551  53.089  1.00  0.00     0.017 A 
HETATM    3  C10 UNL     1      24.375  -0.505  53.880  1.00  0.00     0.033 A 
HETATM    4  C11 UNL     1      24.990   0.638  53.628  1.00  0.00     0.063 A 
HETATM    5  C18 UNL     1      24.137   1.331  52.651  1.00  0.00     0.101 A 
ENDROOT
BRANCH   1   6
HETATM    6  C7  UNL     1      21.884   0.822  51.431  1.00  0.00     0.013 A 
HETATM    7  C5  UNL     1      20.555   0.791  51.768  1.00  0.00     0.082 A 
HETATM    8  C4  UNL     1      19.517   1.078  50.908  1.00  0.00     0.040 A 
HETATM    9  C3  UNL     1      19.802   1.428  49.603  1.00  0.00     0.039 A 
HETATM   10  C2  UNL     1      21.123   1.476  49.211  1.00  0.00     0.069 A 
HETATM   11  C19 UNL     1      22.111   1.177  50.120  1.00  0.00     0.052 A 
BRANCH   7  12
HETATM   12  O2  UNL     1      20.178   0.455  53.038  1.00  0.00    -0.332 OA
BRANCH  12  13
HETATM   13  C6  UNL     1      19.379  -0.612  53.436  1.00  0.00     0.290 C 
BRANCH  13  14
HETATM   14  N1  UNL     1      20.021  -1.634  54.197  1.00  0.00    -0.410 N 
HETATM   15  H8  UNL     1      20.972  -1.898  53.899  1.00  0.00     0.151 HD
HETATM   16  H9  UNL     1      19.391  -2.414  54.428  1.00  0.00     0.151 HD
ENDBRANCH  13  14
ENDBRANCH  12  13
ENDBRANCH   7  12
BRANCH  10  17
HETATM   17  O1  UNL     1      21.371   1.826  47.911  1.00  0.00    -0.356 OA
HETATM   18  C1  UNL     1      22.221   2.911  47.620  1.00  0.00     0.210 C 
ENDBRANCH  10  17
ENDBRANCH   1   6
BRANCH   5  19
HETATM   19  N3  UNL     1      24.453   2.490  52.190  1.00  0.00    -0.212 NA
HETATM   20  I1  UNL     1      25.923   2.794  50.755  1.00  0.00     0.084 I 
ENDBRANCH   5  19
BRANCH   4  21
HETATM   21  N2  UNL     1      26.235   1.100  54.197  1.00  0.00    -0.354 N 
HETATM   22  H12 UNL     1      26.196   1.946  54.804  1.00  0.00     0.166 HD
BRANCH  21  23
HETATM   23  C12 UNL     1      27.432   0.420  53.927  1.00  0.00     0.032 A 
HETATM   24  C13 UNL     1      27.400  -0.830  53.347  1.00  0.00     0.029 A 
HETATM   25  C14 UNL     1      28.575  -1.533  53.066  1.00  0.00     0.002 A 
HETATM   26  C15 UNL     1      29.773  -0.905  53.403  1.00  0.00     0.000 A 
HETATM   27  C16 UNL     1      29.816   0.356  53.989  1.00  0.00     0.002 A 
HETATM   28  C17 UNL     1      28.629   1.024  54.254  1.00  0.00     0.029 A 
ENDBRANCH  21  23
ENDBRANCH   4  21
TORSDOF 8
ENDMDL
MODEL 7
REMARK VINA RESULT:      -6.9      3.264      7.726
REMARK  8 active torsions:
REMARK  status: ('A' for Active; 'I' for Inactive)
REMARK    1  A    between atoms: O1_2  and  C2_3 
REMARK    2  A    between atoms: C5_6  and  O2_7 
REMARK    3  A    between atoms: O2_7  and  C6_8 
REMARK    4  A    between atoms: C6_8  and  N1_9 
REMARK    5  A    between atoms: C7_10  and  C8_11 
REMARK    6  A    between atoms: C11_14  and  N2_15 
REMARK    7  A    between atoms: N2_15  and  C12_16 
REMARK    8  A    between atoms: C18_22  and  N3_23 
ROOT
HETATM    1  C8  UNL     1      22.538   0.298  53.067  1.00  0.00     0.009 A 
HETATM    2  C9  UNL     1      21.946   0.372  54.243  1.00  0.00     0.017 A 
HETATM    3  C10 UNL     1      20.498   0.321  54.170  1.00  0.00     0.033 A 
HETATM    4  C11 UNL     1      20.151   0.211  52.899  1.00  0.00     0.063 A 
HETATM    5  C18 UNL     1      21.417   0.192  52.150  1.00  0.00     0.101 A 
ENDROOT
BRANCH   1   6
HETATM    6  C7  UNL     1      23.955   0.318  52.753  1.00  0.00     0.013 A 
HETATM    7  C5  UNL     1      24.583   1.311  52.044  1.00  0.00     0.082 A 
HETATM    8  C4  UNL     1      25.928   1.334  51.744  1.00  0.00     0.040 A 
HETATM    9  C3  UNL     1      26.732   0.296  52.173  1.00  0.00     0.039 A 
HETATM   10  C2  UNL     1      26.152  -0.729  52.890  1.00  0.00     0.069 A 
HETATM   11  C19 UNL     1      24.802  -0.691  53.155  1.00  0.00     0.052 A 
BRANCH   7  12
HETATM   12  O2  UNL     1      23.867   2.378  51.580  1.00  0.00    -0.332 OA
BRANCH  12  13
HETATM   13  C6  UNL     1      23.630   3.590  52.221  1.00  0.00     0.290 C 
BRANCH  13  14
HETATM   14  N1  UNL     1      24.383   3.834  53.408  1.00  0.00    -0.410 N 
HETATM   15  H8  UNL     1      23.841   3.979  54.273  1.00  0.00     0.151 HD
HETATM   16  H9  UNL     1      25.166   4.485  53.256  1.00  0.00     0.151 HD
ENDBRANCH  13  14
ENDBRANCH  12  13
ENDBRANCH   7  12
BRANCH  10  17
HETATM   17  O1  UNL     1      26.976  -1.742  53.299  1.00  0.00    -0.356 OA
HETATM   18  C1  UNL     1      28.375  -1.590  53.223  1.00  0.00     0.210 C 
ENDBRANCH  10  17
ENDBRANCH   1   6
BRANCH   5  19
HETATM   19  N3  UNL     1      21.436   0.092  50.868  1.00  0.00    -0.212 NA
HETATM   20  I1  UNL     1      20.868   1.625  49.588  1.00  0.00     0.084 I 
ENDBRANCH   5  19
BRANCH   4  21
HETATM   21  N2  UNL     1      18.811   0.128  52.367  1.00  0.00    -0.354 N 
HETATM   22  H12 UNL     1      18.479   0.926  51.783  1.00  0.00     0.166 HD
BRANCH  21  23
HETATM   23  C12 UNL     1      18.008  -0.990  52.639  1.00  0.00     0.032 A 
HETATM   24  C13 UNL     1      18.491  -2.009  53.432  1.00  0.00     0.029 A 
HETATM   25  C14 UNL     1      17.717  -3.136  53.722  1.00  0.00     0.002 A 
HETATM   26  C15 UNL     1      16.437  -3.173  53.169  1.00  0.00     0.000 A 
HETATM   27  C16 UNL     1      15.941  -2.149  52.367  1.00  0.00     0.002 A 
HETATM   28  C17 UNL     1      16.739  -1.046  52.101  1.00  0.00     0.029 A 
ENDBRANCH  21  23
ENDBRANCH   4  21
TORSDOF 8
ENDMDL
MODEL 8
REMARK VINA RESULT:      -6.6      3.438      6.290
REMARK  8 active torsions:
REMARK  status: ('A' for Active; 'I' for Inactive)
REMARK    1  A    between atoms: O1_2  and  C2_3 
REMARK    2  A    between atoms: C5_6  and  O2_7 
REMARK    3  A    between atoms: O2_7  and  C6_8 
REMARK    4  A    between atoms: C6_8  and  N1_9 
REMARK    5  A    between atoms: C7_10  and  C8_11 
REMARK    6  A    between atoms: C11_14  and  N2_15 
REMARK    7  A    between atoms: N2_15  and  C12_16 
REMARK    8  A    between atoms: C18_22  and  N3_23 
ROOT
HETATM    1  C8  UNL     1      23.538   4.729  51.559  1.00  0.00     0.009 A 
HETATM    2  C9  UNL     1      23.648   4.434  52.840  1.00  0.00     0.017 A 
HETATM    3  C10 UNL     1      24.220   3.125  53.088  1.00  0.00     0.033 A 
HETATM    4  C11 UNL     1      24.488   2.561  51.923  1.00  0.00     0.063 A 
HETATM    5  C18 UNL     1      24.071   3.543  50.911  1.00  0.00     0.101 A 
ENDROOT
BRANCH   1   6
HETATM    6  C7  UNL     1      23.017   5.933  50.937  1.00  0.00     0.013 A 
HETATM    7  C5  UNL     1      23.778   7.017  50.578  1.00  0.00     0.082 A 
HETATM    8  C4  UNL     1      23.288   8.162  49.987  1.00  0.00     0.040 A 
HETATM    9  C3  UNL     1      21.936   8.258  49.724  1.00  0.00     0.039 A 
HETATM   10  C2  UNL     1      21.125   7.196  50.065  1.00  0.00     0.069 A 
HETATM   11  C19 UNL     1      21.678   6.082  50.653  1.00  0.00     0.052 A 
BRANCH   7  12
HETATM   12  O2  UNL     1      25.126   7.011  50.800  1.00  0.00    -0.332 OA
BRANCH  12  13
HETATM   13  C6  UNL     1      26.121   7.602  50.026  1.00  0.00     0.290 C 
BRANCH  13  14
HETATM   14  N1  UNL     1      26.940   8.568  50.681  1.00  0.00    -0.410 N 
HETATM   15  H8  UNL     1      27.897   8.681  50.315  1.00  0.00     0.151 HD
HETATM   16  H9  UNL     1      26.853   8.536  51.706  1.00  0.00     0.151 HD
ENDBRANCH  13  14
ENDBRANCH  12  13
ENDBRANCH   7  12
BRANCH  10  17
HETATM   17  O1  UNL     1      19.790   7.324  49.792  1.00  0.00    -0.356 OA
HETATM   18  C1  UNL     1      19.121   6.329  49.051  1.00  0.00     0.210 C 
ENDBRANCH  10  17
ENDBRANCH   1   6
BRANCH   5  19
HETATM   19  N3  UNL     1      24.197   3.304  49.654  1.00  0.00    -0.212 NA
HETATM   20  I1  UNL     1      22.602   2.840  48.407  1.00  0.00     0.084 I 
ENDBRANCH   5  19
BRANCH   4  21
HETATM   21  N2  UNL     1      25.066   1.256  51.700  1.00  0.00    -0.354 N 
HETATM   22  H12 UNL     1      24.538   0.599  51.086  1.00  0.00     0.166 HD
BRANCH  21  23
HETATM   23  C12 UNL     1      26.288   0.911  52.297  1.00  0.00     0.032 A 
HETATM   24  C13 UNL     1      27.182   1.896  52.657  1.00  0.00     0.029 A 
HETATM   25  C14 UNL     1      28.408   1.586  53.254  1.00  0.00     0.002 A 
HETATM   26  C15 UNL     1      28.674   0.233  53.463  1.00  0.00     0.000 A 
HETATM   27  C16 UNL     1      27.778  -0.769  53.103  1.00  0.00     0.002 A 
HETATM   28  C17 UNL     1      26.571  -0.422  52.513  1.00  0.00     0.029 A 
ENDBRANCH  21  23
ENDBRANCH   4  21
TORSDOF 8
ENDMDL
MODEL 9
REMARK VINA RESULT:      -6.6      2.346      3.852
REMARK  8 active torsions:
REMARK  status: ('A' for Active; 'I' for Inactive)
REMARK    1  A    between atoms: O1_2  and  C2_3 
REMARK    2  A    between atoms: C5_6  and  O2_7 
REMARK    3  A    between atoms: O2_7  and  C6_8 
REMARK    4  A    between atoms: C6_8  and  N1_9 
REMARK    5  A    between atoms: C7_10  and  C8_11 
REMARK    6  A    between atoms: C11_14  and  N2_15 
REMARK    7  A    between atoms: N2_15  and  C12_16 
REMARK    8  A    between atoms: C18_22  and  N3_23 
ROOT
HETATM    1  C8  UNL     1      23.480   3.071  52.209  1.00  0.00     0.009 A 
HETATM    2  C9  UNL     1      22.572   3.867  52.739  1.00  0.00     0.017 A 
HETATM    3  C10 UNL     1      22.101   4.897  51.832  1.00  0.00     0.033 A 
HETATM    4  C11 UNL     1      22.732   4.754  50.679  1.00  0.00     0.063 A 
HETATM    5  C18 UNL     1      23.626   3.601  50.865  1.00  0.00     0.101 A 
ENDROOT
BRANCH   1   6
HETATM    6  C7  UNL     1      24.170   1.943  52.808  1.00  0.00     0.013 A 
HETATM    7  C5  UNL     1      23.718   0.648  52.781  1.00  0.00     0.082 A 
HETATM    8  C4  UNL     1      24.369  -0.426  53.347  1.00  0.00     0.040 A 
HETATM    9  C3  UNL     1      25.570  -0.219  53.998  1.00  0.00     0.039 A 
HETATM   10  C2  UNL     1      26.071   1.064  54.054  1.00  0.00     0.069 A 
HETATM   11  C19 UNL     1      25.370   2.092  53.468  1.00  0.00     0.052 A 
BRANCH   7  12
HETATM   12  O2  UNL     1      22.538   0.347  52.160  1.00  0.00    -0.332 OA
BRANCH  12  13
HETATM   13  C6  UNL     1      21.354  -0.090  52.744  1.00  0.00     0.290 C 
BRANCH  13  14
HETATM   14  N1  UNL     1      20.941   0.595  53.925  1.00  0.00    -0.410 N 
HETATM   15  H8  UNL     1      20.625   1.569  53.804  1.00  0.00     0.151 HD
HETATM   16  H9  UNL     1      21.566   0.424  54.724  1.00  0.00     0.151 HD
ENDBRANCH  13  14
ENDBRANCH  12  13
ENDBRANCH   7  12
BRANCH  10  17
HETATM   17  O1  UNL     1      27.262   1.236  54.706  1.00  0.00    -0.356 OA
HETATM   18  C1  UNL     1      28.201   0.186  54.752  1.00  0.00     0.210 C 
ENDBRANCH  10  17
ENDBRANCH   1   6
BRANCH   5  19
HETATM   19  N3  UNL     1      24.393   3.189  49.918  1.00  0.00    -0.212 NA
HETATM   20  I1  UNL     1      26.368   3.790  49.696  1.00  0.00     0.084 I 
ENDBRANCH   5  19
BRANCH   4  21
HETATM   21  N2  UNL     1      22.572   5.564  49.494  1.00  0.00    -0.354 N 
HETATM   22  H12 UNL     1      21.748   5.362  48.887  1.00  0.00     0.166 HD
BRANCH  21  23
HETATM   23  C12 UNL     1      23.500   6.573  49.194  1.00  0.00     0.032 A 
HETATM   24  C13 UNL     1      23.863   7.485  50.161  1.00  0.00     0.029 A 
HETATM   25  C14 UNL     1      24.785   8.502  49.895  1.00  0.00     0.002 A 
HETATM   26  C15 UNL     1      25.312   8.543  48.604  1.00  0.00     0.000 A 
HETATM   27  C16 UNL     1      24.950   7.627  47.621  1.00  0.00     0.002 A 
HETATM   28  C17 UNL     1      24.032   6.631  47.923  1.00  0.00     0.029 A 
ENDBRANCH  21  23
ENDBRANCH   4  21
TORSDOF 8
ENDMDL
