MODEL 1
REMARK VINA RESULT:      -9.1      0.000      0.000
REMARK  4 active torsions:
REMARK  status: ('A' for Active; 'I' for Inactive)
REMARK    1  A    between atoms: C5_6  and  C6_7 
REMARK    2  A    between atoms: C6_7  and  C7_8 
REMARK    3  A    between atoms: N3_15  and  C12_16 
REMARK    4  A    between atoms: C12_16  and  C13_17 
ROOT
HETATM    1  C7  UNL     1      24.337   3.482  49.380  1.00  0.00     0.050 C 
HETATM    2  N1  UNL     1      23.573   4.290  48.732  1.00  0.00    -0.246 NA
HETATM    3  C8  UNL     1      22.216   3.980  48.501  1.00  0.00     0.228 C 
HETATM    4  N2  UNL     1      21.557   2.885  48.853  1.00  0.00    -0.269 NA
HETATM    5  C9  UNL     1      22.302   1.864  49.538  1.00  0.00     0.170 A 
HETATM    6  C10 UNL     1      21.616   0.909  50.375  1.00  0.00     0.022 A 
HETATM    7  C11 UNL     1      22.017   0.510  51.568  1.00  0.00     0.089 A 
HETATM    8  N3  UNL     1      23.196   1.039  52.112  1.00  0.00    -0.362 N 
HETATM    9  C19 UNL     1      23.880   1.998  51.316  1.00  0.00     0.102 A 
HETATM   10  C20 UNL     1      23.531   2.457  50.100  1.00  0.00     0.011 A 
ENDROOT
BRANCH   1  11
HETATM   11  C6  UNL     1      25.771   3.431  49.798  1.00  0.00     0.098 C 
BRANCH  11  12
HETATM   12  C5  UNL     1      26.377   4.752  49.386  1.00  0.00    -0.051 A 
HETATM   13  C4  UNL     1      27.511   4.876  48.613  1.00  0.00     0.007 A 
HETATM   14  C3  UNL     1      28.000   6.120  48.280  1.00  0.00     0.002 A 
HETATM   15  C2  UNL     1      27.335   7.263  48.733  1.00  0.00     0.024 A 
HETATM   16  C1  UNL     1      26.210   7.191  49.502  1.00  0.00     0.034 A 
HETATM   17 CL1  UNL     1      25.342   8.593  50.094  1.00  0.00    -0.084 Cl
HETATM   18  C21 UNL     1      25.756   5.927  49.811  1.00  0.00     0.031 A 
ENDBRANCH  11  12
ENDBRANCH   1  11
BRANCH   8  19
HETATM   19  C12 UNL     1      23.657   0.618  53.395  1.00  0.00     0.166 C 
BRANCH  19  20
HETATM   20  C13 UNL     1      25.118   0.387  53.483  1.00  0.00    -0.040 A 
HETATM   21  C14 UNL     1      25.576  -0.804  52.937  1.00  0.00     0.010 A 
HETATM   22  C15 UNL     1      26.903  -1.166  52.939  1.00  0.00     0.019 A 
HETATM   23  C16 UNL     1      27.828  -0.296  53.516  1.00  0.00     0.011 A 
HETATM   24 BR1  UNL     1      29.696  -0.747  53.549  1.00  0.00    -0.051 Br
HETATM   25  C17 UNL     1      27.369   0.889  54.058  1.00  0.00     0.019 A 
HETATM   26  C18 UNL     1      26.036   1.242  54.050  1.00  0.00     0.010 A 
ENDBRANCH  19  20
ENDBRANCH   8  19
TORSDOF 4
ENDMDL
MODEL 2
REMARK VINA RESULT:      -8.9      4.504      6.873
REMARK  4 active torsions:
REMARK  status: ('A' for Active; 'I' for Inactive)
REMARK    1  A    between atoms: C5_6  and  C6_7 
REMARK    2  A    between atoms: C6_7  and  C7_8 
REMARK    3  A    between atoms: N3_15  and  C12_16 
REMARK    4  A    between atoms: C12_16  and  C13_17 
ROOT
HETATM    1  C7  UNL     1      24.344  -0.017  53.579  1.00  0.00     0.050 C 
HETATM    2  N1  UNL     1      24.656  -0.869  54.493  1.00  0.00    -0.246 NA
HETATM    3  C8  UNL     1      23.676  -1.395  55.361  1.00  0.00     0.228 C 
HETATM    4  N2  UNL     1      22.384  -1.106  55.404  1.00  0.00    -0.269 NA
HETATM    5  C9  UNL     1      21.901  -0.123  54.474  1.00  0.00     0.170 A 
HETATM    6  C10 UNL     1      20.506  -0.103  54.101  1.00  0.00     0.022 A 
HETATM    7  C11 UNL     1      20.043   0.058  52.876  1.00  0.00     0.089 A 
HETATM    8  N3  UNL     1      20.945   0.219  51.813  1.00  0.00    -0.362 N 
HETATM    9  C19 UNL     1      22.325   0.183  52.151  1.00  0.00     0.102 A 
HETATM   10  C20 UNL     1      22.871   0.016  53.370  1.00  0.00     0.011 A 
ENDROOT
BRANCH   1  11
HETATM   11  C6  UNL     1      25.057   0.761  52.520  1.00  0.00     0.098 C 
BRANCH  11  12
HETATM   12  C5  UNL     1      26.502   0.838  52.955  1.00  0.00    -0.051 A 
HETATM   13  C4  UNL     1      27.133   2.002  53.337  1.00  0.00     0.007 A 
HETATM   14  C3  UNL     1      28.457   1.987  53.721  1.00  0.00     0.002 A 
HETATM   15  C2  UNL     1      29.158   0.779  53.721  1.00  0.00     0.024 A 
HETATM   16  C1  UNL     1      28.576  -0.398  53.349  1.00  0.00     0.034 A 
HETATM   17 CL1  UNL     1      29.414  -1.937  53.332  1.00  0.00    -0.084 Cl
HETATM   18  C21 UNL     1      27.252  -0.338  52.973  1.00  0.00     0.031 A 
ENDBRANCH  11  12
ENDBRANCH   1  11
BRANCH   8  19
HETATM   19  C12 UNL     1      20.471   0.405  50.481  1.00  0.00     0.166 C 
BRANCH  19  20
HETATM   20  C13 UNL     1      21.089   1.541  49.757  1.00  0.00    -0.040 A 
HETATM   21  C14 UNL     1      20.914   2.792  50.333  1.00  0.00     0.010 A 
HETATM   22  C15 UNL     1      21.425   3.945  49.784  1.00  0.00     0.019 A 
HETATM   23  C16 UNL     1      22.151   3.851  48.596  1.00  0.00     0.011 A 
HETATM   24 BR1  UNL     1      22.890   5.427  47.782  1.00  0.00    -0.051 Br
HETATM   25  C17 UNL     1      22.324   2.604  48.026  1.00  0.00     0.019 A 
HETATM   26  C18 UNL     1      21.807   1.454  48.586  1.00  0.00     0.010 A 
ENDBRANCH  19  20
ENDBRANCH   8  19
TORSDOF 4
ENDMDL
MODEL 3
REMARK VINA RESULT:      -8.7      1.418      1.890
REMARK  4 active torsions:
REMARK  status: ('A' for Active; 'I' for Inactive)
REMARK    1  A    between atoms: C5_6  and  C6_7 
REMARK    2  A    between atoms: C6_7  and  C7_8 
REMARK    3  A    between atoms: N3_15  and  C12_16 
REMARK    4  A    between atoms: C12_16  and  C13_17 
ROOT
HETATM    1  C7  UNL     1      23.602   5.335  49.039  1.00  0.00     0.050 C 
HETATM    2  N1  UNL     1      22.929   5.880  48.086  1.00  0.00    -0.246 NA
HETATM    3  C8  UNL     1      22.090   5.109  47.255  1.00  0.00     0.228 C 
HETATM    4  N2  UNL     1      21.890   3.799  47.286  1.00  0.00    -0.269 NA
HETATM    5  C9  UNL     1      22.623   3.048  48.267  1.00  0.00     0.170 A 
HETATM    6  C10 UNL     1      22.132   1.765  48.710  1.00  0.00     0.022 A 
HETATM    7  C11 UNL     1      22.104   1.347  49.962  1.00  0.00     0.089 A 
HETATM    8  N3  UNL     1      22.572   2.189  50.982  1.00  0.00    -0.362 N 
HETATM    9  C19 UNL     1      23.043   3.466  50.573  1.00  0.00     0.102 A 
HETATM   10  C20 UNL     1      23.096   3.964  49.324  1.00  0.00     0.011 A 
ENDROOT
BRANCH   1  11
HETATM   11  C6  UNL     1      24.576   5.777  50.082  1.00  0.00     0.098 C 
BRANCH  11  12
HETATM   12  C5  UNL     1      25.924   5.838  49.401  1.00  0.00    -0.051 A 
HETATM   13  C4  UNL     1      26.710   4.736  49.141  1.00  0.00     0.007 A 
HETATM   14  C3  UNL     1      27.929   4.877  48.513  1.00  0.00     0.002 A 
HETATM   15  C2  UNL     1      28.366   6.150  48.141  1.00  0.00     0.024 A 
HETATM   16  C1  UNL     1      27.623   7.271  48.378  1.00  0.00     0.034 A 
HETATM   17 CL1  UNL     1      28.128   8.888  47.930  1.00  0.00    -0.084 Cl
HETATM   18  C21 UNL     1      26.411   7.084  49.007  1.00  0.00     0.031 A 
ENDBRANCH  11  12
ENDBRANCH   1  11
BRANCH   8  19
HETATM   19  C12 UNL     1      22.563   1.758  52.341  1.00  0.00     0.166 C 
BRANCH  19  20
HETATM   20  C13 UNL     1      23.903   1.492  52.916  1.00  0.00    -0.040 A 
HETATM   21  C14 UNL     1      24.235   0.154  53.082  1.00  0.00     0.010 A 
HETATM   22  C15 UNL     1      25.440  -0.257  53.603  1.00  0.00     0.019 A 
HETATM   23  C16 UNL     1      26.368   0.714  53.978  1.00  0.00     0.011 A 
HETATM   24 BR1  UNL     1      28.069   0.200  54.711  1.00  0.00    -0.051 Br
HETATM   25  C17 UNL     1      26.035   2.044  53.811  1.00  0.00     0.019 A 
HETATM   26  C18 UNL     1      24.823   2.446  53.287  1.00  0.00     0.010 A 
ENDBRANCH  19  20
ENDBRANCH   8  19
TORSDOF 4
ENDMDL
MODEL 4
REMARK VINA RESULT:      -8.7      1.909      2.175
REMARK  4 active torsions:
REMARK  status: ('A' for Active; 'I' for Inactive)
REMARK    1  A    between atoms: C5_6  and  C6_7 
REMARK    2  A    between atoms: C6_7  and  C7_8 
REMARK    3  A    between atoms: N3_15  and  C12_16 
REMARK    4  A    between atoms: C12_16  and  C13_17 
ROOT
HETATM    1  C7  UNL     1      23.841   3.758  51.004  1.00  0.00     0.050 C 
HETATM    2  N1  UNL     1      23.405   4.919  51.350  1.00  0.00    -0.246 NA
HETATM    3  C8  UNL     1      22.176   5.061  52.027  1.00  0.00     0.228 C 
HETATM    4  N2  UNL     1      21.317   4.111  52.369  1.00  0.00    -0.269 NA
HETATM    5  C9  UNL     1      21.648   2.763  51.995  1.00  0.00     0.170 A 
HETATM    6  C10 UNL     1      21.078   1.652  52.719  1.00  0.00     0.022 A 
HETATM    7  C11 UNL     1      21.734   0.576  53.109  1.00  0.00     0.089 A 
HETATM    8  N3  UNL     1      23.104   0.462  52.827  1.00  0.00    -0.362 N 
HETATM    9  C19 UNL     1      23.693   1.553  52.133  1.00  0.00     0.102 A 
HETATM   10  C20 UNL     1      23.094   2.682  51.711  1.00  0.00     0.011 A 
ENDROOT
BRANCH   1  11
HETATM   11  C6  UNL     1      25.029   3.206  50.284  1.00  0.00     0.098 C 
BRANCH  11  12
HETATM   12  C5  UNL     1      25.637   4.362  49.525  1.00  0.00    -0.051 A 
HETATM   13  C4  UNL     1      24.930   5.467  49.103  1.00  0.00     0.007 A 
HETATM   14  C3  UNL     1      25.560   6.481  48.414  1.00  0.00     0.002 A 
HETATM   15  C2  UNL     1      26.927   6.382  48.145  1.00  0.00     0.024 A 
HETATM   16  C1  UNL     1      27.669   5.307  48.542  1.00  0.00     0.034 A 
HETATM   17 CL1  UNL     1      29.384   5.137  48.229  1.00  0.00    -0.084 Cl
HETATM   18  C21 UNL     1      26.999   4.317  49.227  1.00  0.00     0.031 A 
ENDBRANCH  11  12
ENDBRANCH   1  11
BRANCH   8  19
HETATM   19  C12 UNL     1      23.834  -0.695  53.228  1.00  0.00     0.166 C 
BRANCH  19  20
HETATM   20  C13 UNL     1      25.286  -0.474  53.428  1.00  0.00    -0.040 A 
HETATM   21  C14 UNL     1      26.127  -1.162  52.565  1.00  0.00     0.010 A 
HETATM   22  C15 UNL     1      27.498  -1.063  52.621  1.00  0.00     0.019 A 
HETATM   23  C16 UNL     1      28.065  -0.234  53.589  1.00  0.00     0.011 A 
HETATM   24 BR1  UNL     1      29.975  -0.055  53.716  1.00  0.00    -0.051 Br
HETATM   25  C17 UNL     1      27.225   0.450  54.446  1.00  0.00     0.019 A 
HETATM   26  C18 UNL     1      25.851   0.343  54.380  1.00  0.00     0.010 A 
ENDBRANCH  19  20
ENDBRANCH   8  19
TORSDOF 4
ENDMDL
MODEL 5
REMARK VINA RESULT:      -8.5      3.180      6.052
REMARK  4 active torsions:
REMARK  status: ('A' for Active; 'I' for Inactive)
REMARK    1  A    between atoms: C5_6  and  C6_7 
REMARK    2  A    between atoms: C6_7  and  C7_8 
REMARK    3  A    between atoms: N3_15  and  C12_16 
REMARK    4  A    between atoms: C12_16  and  C13_17 
ROOT
HETATM    1  C7  UNL     1      20.898   2.498  50.372  1.00  0.00     0.050 C 
HETATM    2  N1  UNL     1      20.601   1.936  49.252  1.00  0.00    -0.246 NA
HETATM    3  C8  UNL     1      21.522   1.914  48.184  1.00  0.00     0.228 C 
HETATM    4  N2  UNL     1      22.735   2.447  48.139  1.00  0.00    -0.269 NA
HETATM    5  C9  UNL     1      23.180   3.159  49.305  1.00  0.00     0.170 A 
HETATM    6  C10 UNL     1      24.592   3.331  49.552  1.00  0.00     0.022 A 
HETATM    7  C11 UNL     1      25.188   3.183  50.720  1.00  0.00     0.089 A 
HETATM    8  N3  UNL     1      24.429   2.819  51.842  1.00  0.00    -0.362 N 
HETATM    9  C19 UNL     1      23.039   2.624  51.621  1.00  0.00     0.102 A 
HETATM   10  C20 UNL     1      22.362   2.750  50.464  1.00  0.00     0.011 A 
ENDROOT
BRANCH   1  11
HETATM   11  C6  UNL     1      20.225   2.746  51.683  1.00  0.00     0.098 C 
BRANCH  11  12
HETATM   12  C5  UNL     1      19.698   1.407  52.146  1.00  0.00    -0.051 A 
HETATM   13  C4  UNL     1      18.494   0.871  51.748  1.00  0.00     0.007 A 
HETATM   14  C3  UNL     1      18.085  -0.359  52.217  1.00  0.00     0.002 A 
HETATM   15  C2  UNL     1      18.905  -1.063  53.103  1.00  0.00     0.024 A 
HETATM   16  C1  UNL     1      20.106  -0.572  53.526  1.00  0.00     0.034 A 
HETATM   17 CL1  UNL     1      21.168  -1.415  54.634  1.00  0.00    -0.084 Cl
HETATM   18  C21 UNL     1      20.475   0.661  53.032  1.00  0.00     0.031 A 
ENDBRANCH  11  12
ENDBRANCH   1  11
BRANCH   8  19
HETATM   19  C12 UNL     1      25.047   2.663  53.118  1.00  0.00     0.166 C 
BRANCH  19  20
HETATM   20  C13 UNL     1      26.091   1.613  53.176  1.00  0.00    -0.040 A 
HETATM   21  C14 UNL     1      27.361   2.043  53.532  1.00  0.00     0.010 A 
HETATM   22  C15 UNL     1      28.437   1.192  53.631  1.00  0.00     0.019 A 
HETATM   23  C16 UNL     1      28.240  -0.163  53.362  1.00  0.00     0.011 A 
HETATM   24 BR1  UNL     1      29.706  -1.401  53.484  1.00  0.00    -0.051 Br
HETATM   25  C17 UNL     1      26.974  -0.588  53.009  1.00  0.00     0.019 A 
HETATM   26  C18 UNL     1      25.902   0.275  52.913  1.00  0.00     0.010 A 
ENDBRANCH  19  20
ENDBRANCH   8  19
TORSDOF 4
ENDMDL
MODEL 6
REMARK VINA RESULT:      -8.5      3.587      6.809
REMARK  4 active torsions:
REMARK  status: ('A' for Active; 'I' for Inactive)
REMARK    1  A    between atoms: C5_6  and  C6_7 
REMARK    2  A    between atoms: C6_7  and  C7_8 
REMARK    3  A    between atoms: N3_15  and  C12_16 
REMARK    4  A    between atoms: C12_16  and  C13_17 
ROOT
HETATM    1  C7  UNL     1      25.048   1.030  52.379  1.00  0.00     0.050 C 
HETATM    2  N1  UNL     1      24.616  -0.102  52.815  1.00  0.00    -0.246 NA
HETATM    3  C8  UNL     1      23.267  -0.268  53.195  1.00  0.00     0.228 C 
HETATM    4  N2  UNL     1      22.302   0.640  53.198  1.00  0.00    -0.269 NA
HETATM    5  C9  UNL     1      22.654   1.971  52.786  1.00  0.00     0.170 A 
HETATM    6  C10 UNL     1      21.637   2.866  52.287  1.00  0.00     0.022 A 
HETATM    7  C11 UNL     1      21.759   3.651  51.234  1.00  0.00     0.089 A 
HETATM    8  N3  UNL     1      22.956   3.643  50.501  1.00  0.00    -0.362 N 
HETATM    9  C19 UNL     1      23.966   2.756  50.961  1.00  0.00     0.102 A 
HETATM   10  C20 UNL     1      23.913   1.923  52.018  1.00  0.00     0.011 A 
ENDROOT
BRANCH   1  11
HETATM   11  C6  UNL     1      26.350   1.599  51.917  1.00  0.00     0.098 C 
BRANCH  11  12
HETATM   12  C5  UNL     1      27.416   0.970  52.784  1.00  0.00    -0.051 A 
HETATM   13  C4  UNL     1      28.167   1.660  53.709  1.00  0.00     0.007 A 
HETATM   14  C3  UNL     1      29.121   1.011  54.463  1.00  0.00     0.002 A 
HETATM   15  C2  UNL     1      29.324  -0.359  54.281  1.00  0.00     0.024 A 
HETATM   16  C1  UNL     1      28.605  -1.085  53.375  1.00  0.00     0.034 A 
HETATM   17 CL1  UNL     1      28.822  -2.804  53.111  1.00  0.00    -0.084 Cl
HETATM   18  C21 UNL     1      27.662  -0.396  52.644  1.00  0.00     0.031 A 
ENDBRANCH  11  12
ENDBRANCH   1  11
BRANCH   8  19
HETATM   19  C12 UNL     1      23.118   4.490  49.366  1.00  0.00     0.166 C 
BRANCH  19  20
HETATM   20  C13 UNL     1      24.019   5.647  49.579  1.00  0.00    -0.040 A 
HETATM   21  C14 UNL     1      25.256   5.574  48.954  1.00  0.00     0.010 A 
HETATM   22  C15 UNL     1      26.203   6.566  49.054  1.00  0.00     0.019 A 
HETATM   23  C16 UNL     1      25.906   7.695  49.817  1.00  0.00     0.011 A 
HETATM   24 BR1  UNL     1      27.190   9.115  49.994  1.00  0.00    -0.051 Br
HETATM   25  C17 UNL     1      24.674   7.765  50.438  1.00  0.00     0.019 A 
HETATM   26  C18 UNL     1      23.731   6.763  50.331  1.00  0.00     0.010 A 
ENDBRANCH  19  20
ENDBRANCH   8  19
TORSDOF 4
ENDMDL
MODEL 7
REMARK VINA RESULT:      -8.5      3.216      6.754
REMARK  4 active torsions:
REMARK  status: ('A' for Active; 'I' for Inactive)
REMARK    1  A    between atoms: C5_6  and  C6_7 
REMARK    2  A    between atoms: C6_7  and  C7_8 
REMARK    3  A    between atoms: N3_15  and  C12_16 
REMARK    4  A    between atoms: C12_16  and  C13_17 
ROOT
HETATM    1  C7  UNL     1      22.266   2.422  50.508  1.00  0.00     0.050 C 
HETATM    2  N1  UNL     1      22.042   1.324  49.872  1.00  0.00    -0.246 NA
HETATM    3  C8  UNL     1      21.745   1.331  48.493  1.00  0.00     0.228 C 
HETATM    4  N2  UNL     1      21.625   2.376  47.689  1.00  0.00    -0.269 NA
HETATM    5  C9  UNL     1      21.793   3.677  48.275  1.00  0.00     0.170 A 
HETATM    6  C10 UNL     1      22.172   4.799  47.449  1.00  0.00     0.022 A 
HETATM    7  C11 UNL     1      23.073   5.711  47.763  1.00  0.00     0.089 A 
HETATM    8  N3  UNL     1      23.752   5.617  48.987  1.00  0.00    -0.362 N 
HETATM    9  C19 UNL     1      23.412   4.510  49.810  1.00  0.00     0.102 A 
HETATM   10  C20 UNL     1      22.513   3.540  49.557  1.00  0.00     0.011 A 
ENDROOT
BRANCH   1  11
HETATM   11  C6  UNL     1      22.579   2.829  51.911  1.00  0.00     0.098 C 
BRANCH  11  12
HETATM   12  C5  UNL     1      23.161   1.608  52.584  1.00  0.00    -0.051 A 
HETATM   13  C4  UNL     1      24.500   1.284  52.574  1.00  0.00     0.007 A 
HETATM   14  C3  UNL     1      24.952   0.150  53.214  1.00  0.00     0.002 A 
HETATM   15  C2  UNL     1      24.039  -0.674  53.876  1.00  0.00     0.024 A 
HETATM   16  C1  UNL     1      22.703  -0.395  53.912  1.00  0.00     0.034 A 
HETATM   17 CL1  UNL     1      21.520  -1.397  54.728  1.00  0.00    -0.084 Cl
HETATM   18  C21 UNL     1      22.295   0.748  53.260  1.00  0.00     0.031 A 
ENDBRANCH  11  12
ENDBRANCH   1  11
BRANCH   8  19
HETATM   19  C12 UNL     1      24.723   6.595  49.355  1.00  0.00     0.166 C 
BRANCH  19  20
HETATM   20  C13 UNL     1      26.118   6.252  48.990  1.00  0.00    -0.040 A 
HETATM   21  C14 UNL     1      26.939   7.323  48.668  1.00  0.00     0.010 A 
HETATM   22  C15 UNL     1      28.258   7.171  48.308  1.00  0.00     0.019 A 
HETATM   23  C16 UNL     1      28.791   5.883  48.265  1.00  0.00     0.011 A 
HETATM   24 BR1  UNL     1      30.628   5.608  47.769  1.00  0.00    -0.051 Br
HETATM   25  C17 UNL     1      27.971   4.819  48.586  1.00  0.00     0.019 A 
HETATM   26  C18 UNL     1      26.649   4.983  48.947  1.00  0.00     0.010 A 
ENDBRANCH  19  20
ENDBRANCH   8  19
TORSDOF 4
ENDMDL
MODEL 8
REMARK VINA RESULT:      -8.4      1.538      1.933
REMARK  4 active torsions:
REMARK  status: ('A' for Active; 'I' for Inactive)
REMARK    1  A    between atoms: C5_6  and  C6_7 
REMARK    2  A    between atoms: C6_7  and  C7_8 
REMARK    3  A    between atoms: N3_15  and  C12_16 
REMARK    4  A    between atoms: C12_16  and  C13_17 
ROOT
HETATM    1  C7  UNL     1      22.507   4.546  51.129  1.00  0.00     0.050 C 
HETATM    2  N1  UNL     1      21.463   5.171  50.708  1.00  0.00    -0.246 NA
HETATM    3  C8  UNL     1      20.420   4.484  50.051  1.00  0.00     0.228 C 
HETATM    4  N2  UNL     1      20.353   3.195  49.753  1.00  0.00    -0.269 NA
HETATM    5  C9  UNL     1      21.479   2.379  50.115  1.00  0.00     0.170 A 
HETATM    6  C10 UNL     1      21.313   0.956  50.294  1.00  0.00     0.022 A 
HETATM    7  C11 UNL     1      21.832   0.242  51.275  1.00  0.00     0.089 A 
HETATM    8  N3  UNL     1      22.609   0.878  52.255  1.00  0.00    -0.362 N 
HETATM    9  C19 UNL     1      22.771   2.283  52.113  1.00  0.00     0.102 A 
HETATM   10  C20 UNL     1      22.270   3.077  51.148  1.00  0.00     0.011 A 
ENDROOT
BRANCH   1  11
HETATM   11  C6  UNL     1      23.785   4.895  51.821  1.00  0.00     0.098 C 
BRANCH  11  12
HETATM   12  C5  UNL     1      24.871   4.794  50.774  1.00  0.00    -0.051 A 
HETATM   13  C4  UNL     1      25.694   3.701  50.617  1.00  0.00     0.007 A 
HETATM   14  C3  UNL     1      26.662   3.687  49.635  1.00  0.00     0.002 A 
HETATM   15  C2  UNL     1      26.804   4.796  48.797  1.00  0.00     0.024 A 
HETATM   16  C1  UNL     1      26.013   5.902  48.916  1.00  0.00     0.034 A 
HETATM   17 CL1  UNL     1      26.153   7.315  47.889  1.00  0.00    -0.084 Cl
HETATM   18  C21 UNL     1      25.059   5.872  49.910  1.00  0.00     0.031 A 
ENDBRANCH  11  12
ENDBRANCH   1  11
BRANCH   8  19
HETATM   19  C12 UNL     1      23.191   0.129  53.320  1.00  0.00     0.166 C 
BRANCH  19  20
HETATM   20  C13 UNL     1      24.672   0.084  53.310  1.00  0.00    -0.040 A 
HETATM   21  C14 UNL     1      25.277  -0.195  54.527  1.00  0.00     0.010 A 
HETATM   22  C15 UNL     1      26.641  -0.273  54.683  1.00  0.00     0.019 A 
HETATM   23  C16 UNL     1      27.451  -0.061  53.567  1.00  0.00     0.011 A 
HETATM   24 BR1  UNL     1      29.364  -0.157  53.722  1.00  0.00    -0.051 Br
HETATM   25  C17 UNL     1      26.845   0.216  52.356  1.00  0.00     0.019 A 
HETATM   26  C18 UNL     1      25.475   0.291  52.212  1.00  0.00     0.010 A 
ENDBRANCH  19  20
ENDBRANCH   8  19
TORSDOF 4
ENDMDL
MODEL 9
REMARK VINA RESULT:      -8.3      3.974      6.172
REMARK  4 active torsions:
REMARK  status: ('A' for Active; 'I' for Inactive)
REMARK    1  A    between atoms: C5_6  and  C6_7 
REMARK    2  A    between atoms: C6_7  and  C7_8 
REMARK    3  A    between atoms: N3_15  and  C12_16 
REMARK    4  A    between atoms: C12_16  and  C13_17 
ROOT
HETATM    1  C7  UNL     1      25.107   1.673  52.476  1.00  0.00     0.050 C 
HETATM    2  N1  UNL     1      26.088   1.109  51.859  1.00  0.00    -0.246 NA
HETATM    3  C8  UNL     1      26.558  -0.161  52.251  1.00  0.00     0.228 C 
HETATM    4  N2  UNL     1      26.132  -0.917  53.253  1.00  0.00    -0.269 NA
HETATM    5  C9  UNL     1      25.073  -0.388  54.068  1.00  0.00     0.170 A 
HETATM    6  C10 UNL     1      24.227  -1.281  54.823  1.00  0.00     0.022 A 
HETATM    7  C11 UNL     1      22.915  -1.189  54.925  1.00  0.00     0.089 A 
HETATM    8  N3  UNL     1      22.241  -0.159  54.253  1.00  0.00    -0.362 N 
HETATM    9  C19 UNL     1      23.049   0.723  53.486  1.00  0.00     0.102 A 
HETATM   10  C20 UNL     1      24.385   0.689  53.328  1.00  0.00     0.011 A 
ENDROOT
BRANCH   1  11
HETATM   11  C6  UNL     1      24.358   2.963  52.390  1.00  0.00     0.098 C 
BRANCH  11  12
HETATM   12  C5  UNL     1      23.933   3.108  50.947  1.00  0.00    -0.051 A 
HETATM   13  C4  UNL     1      24.381   4.102  50.105  1.00  0.00     0.007 A 
HETATM   14  C3  UNL     1      23.945   4.164  48.799  1.00  0.00     0.002 A 
HETATM   15  C2  UNL     1      23.040   3.208  48.332  1.00  0.00     0.024 A 
HETATM   16  C1  UNL     1      22.567   2.206  49.129  1.00  0.00     0.034 A 
HETATM   17 CL1  UNL     1      21.433   0.984  48.589  1.00  0.00    -0.084 Cl
HETATM   18  C21 UNL     1      23.030   2.181  50.427  1.00  0.00     0.031 A 
ENDBRANCH  11  12
ENDBRANCH   1  11
BRANCH   8  19
HETATM   19  C12 UNL     1      20.824  -0.030  54.355  1.00  0.00     0.166 C 
BRANCH  19  20
HETATM   20  C13 UNL     1      20.167   0.552  53.161  1.00  0.00    -0.040 A 
HETATM   21  C14 UNL     1      20.278   1.928  53.020  1.00  0.00     0.010 A 
HETATM   22  C15 UNL     1      19.724   2.618  51.967  1.00  0.00     0.019 A 
HETATM   23  C16 UNL     1      19.020   1.901  50.999  1.00  0.00     0.011 A 
HETATM   24 BR1  UNL     1      18.224   2.810  49.504  1.00  0.00    -0.051 Br
HETATM   25  C17 UNL     1      18.912   0.531  51.143  1.00  0.00     0.019 A 
HETATM   26  C18 UNL     1      19.472  -0.151  52.203  1.00  0.00     0.010 A 
ENDBRANCH  19  20
ENDBRANCH   8  19
TORSDOF 4
ENDMDL
