MODEL 1
REMARK VINA RESULT:      -7.3      0.000      0.000
REMARK  4 active torsions:
REMARK  status: ('A' for Active; 'I' for Inactive)
REMARK    1  A    between atoms: C7_8  and  C8_9 
REMARK    2  A    between atoms: C12_16  and  C13_17 
REMARK    3  A    between atoms: C16_21  and  N5_22 
REMARK    4  A    between atoms: C17_23  and  N6_24 
ROOT
HETATM    1  C8  UNL     1      22.408   0.972  51.928  1.00  0.00     0.098 A 
HETATM    2  N1  UNL     1      21.874  -0.171  52.365  1.00  0.00    -0.237 NA
HETATM    3  C9  UNL     1      22.576  -0.924  53.262  1.00  0.00     0.256 A 
HETATM    4  N2  UNL     1      23.758  -0.465  53.646  1.00  0.00    -0.161 NA
HETATM    5  N3  UNL     1      24.249   0.670  53.184  1.00  0.00    -0.241 N 
HETATM    6  C10 UNL     1      25.443   1.217  53.464  1.00  0.00     0.119 A 
HETATM    7  C11 UNL     1      25.491   2.352  52.712  1.00  0.00     0.031 A 
HETATM    8  C12 UNL     1      24.333   2.580  51.921  1.00  0.00     0.009 A 
HETATM    9  C18 UNL     1      23.621   1.463  52.303  1.00  0.00     0.096 A 
ENDROOT
BRANCH   8  10
HETATM   10  C13 UNL     1      24.059   3.645  50.972  1.00  0.00     0.290 C 
HETATM   11  N4  UNL     1      24.480   3.637  49.635  1.00  0.00     0.094 NA
HETATM   12  C14 UNL     1      23.375   4.205  48.805  1.00  0.00     0.272 C 
HETATM   13  H11 UNL     1      25.193   4.417  49.407  1.00  0.00     0.316 HD
HETATM   14  C15 UNL     1      23.145   5.634  49.255  1.00  0.00     0.067 C 
HETATM   15  C16 UNL     1      22.884   5.756  50.737  1.00  0.00     0.254 C 
HETATM   16  C17 UNL     1      23.937   5.033  51.566  1.00  0.00     0.288 C 
BRANCH  15  17
HETATM   17  N5  UNL     1      22.676   7.115  51.103  1.00  0.00     0.085 N 
HETATM   18  H17 UNL     1      23.490   7.752  50.859  1.00  0.00     0.313 HD
HETATM   19  H18 UNL     1      22.570   7.192  52.140  1.00  0.00     0.313 HD
ENDBRANCH  15  17
BRANCH  16  20
HETATM   20  N6  UNL     1      23.494   4.984  52.923  1.00  0.00     0.087 N 
HETATM   21  H20 UNL     1      24.034   5.572  53.598  1.00  0.00     0.313 HD
HETATM   22  H21 UNL     1      22.489   5.203  53.066  1.00  0.00     0.313 HD
ENDBRANCH  16  20
ENDBRANCH   8  10
BRANCH   1  23
HETATM   23  C7  UNL     1      21.503   1.637  51.012  1.00  0.00     0.002 A 
HETATM   24  C2  UNL     1      20.670   2.732  50.991  1.00  0.00    -0.032 A 
HETATM   25  C1  UNL     1      20.571   3.227  52.399  1.00  0.00     0.050 C 
HETATM   26  C3  UNL     1      20.086   3.184  49.830  1.00  0.00     0.017 A 
HETATM   27 BR1  UNL     1      18.987   4.712  50.093  1.00  0.00    -0.051 Br
HETATM   28  C4  UNL     1      20.322   2.543  48.631  1.00  0.00     0.019 A 
HETATM   29  C5  UNL     1      21.154   1.434  48.600  1.00  0.00     0.002 A 
HETATM   30  C6  UNL     1      21.735   0.991  49.779  1.00  0.00     0.014 A 
ENDBRANCH   1  23
TORSDOF 4
ENDMDL
MODEL 2
REMARK VINA RESULT:      -7.2      2.073      3.982
REMARK  4 active torsions:
REMARK  status: ('A' for Active; 'I' for Inactive)
REMARK    1  A    between atoms: C7_8  and  C8_9 
REMARK    2  A    between atoms: C12_16  and  C13_17 
REMARK    3  A    between atoms: C16_21  and  N5_22 
REMARK    4  A    between atoms: C17_23  and  N6_24 
ROOT
HETATM    1  C8  UNL     1      24.147   1.903  52.322  1.00  0.00     0.098 A 
HETATM    2  N1  UNL     1      25.459   1.850  52.561  1.00  0.00    -0.237 NA
HETATM    3  C9  UNL     1      25.943   0.845  53.349  1.00  0.00     0.256 A 
HETATM    4  N2  UNL     1      25.066  -0.023  53.833  1.00  0.00    -0.161 NA
HETATM    5  N3  UNL     1      23.775   0.071  53.573  1.00  0.00    -0.241 N 
HETATM    6  C10 UNL     1      22.790  -0.716  54.032  1.00  0.00     0.119 A 
HETATM    7  C11 UNL     1      21.648  -0.183  53.515  1.00  0.00     0.031 A 
HETATM    8  C12 UNL     1      21.853   0.966  52.705  1.00  0.00     0.009 A 
HETATM    9  C18 UNL     1      23.226   1.028  52.810  1.00  0.00     0.096 A 
ENDROOT
BRANCH   8  10
HETATM   10  C13 UNL     1      20.876   1.814  52.043  1.00  0.00     0.290 C 
HETATM   11  N4  UNL     1      20.043   2.723  52.707  1.00  0.00     0.094 NA
HETATM   12  C14 UNL     1      19.945   3.953  51.864  1.00  0.00     0.272 C 
HETATM   13  H11 UNL     1      18.994   2.469  52.641  1.00  0.00     0.316 HD
HETATM   14  C15 UNL     1      19.314   3.561  50.543  1.00  0.00     0.067 C 
HETATM   15  C16 UNL     1      20.041   2.434  49.849  1.00  0.00     0.254 C 
HETATM   16  C17 UNL     1      20.273   1.246  50.774  1.00  0.00     0.288 C 
BRANCH  15  17
HETATM   17  N5  UNL     1      19.408   2.108  48.618  1.00  0.00     0.085 N 
HETATM   18  H17 UNL     1      19.595   2.808  47.842  1.00  0.00     0.313 HD
HETATM   19  H18 UNL     1      18.369   2.107  48.742  1.00  0.00     0.313 HD
ENDBRANCH  15  17
BRANCH  16  20
HETATM   20  N6  UNL     1      21.167   0.336  50.131  1.00  0.00     0.087 N 
HETATM   21  H20 UNL     1      20.726  -0.517  49.718  1.00  0.00     0.313 HD
HETATM   22  H21 UNL     1      21.767   0.755  49.395  1.00  0.00     0.313 HD
ENDBRANCH  16  20
ENDBRANCH   8  10
BRANCH   1  23
HETATM   23  C7  UNL     1      23.836   3.016  51.446  1.00  0.00     0.002 A 
HETATM   24  C2  UNL     1      23.594   4.368  51.533  1.00  0.00    -0.032 A 
HETATM   25  C1  UNL     1      23.437   4.685  52.986  1.00  0.00     0.050 C 
HETATM   26  C3  UNL     1      23.520   5.170  50.418  1.00  0.00     0.017 A 
HETATM   27 BR1  UNL     1      23.177   6.993  50.832  1.00  0.00    -0.051 Br
HETATM   28  C4  UNL     1      23.690   4.636  49.157  1.00  0.00     0.019 A 
HETATM   29  C5  UNL     1      23.936   3.279  49.016  1.00  0.00     0.002 A 
HETATM   30  C6  UNL     1      24.007   2.483  50.150  1.00  0.00     0.014 A 
ENDBRANCH   1  23
TORSDOF 4
ENDMDL
MODEL 3
REMARK VINA RESULT:      -6.7      1.913      4.172
REMARK  4 active torsions:
REMARK  status: ('A' for Active; 'I' for Inactive)
REMARK    1  A    between atoms: C7_8  and  C8_9 
REMARK    2  A    between atoms: C12_16  and  C13_17 
REMARK    3  A    between atoms: C16_21  and  N5_22 
REMARK    4  A    between atoms: C17_23  and  N6_24 
ROOT
HETATM    1  C8  UNL     1      24.075   2.396  52.128  1.00  0.00     0.098 A 
HETATM    2  N1  UNL     1      25.367   2.526  52.436  1.00  0.00    -0.237 NA
HETATM    3  C9  UNL     1      25.989   1.509  53.103  1.00  0.00     0.256 A 
HETATM    4  N2  UNL     1      25.258   0.446  53.405  1.00  0.00    -0.161 NA
HETATM    5  N3  UNL     1      23.981   0.362  53.083  1.00  0.00    -0.241 N 
HETATM    6  C10 UNL     1      23.130  -0.637  53.366  1.00  0.00     0.119 A 
HETATM    7  C11 UNL     1      21.933  -0.230  52.861  1.00  0.00     0.031 A 
HETATM    8  C12 UNL     1      21.965   1.045  52.234  1.00  0.00     0.009 A 
HETATM    9  C18 UNL     1      23.302   1.317  52.430  1.00  0.00     0.096 A 
ENDROOT
BRANCH   8  10
HETATM   10  C13 UNL     1      20.881   1.808  51.640  1.00  0.00     0.290 C 
HETATM   11  N4  UNL     1      19.917   2.512  52.374  1.00  0.00     0.094 NA
HETATM   12  C14 UNL     1      19.649   3.797  51.661  1.00  0.00     0.272 C 
HETATM   13  H11 UNL     1      18.918   2.117  52.256  1.00  0.00     0.316 HD
HETATM   14  C15 UNL     1      19.094   3.460  50.291  1.00  0.00     0.067 C 
HETATM   15  C16 UNL     1      19.985   2.530  49.502  1.00  0.00     0.254 C 
HETATM   16  C17 UNL     1      20.380   1.297  50.304  1.00  0.00     0.288 C 
BRANCH  15  17
HETATM   17  N5  UNL     1      19.417   2.248  48.228  1.00  0.00     0.085 N 
HETATM   18  H17 UNL     1      19.596   3.004  47.504  1.00  0.00     0.313 HD
HETATM   19  H18 UNL     1      18.376   2.186  48.309  1.00  0.00     0.313 HD
ENDBRANCH  15  17
BRANCH  16  20
HETATM   20  N6  UNL     1      21.403   0.599  49.593  1.00  0.00     0.087 N 
HETATM   21  H20 UNL     1      21.396   0.719  48.554  1.00  0.00     0.313 HD
HETATM   22  H21 UNL     1      22.371   0.792  49.914  1.00  0.00     0.313 HD
ENDBRANCH  16  20
ENDBRANCH   8  10
BRANCH   1  23
HETATM   23  C7  UNL     1      23.608   3.559  51.399  1.00  0.00     0.002 A 
HETATM   24  C2  UNL     1      23.327   3.926  50.103  1.00  0.00    -0.032 A 
HETATM   25  C1  UNL     1      23.846   2.834  49.222  1.00  0.00     0.050 C 
HETATM   26  C3  UNL     1      22.693   5.109  49.799  1.00  0.00     0.017 A 
HETATM   27 BR1  UNL     1      22.431   5.357  47.933  1.00  0.00    -0.051 Br
HETATM   28  C4  UNL     1      22.314   5.978  50.801  1.00  0.00     0.019 A 
HETATM   29  C5  UNL     1      22.575   5.655  52.124  1.00  0.00     0.002 A 
HETATM   30  C6  UNL     1      23.215   4.458  52.414  1.00  0.00     0.014 A 
ENDBRANCH   1  23
TORSDOF 4
ENDMDL
MODEL 4
REMARK VINA RESULT:      -6.6      9.008     10.737
REMARK  4 active torsions:
REMARK  status: ('A' for Active; 'I' for Inactive)
REMARK    1  A    between atoms: C7_8  and  C8_9 
REMARK    2  A    between atoms: C12_16  and  C13_17 
REMARK    3  A    between atoms: C16_21  and  N5_22 
REMARK    4  A    between atoms: C17_23  and  N6_24 
ROOT
HETATM    1  C8  UNL     1      31.779   5.332  47.283  1.00  0.00     0.098 A 
HETATM    2  N1  UNL     1      31.480   4.100  46.864  1.00  0.00    -0.237 NA
HETATM    3  C9  UNL     1      32.428   3.123  46.967  1.00  0.00     0.256 A 
HETATM    4  N2  UNL     1      33.599   3.465  47.484  1.00  0.00    -0.161 NA
HETATM    5  N3  UNL     1      33.852   4.698  47.883  1.00  0.00    -0.241 N 
HETATM    6  C10 UNL     1      35.003   5.175  48.383  1.00  0.00     0.119 A 
HETATM    7  C11 UNL     1      34.767   6.499  48.597  1.00  0.00     0.031 A 
HETATM    8  C12 UNL     1      33.459   6.927  48.244  1.00  0.00     0.009 A 
HETATM    9  C18 UNL     1      32.974   5.710  47.813  1.00  0.00     0.096 A 
ENDROOT
BRANCH   8  10
HETATM   10  C13 UNL     1      32.881   8.258  48.286  1.00  0.00     0.290 C 
HETATM   11  N4  UNL     1      33.418   9.372  47.627  1.00  0.00     0.094 NA
HETATM   12  C14 UNL     1      32.280  10.169  47.076  1.00  0.00     0.272 C 
HETATM   13  H11 UNL     1      33.766  10.142  48.302  1.00  0.00     0.316 HD
HETATM   14  C15 UNL     1      31.430  10.632  48.242  1.00  0.00     0.067 C 
HETATM   15  C16 UNL     1      30.973   9.500  49.131  1.00  0.00     0.254 C 
HETATM   16  C17 UNL     1      32.128   8.603  49.555  1.00  0.00     0.288 C 
BRANCH  15  17
HETATM   17  N5  UNL     1      30.182   9.992  50.206  1.00  0.00     0.085 N 
HETATM   18  H17 UNL     1      30.566  10.877  50.650  1.00  0.00     0.313 HD
HETATM   19  H18 UNL     1      30.156   9.288  50.979  1.00  0.00     0.313 HD
ENDBRANCH  15  17
BRANCH  16  20
HETATM   20  N6  UNL     1      31.592   7.435  50.179  1.00  0.00     0.087 N 
HETATM   21  H20 UNL     1      30.667   7.110  49.815  1.00  0.00     0.313 HD
HETATM   22  H21 UNL     1      32.223   6.611  50.184  1.00  0.00     0.313 HD
ENDBRANCH  16  20
ENDBRANCH   8  10
BRANCH   1  23
HETATM   23  C7  UNL     1      30.640   6.213  47.119  1.00  0.00     0.002 A 
HETATM   24  C2  UNL     1      30.175   7.151  46.225  1.00  0.00    -0.032 A 
HETATM   25  C1  UNL     1      31.293   7.430  45.272  1.00  0.00     0.050 C 
HETATM   26  C3  UNL     1      28.903   7.670  46.306  1.00  0.00     0.017 A 
HETATM   27 BR1  UNL     1      28.530   8.942  44.944  1.00  0.00    -0.051 Br
HETATM   28  C4  UNL     1      28.040   7.260  47.301  1.00  0.00     0.019 A 
HETATM   29  C5  UNL     1      28.461   6.317  48.227  1.00  0.00     0.002 A 
HETATM   30  C6  UNL     1      29.747   5.804  48.133  1.00  0.00     0.014 A 
ENDBRANCH   1  23
TORSDOF 4
ENDMDL
MODEL 5
REMARK VINA RESULT:      -6.6      9.674     12.173
REMARK  4 active torsions:
REMARK  status: ('A' for Active; 'I' for Inactive)
REMARK    1  A    between atoms: C7_8  and  C8_9 
REMARK    2  A    between atoms: C12_16  and  C13_17 
REMARK    3  A    between atoms: C16_21  and  N5_22 
REMARK    4  A    between atoms: C17_23  and  N6_24 
ROOT
HETATM    1  C8  UNL     1      30.707   8.161  46.891  1.00  0.00     0.098 A 
HETATM    2  N1  UNL     1      30.113   9.345  46.733  1.00  0.00    -0.237 NA
HETATM    3  C9  UNL     1      28.818   9.491  47.144  1.00  0.00     0.256 A 
HETATM    4  N2  UNL     1      28.229   8.432  47.680  1.00  0.00    -0.161 NA
HETATM    5  N3  UNL     1      28.855   7.278  47.813  1.00  0.00    -0.241 N 
HETATM    6  C10 UNL     1      28.358   6.130  48.299  1.00  0.00     0.119 A 
HETATM    7  C11 UNL     1      29.375   5.233  48.186  1.00  0.00     0.031 A 
HETATM    8  C12 UNL     1      30.566   5.766  47.622  1.00  0.00     0.009 A 
HETATM    9  C18 UNL     1      30.122   7.057  47.433  1.00  0.00     0.096 A 
ENDROOT
BRANCH   8  10
HETATM   10  C13 UNL     1      31.817   5.098  47.308  1.00  0.00     0.290 C 
HETATM   11  N4  UNL     1      31.997   4.232  46.221  1.00  0.00     0.094 NA
HETATM   12  C14 UNL     1      33.350   4.499  45.644  1.00  0.00     0.272 C 
HETATM   13  H11 UNL     1      32.209   3.214  46.516  1.00  0.00     0.316 HD
HETATM   14  C15 UNL     1      34.379   4.189  46.712  1.00  0.00     0.067 C 
HETATM   15  C16 UNL     1      34.138   4.936  48.003  1.00  0.00     0.254 C 
HETATM   16  C17 UNL     1      32.705   4.782  48.495  1.00  0.00     0.288 C 
BRANCH  15  17
HETATM   17  N5  UNL     1      35.131   4.608  48.968  1.00  0.00     0.085 N 
HETATM   18  H17 UNL     1      36.112   4.902  48.687  1.00  0.00     0.313 HD
HETATM   19  H18 UNL     1      35.179   3.571  49.089  1.00  0.00     0.313 HD
ENDBRANCH  15  17
BRANCH  16  20
HETATM   20  N6  UNL     1      32.490   5.700  49.567  1.00  0.00     0.087 N 
HETATM   21  H20 UNL     1      31.766   6.436  49.397  1.00  0.00     0.313 HD
HETATM   22  H21 UNL     1      32.268   5.263  50.482  1.00  0.00     0.313 HD
ENDBRANCH  16  20
ENDBRANCH   8  10
BRANCH   1  23
HETATM   23  C7  UNL     1      32.078   8.215  46.425  1.00  0.00     0.002 A 
HETATM   24  C2  UNL     1      32.779   8.075  45.248  1.00  0.00    -0.032 A 
HETATM   25  C1  UNL     1      31.822   7.531  44.237  1.00  0.00     0.050 C 
HETATM   26  C3  UNL     1      34.113   8.399  45.150  1.00  0.00     0.017 A 
HETATM   27 BR1  UNL     1      34.825   8.109  43.412  1.00  0.00    -0.051 Br
HETATM   28  C4  UNL     1      34.801   8.880  46.245  1.00  0.00     0.019 A 
HETATM   29  C5  UNL     1      34.139   9.038  47.454  1.00  0.00     0.002 A 
HETATM   30  C6  UNL     1      32.794   8.708  47.537  1.00  0.00     0.014 A 
ENDBRANCH   1  23
TORSDOF 4
ENDMDL
MODEL 6
REMARK VINA RESULT:      -6.6      2.030      3.837
REMARK  4 active torsions:
REMARK  status: ('A' for Active; 'I' for Inactive)
REMARK    1  A    between atoms: C7_8  and  C8_9 
REMARK    2  A    between atoms: C12_16  and  C13_17 
REMARK    3  A    between atoms: C16_21  and  N5_22 
REMARK    4  A    between atoms: C17_23  and  N6_24 
ROOT
HETATM    1  C8  UNL     1      24.759   2.057  52.465  1.00  0.00     0.098 A 
HETATM    2  N1  UNL     1      25.858   2.126  53.220  1.00  0.00    -0.237 NA
HETATM    3  C9  UNL     1      26.096   1.131  54.125  1.00  0.00     0.256 A 
HETATM    4  N2  UNL     1      25.209   0.150  54.196  1.00  0.00    -0.161 NA
HETATM    5  N3  UNL     1      24.133   0.125  53.432  1.00  0.00    -0.241 N 
HETATM    6  C10 UNL     1      23.148  -0.786  53.437  1.00  0.00     0.119 A 
HETATM    7  C11 UNL     1      22.259  -0.345  52.504  1.00  0.00     0.031 A 
HETATM    8  C12 UNL     1      22.636   0.866  51.863  1.00  0.00     0.009 A 
HETATM    9  C18 UNL     1      23.831   1.064  52.522  1.00  0.00     0.096 A 
ENDROOT
BRANCH   8  10
HETATM   10  C13 UNL     1      21.919   1.646  50.869  1.00  0.00     0.290 C 
HETATM   11  N4  UNL     1      22.402   1.918  49.582  1.00  0.00     0.094 NA
HETATM   12  C14 UNL     1      21.250   1.824  48.633  1.00  0.00     0.272 C 
HETATM   13  H11 UNL     1      22.592   2.969  49.411  1.00  0.00     0.316 HD
HETATM   14  C15 UNL     1      20.237   2.880  49.028  1.00  0.00     0.067 C 
HETATM   15  C16 UNL     1      19.811   2.784  50.474  1.00  0.00     0.254 C 
HETATM   16  C17 UNL     1      21.003   2.720  51.419  1.00  0.00     0.288 C 
BRANCH  15  17
HETATM   17  N5  UNL     1      18.862   3.796  50.788  1.00  0.00     0.085 N 
HETATM   18  H17 UNL     1      19.255   4.578  51.390  1.00  0.00     0.313 HD
HETATM   19  H18 UNL     1      18.078   3.387  51.347  1.00  0.00     0.313 HD
ENDBRANCH  15  17
BRANCH  16  20
HETATM   20  N6  UNL     1      20.531   2.387  52.726  1.00  0.00     0.087 N 
HETATM   21  H20 UNL     1      20.168   3.186  53.295  1.00  0.00     0.313 HD
HETATM   22  H21 UNL     1      19.809   1.641  52.755  1.00  0.00     0.313 HD
ENDBRANCH  16  20
ENDBRANCH   8  10
BRANCH   1  23
HETATM   23  C7  UNL     1      24.701   3.182  51.552  1.00  0.00     0.002 A 
HETATM   24  C2  UNL     1      24.233   4.476  51.530  1.00  0.00    -0.032 A 
HETATM   25  C1  UNL     1      23.394   4.653  52.756  1.00  0.00     0.050 C 
HETATM   26  C3  UNL     1      24.539   5.346  50.509  1.00  0.00     0.017 A 
HETATM   27 BR1  UNL     1      23.762   7.065  50.737  1.00  0.00    -0.051 Br
HETATM   28  C4  UNL     1      25.337   4.942  49.459  1.00  0.00     0.019 A 
HETATM   29  C5  UNL     1      25.833   3.647  49.434  1.00  0.00     0.002 A 
HETATM   30  C6  UNL     1      25.515   2.782  50.471  1.00  0.00     0.014 A 
ENDBRANCH   1  23
TORSDOF 4
ENDMDL
MODEL 7
REMARK VINA RESULT:      -6.6      1.838      2.597
REMARK  4 active torsions:
REMARK  status: ('A' for Active; 'I' for Inactive)
REMARK    1  A    between atoms: C7_8  and  C8_9 
REMARK    2  A    between atoms: C12_16  and  C13_17 
REMARK    3  A    between atoms: C16_21  and  N5_22 
REMARK    4  A    between atoms: C17_23  and  N6_24 
ROOT
HETATM    1  C8  UNL     1      21.554   2.254  50.792  1.00  0.00     0.098 A 
HETATM    2  N1  UNL     1      20.489   1.466  50.633  1.00  0.00    -0.237 NA
HETATM    3  C9  UNL     1      20.376   0.348  51.410  1.00  0.00     0.256 A 
HETATM    4  N2  UNL     1      21.345   0.116  52.283  1.00  0.00    -0.161 NA
HETATM    5  N3  UNL     1      22.384   0.922  52.403  1.00  0.00    -0.241 N 
HETATM    6  C10 UNL     1      23.442   0.776  53.216  1.00  0.00     0.119 A 
HETATM    7  C11 UNL     1      24.247   1.837  52.935  1.00  0.00     0.031 A 
HETATM    8  C12 UNL     1      23.741   2.708  51.933  1.00  0.00     0.009 A 
HETATM    9  C18 UNL     1      22.565   2.036  51.677  1.00  0.00     0.096 A 
ENDROOT
BRANCH   8  10
HETATM   10  C13 UNL     1      24.344   3.894  51.350  1.00  0.00     0.290 C 
HETATM   11  N4  UNL     1      25.539   3.891  50.617  1.00  0.00     0.094 NA
HETATM   12  C14 UNL     1      25.377   4.843  49.476  1.00  0.00     0.272 C 
HETATM   13  H11 UNL     1      26.336   4.440  51.098  1.00  0.00     0.316 HD
HETATM   14  C15 UNL     1      25.141   6.224  50.055  1.00  0.00     0.067 C 
HETATM   15  C16 UNL     1      23.984   6.272  51.025  1.00  0.00     0.254 C 
HETATM   16  C17 UNL     1      24.084   5.190  52.091  1.00  0.00     0.288 C 
BRANCH  15  17
HETATM   17  N5  UNL     1      23.809   7.589  51.535  1.00  0.00     0.085 N 
HETATM   18  H17 UNL     1      24.722   8.095  51.733  1.00  0.00     0.313 HD
HETATM   19  H18 UNL     1      23.313   7.550  52.455  1.00  0.00     0.313 HD
ENDBRANCH  15  17
BRANCH  16  20
HETATM   20  N6  UNL     1      22.851   5.143  52.810  1.00  0.00     0.087 N 
HETATM   21  H20 UNL     1      22.414   6.069  53.022  1.00  0.00     0.313 HD
HETATM   22  H21 UNL     1      22.114   4.551  52.380  1.00  0.00     0.313 HD
ENDBRANCH  16  20
ENDBRANCH   8  10
BRANCH   1  23
HETATM   23  C7  UNL     1      21.476   3.397  49.904  1.00  0.00     0.002 A 
HETATM   24  C2  UNL     1      21.851   3.744  48.625  1.00  0.00    -0.032 A 
HETATM   25  C1  UNL     1      22.752   2.657  48.130  1.00  0.00     0.050 C 
HETATM   26  C3  UNL     1      21.421   4.906  48.028  1.00  0.00     0.017 A 
HETATM   27 BR1  UNL     1      22.090   5.129  46.263  1.00  0.00    -0.051 Br
HETATM   28  C4  UNL     1      20.587   5.774  48.703  1.00  0.00     0.019 A 
HETATM   29  C5  UNL     1      20.182   5.471  49.993  1.00  0.00     0.002 A 
HETATM   30  C6  UNL     1      20.624   4.295  50.582  1.00  0.00     0.014 A 
ENDBRANCH   1  23
TORSDOF 4
ENDMDL
MODEL 8
REMARK VINA RESULT:      -6.5      1.809      2.857
REMARK  4 active torsions:
REMARK  status: ('A' for Active; 'I' for Inactive)
REMARK    1  A    between atoms: C7_8  and  C8_9 
REMARK    2  A    between atoms: C12_16  and  C13_17 
REMARK    3  A    between atoms: C16_21  and  N5_22 
REMARK    4  A    between atoms: C17_23  and  N6_24 
ROOT
HETATM    1  C8  UNL     1      23.718   2.207  51.934  1.00  0.00     0.098 A 
HETATM    2  N1  UNL     1      24.100   1.769  53.135  1.00  0.00    -0.237 NA
HETATM    3  C9  UNL     1      25.421   1.841  53.471  1.00  0.00     0.256 A 
HETATM    4  N2  UNL     1      26.250   2.347  52.570  1.00  0.00    -0.161 NA
HETATM    5  N3  UNL     1      25.828   2.766  51.391  1.00  0.00    -0.241 N 
HETATM    6  C10 UNL     1      26.568   3.258  50.386  1.00  0.00     0.119 A 
HETATM    7  C11 UNL     1      25.679   3.500  49.383  1.00  0.00     0.031 A 
HETATM    8  C12 UNL     1      24.333   3.174  49.703  1.00  0.00     0.009 A 
HETATM    9  C18 UNL     1      24.549   2.727  50.989  1.00  0.00     0.096 A 
ENDROOT
BRANCH   8  10
HETATM   10  C13 UNL     1      23.144   3.249  48.872  1.00  0.00     0.290 C 
HETATM   11  N4  UNL     1      22.757   2.260  47.958  1.00  0.00     0.094 NA
HETATM   12  C14 UNL     1      21.270   2.126  48.034  1.00  0.00     0.272 C 
HETATM   13  H11 UNL     1      22.779   2.595  46.931  1.00  0.00     0.316 HD
HETATM   14  C15 UNL     1      20.664   3.455  47.628  1.00  0.00     0.067 C 
HETATM   15  C16 UNL     1      21.187   4.618  48.437  1.00  0.00     0.254 C 
HETATM   16  C17 UNL     1      22.708   4.647  48.482  1.00  0.00     0.288 C 
BRANCH  15  17
HETATM   17  N5  UNL     1      20.585   5.836  48.016  1.00  0.00     0.085 N 
HETATM   18  H17 UNL     1      21.265   6.511  47.557  1.00  0.00     0.313 HD
HETATM   19  H18 UNL     1      20.206   6.351  48.843  1.00  0.00     0.313 HD
ENDBRANCH  15  17
BRANCH  16  20
HETATM   20  N6  UNL     1      23.118   5.613  49.452  1.00  0.00     0.087 N 
HETATM   21  H20 UNL     1      23.426   6.536  49.070  1.00  0.00     0.313 HD
HETATM   22  H21 UNL     1      22.422   5.809  50.197  1.00  0.00     0.313 HD
ENDBRANCH  16  20
ENDBRANCH   8  10
BRANCH   1  23
HETATM   23  C7  UNL     1      22.282   2.076  51.779  1.00  0.00     0.002 A 
HETATM   24  C2  UNL     1      21.167   2.881  51.737  1.00  0.00    -0.032 A 
HETATM   25  C1  UNL     1      21.603   4.246  52.165  1.00  0.00     0.050 C 
HETATM   26  C3  UNL     1      19.932   2.400  51.367  1.00  0.00     0.017 A 
HETATM   27 BR1  UNL     1      18.574   3.729  51.398  1.00  0.00    -0.051 Br
HETATM   28  C4  UNL     1      19.771   1.074  51.021  1.00  0.00     0.019 A 
HETATM   29  C5  UNL     1      20.865   0.222  51.047  1.00  0.00     0.002 A 
HETATM   30  C6  UNL     1      22.103   0.722  51.423  1.00  0.00     0.014 A 
ENDBRANCH   1  23
TORSDOF 4
ENDMDL
MODEL 9
REMARK VINA RESULT:      -6.4      9.793     11.640
REMARK  4 active torsions:
REMARK  status: ('A' for Active; 'I' for Inactive)
REMARK    1  A    between atoms: C7_8  and  C8_9 
REMARK    2  A    between atoms: C12_16  and  C13_17 
REMARK    3  A    between atoms: C16_21  and  N5_22 
REMARK    4  A    between atoms: C17_23  and  N6_24 
ROOT
HETATM    1  C8  UNL     1      32.348   5.034  47.359  1.00  0.00     0.098 A 
HETATM    2  N1  UNL     1      32.390   3.972  48.167  1.00  0.00    -0.237 NA
HETATM    3  C9  UNL     1      33.192   2.920  47.827  1.00  0.00     0.256 A 
HETATM    4  N2  UNL     1      33.885   3.023  46.702  1.00  0.00    -0.161 NA
HETATM    5  N3  UNL     1      33.808   4.093  45.931  1.00  0.00    -0.241 N 
HETATM    6  C10 UNL     1      34.425   4.299  44.757  1.00  0.00     0.119 A 
HETATM    7  C11 UNL     1      33.991   5.523  44.346  1.00  0.00     0.031 A 
HETATM    8  C12 UNL     1      33.079   6.151  45.237  1.00  0.00     0.009 A 
HETATM    9  C18 UNL     1      33.045   5.163  46.197  1.00  0.00     0.096 A 
ENDROOT
BRANCH   8  10
HETATM   10  C13 UNL     1      32.382   7.418  45.101  1.00  0.00     0.290 C 
HETATM   11  N4  UNL     1      31.186   7.586  44.390  1.00  0.00     0.094 NA
HETATM   12  C14 UNL     1      30.326   8.534  45.162  1.00  0.00     0.272 C 
HETATM   13  H11 UNL     1      31.290   8.224  43.523  1.00  0.00     0.316 HD
HETATM   14  C15 UNL     1      31.056   9.860  45.245  1.00  0.00     0.067 C 
HETATM   15  C16 UNL     1      32.448   9.736  45.818  1.00  0.00     0.254 C 
HETATM   16  C17 UNL     1      33.260   8.652  45.122  1.00  0.00     0.288 C 
BRANCH  15  17
HETATM   17  N5  UNL     1      33.086  11.007  45.873  1.00  0.00     0.085 N 
HETATM   18  H17 UNL     1      34.034  11.030  45.396  1.00  0.00     0.313 HD
HETATM   19  H18 UNL     1      33.273  11.267  46.868  1.00  0.00     0.313 HD
ENDBRANCH  15  17
BRANCH  16  20
HETATM   20  N6  UNL     1      34.458   8.430  45.868  1.00  0.00     0.087 N 
HETATM   21  H20 UNL     1      34.763   9.219  46.482  1.00  0.00     0.313 HD
HETATM   22  H21 UNL     1      34.457   7.573  46.454  1.00  0.00     0.313 HD
ENDBRANCH  16  20
ENDBRANCH   8  10
BRANCH   1  23
HETATM   23  C7  UNL     1      31.469   6.050  47.904  1.00  0.00     0.002 A 
HETATM   24  C2  UNL     1      31.559   7.300  48.475  1.00  0.00    -0.032 A 
HETATM   25  C1  UNL     1      33.007   7.545  48.754  1.00  0.00     0.050 C 
HETATM   26  C3  UNL     1      30.448   8.078  48.706  1.00  0.00     0.017 A 
HETATM   27 BR1  UNL     1      30.864   9.754  49.500  1.00  0.00    -0.051 Br
HETATM   28  C4  UNL     1      29.190   7.623  48.368  1.00  0.00     0.019 A 
HETATM   29  C5  UNL     1      29.047   6.370  47.792  1.00  0.00     0.002 A 
HETATM   30  C6  UNL     1      30.177   5.597  47.565  1.00  0.00     0.014 A 
ENDBRANCH   1  23
TORSDOF 4
ENDMDL
