MODEL 1
REMARK VINA RESULT:      -9.2      0.000      0.000
REMARK  4 active torsions:
REMARK  status: ('A' for Active; 'I' for Inactive)
REMARK       I    between atoms: C1_2  and  N1_3 
REMARK    1  A    between atoms: C1_2  and  C18_24 
REMARK    2  A    between atoms: N1_3  and  C2_4 
REMARK    3  A    between atoms: N2_8  and  C6_9 
REMARK    4  A    between atoms: C9_13  and  C10_14 
ROOT
HETATM    1  C2  UNL     1      23.790   0.019  53.435  1.00  0.00     0.015 C 
HETATM    2  C3  UNL     1      23.131  -0.715  54.329  1.00  0.00     0.027 C 
HETATM    3  C4  UNL     1      21.700  -0.788  54.687  1.00  0.00     0.020 C 
HETATM    4  C5  UNL     1      20.563  -0.551  54.018  1.00  0.00     0.115 C 
HETATM    5  N2  UNL     1      20.314  -0.134  52.681  1.00  0.00    -0.165 N 
HETATM    6  C15 UNL     1      21.113   0.309  51.581  1.00  0.00     0.111 C 
HETATM    7  C16 UNL     1      22.367   0.765  51.550  1.00  0.00    -0.003 C 
HETATM    8  C17 UNL     1      23.518   1.057  52.409  1.00  0.00     0.085 C 
ENDROOT
BRANCH   5   9
HETATM    9  C6  UNL     1      18.921  -0.178  52.389  1.00  0.00     0.732 A 
HETATM   10  N3  UNL     1      18.368   0.913  51.829  1.00  0.00    -0.074 NA
HETATM   11  C7  UNL     1      17.039   0.948  51.519  1.00  0.00     0.139 A 
HETATM   12  C8  UNL     1      16.311  -0.184  51.810  1.00  0.00     0.053 A 
HETATM   13  C9  UNL     1      16.851  -1.314  52.383  1.00  0.00     0.089 A 
HETATM   14  N5  UNL     1      18.167  -1.265  52.656  1.00  0.00    -0.062 NA
BRANCH  13  15
HETATM   15  C10 UNL     1      16.108  -2.526  52.702  1.00  0.00     0.011 A 
HETATM   16  C11 UNL     1      16.796  -3.532  53.346  1.00  0.00     0.017 A 
HETATM   17  C12 UNL     1      16.161  -4.712  53.683  1.00  0.00     0.020 A 
HETATM   18  C13 UNL     1      14.833  -4.857  53.363  1.00  0.00     0.116 A 
HETATM   19  N4  UNL     1      14.190  -3.861  52.737  1.00  0.00    -0.272 NA
HETATM   20  C14 UNL     1      14.780  -2.686  52.389  1.00  0.00     0.130 A 
ENDBRANCH  13  15
ENDBRANCH   5   9
BRANCH   1  21
HETATM   21  N1  UNL     1      25.182  -0.350  53.544  1.00  0.00    -0.330 N 
HETATM   22  C1  UNL     1      26.101   0.615  54.032  1.00  0.00     0.226 C 
HETATM   23  O1  UNL     1      25.575   1.736  54.327  1.00  0.00    -0.273 OA
HETATM   24  H1  UNL     1      25.378  -1.346  53.237  1.00  0.00     0.168 HD
BRANCH  22  25
HETATM   25  C18 UNL     1      27.510   0.173  54.120  1.00  0.00     0.078 C 
HETATM   26  C19 UNL     1      27.749  -1.007  53.171  1.00  0.00     0.014 C 
HETATM   27  C20 UNL     1      29.114  -1.575  53.381  1.00  0.00     0.001 C 
HETATM   28  C21 UNL     1      30.160  -0.520  53.173  1.00  0.00     0.000 C 
HETATM   29  C22 UNL     1      29.865   0.760  53.913  1.00  0.00     0.001 C 
HETATM   30  C23 UNL     1      28.468   1.261  53.664  1.00  0.00     0.014 C 
ENDBRANCH  22  25
ENDBRANCH   1  21
TORSDOF 4
ENDMDL
MODEL 2
REMARK VINA RESULT:      -9.1      6.699      8.761
REMARK  4 active torsions:
REMARK  status: ('A' for Active; 'I' for Inactive)
REMARK       I    between atoms: C1_2  and  N1_3 
REMARK    1  A    between atoms: C1_2  and  C18_24 
REMARK    2  A    between atoms: N1_3  and  C2_4 
REMARK    3  A    between atoms: N2_8  and  C6_9 
REMARK    4  A    between atoms: C9_13  and  C10_14 
ROOT
HETATM    1  C2  UNL     1      26.212   6.875  49.731  1.00  0.00     0.015 C 
HETATM    2  C3  UNL     1      25.132   7.161  50.456  1.00  0.00     0.027 C 
HETATM    3  C4  UNL     1      23.850   6.452  50.643  1.00  0.00     0.020 C 
HETATM    4  C5  UNL     1      23.484   5.164  50.576  1.00  0.00     0.115 C 
HETATM    5  N2  UNL     1      24.217   3.979  50.291  1.00  0.00    -0.165 N 
HETATM    6  C15 UNL     1      25.546   3.676  49.857  1.00  0.00     0.111 C 
HETATM    7  C16 UNL     1      26.466   4.452  49.281  1.00  0.00    -0.003 C 
HETATM    8  C17 UNL     1      26.702   5.820  48.809  1.00  0.00     0.085 C 
ENDROOT
BRANCH   5   9
HETATM    9  C6  UNL     1      23.411   2.824  50.497  1.00  0.00     0.732 A 
HETATM   10  N3  UNL     1      22.515   2.511  49.543  1.00  0.00    -0.074 NA
HETATM   11  C7  UNL     1      21.706   1.418  49.668  1.00  0.00     0.139 A 
HETATM   12  C8  UNL     1      21.862   0.668  50.813  1.00  0.00     0.053 A 
HETATM   13  C9  UNL     1      22.770   0.965  51.804  1.00  0.00     0.089 A 
HETATM   14  N5  UNL     1      23.527   2.058  51.602  1.00  0.00    -0.062 NA
BRANCH  13  15
HETATM   15  C10 UNL     1      22.957   0.190  53.024  1.00  0.00     0.011 A 
HETATM   16  C11 UNL     1      21.821  -0.179  53.713  1.00  0.00     0.017 A 
HETATM   17  C12 UNL     1      21.915  -0.915  54.878  1.00  0.00     0.020 A 
HETATM   18  C13 UNL     1      23.162  -1.269  55.332  1.00  0.00     0.116 A 
HETATM   19  N4  UNL     1      24.249  -0.896  54.641  1.00  0.00    -0.272 NA
HETATM   20  C14 UNL     1      24.197  -0.172  53.491  1.00  0.00     0.130 A 
ENDBRANCH  13  15
ENDBRANCH   5   9
BRANCH   1  21
HETATM   21  N1  UNL     1      27.151   7.949  49.949  1.00  0.00    -0.330 N 
HETATM   22  C1  UNL     1      27.161   9.034  49.035  1.00  0.00     0.226 C 
HETATM   23  O1  UNL     1      26.310   8.933  48.093  1.00  0.00    -0.273 OA
HETATM   24  H1  UNL     1      27.760   7.809  50.807  1.00  0.00     0.168 HD
BRANCH  22  25
HETATM   25  C18 UNL     1      28.145  10.102  49.316  1.00  0.00     0.078 C 
HETATM   26  C19 UNL     1      29.545   9.650  48.884  1.00  0.00     0.014 C 
HETATM   27  C20 UNL     1      30.571  10.643  49.323  1.00  0.00     0.001 C 
HETATM   28  C21 UNL     1      30.265  11.998  48.759  1.00  0.00     0.000 C 
HETATM   29  C22 UNL     1      28.829  12.412  48.958  1.00  0.00     0.001 C 
HETATM   30  C23 UNL     1      27.857  11.357  48.507  1.00  0.00     0.014 C 
ENDBRANCH  22  25
ENDBRANCH   1  21
TORSDOF 4
ENDMDL
MODEL 3
REMARK VINA RESULT:      -9.0      3.317      4.275
REMARK  4 active torsions:
REMARK  status: ('A' for Active; 'I' for Inactive)
REMARK       I    between atoms: C1_2  and  N1_3 
REMARK    1  A    between atoms: C1_2  and  C18_24 
REMARK    2  A    between atoms: N1_3  and  C2_4 
REMARK    3  A    between atoms: N2_8  and  C6_9 
REMARK    4  A    between atoms: C9_13  and  C10_14 
ROOT
HETATM    1  C2  UNL     1      24.153   1.675  53.279  1.00  0.00     0.015 C 
HETATM    2  C3  UNL     1      23.206   0.745  53.167  1.00  0.00     0.027 C 
HETATM    3  C4  UNL     1      21.740   0.840  53.024  1.00  0.00     0.020 C 
HETATM    4  C5  UNL     1      20.915   1.765  52.514  1.00  0.00     0.115 C 
HETATM    5  N2  UNL     1      21.160   3.028  51.906  1.00  0.00    -0.165 N 
HETATM    6  C15 UNL     1      22.303   3.863  51.704  1.00  0.00     0.111 C 
HETATM    7  C16 UNL     1      23.498   3.853  52.300  1.00  0.00    -0.003 C 
HETATM    8  C17 UNL     1      24.281   3.154  53.322  1.00  0.00     0.085 C 
ENDROOT
BRANCH   5   9
HETATM    9  C6  UNL     1      19.957   3.576  51.375  1.00  0.00     0.732 A 
HETATM   10  N3  UNL     1      20.068   4.455  50.362  1.00  0.00    -0.074 NA
HETATM   11  C7  UNL     1      18.961   5.024  49.801  1.00  0.00     0.139 A 
HETATM   12  C8  UNL     1      17.744   4.648  50.326  1.00  0.00     0.053 A 
HETATM   13  C9  UNL     1      17.603   3.752  51.361  1.00  0.00     0.089 A 
HETATM   14  N5  UNL     1      18.743   3.238  51.858  1.00  0.00    -0.062 NA
BRANCH  13  15
HETATM   15  C10 UNL     1      16.331   3.335  51.938  1.00  0.00     0.011 A 
HETATM   16  C11 UNL     1      15.619   4.285  52.639  1.00  0.00     0.017 A 
HETATM   17  C12 UNL     1      14.404   3.968  53.215  1.00  0.00     0.020 A 
HETATM   18  C13 UNL     1      13.924   2.689  53.072  1.00  0.00     0.116 A 
HETATM   19  N4  UNL     1      14.638   1.786  52.384  1.00  0.00    -0.272 NA
HETATM   20  C14 UNL     1      15.837   2.060  51.804  1.00  0.00     0.130 A 
ENDBRANCH  13  15
ENDBRANCH   5   9
BRANCH   1  21
HETATM   21  N1  UNL     1      25.409   0.972  53.390  1.00  0.00    -0.330 N 
HETATM   22  C1  UNL     1      26.268   0.942  52.261  1.00  0.00     0.226 C 
HETATM   23  O1  UNL     1      25.817   1.561  51.243  1.00  0.00    -0.273 OA
HETATM   24  H1  UNL     1      25.564   0.534  54.343  1.00  0.00     0.168 HD
BRANCH  22  25
HETATM   25  C18 UNL     1      27.540   0.208  52.440  1.00  0.00     0.078 C 
HETATM   26  C19 UNL     1      28.400   0.901  53.502  1.00  0.00     0.014 C 
HETATM   27  C20 UNL     1      29.755   0.276  53.564  1.00  0.00     0.001 C 
HETATM   28  C21 UNL     1      29.643  -1.190  53.862  1.00  0.00     0.000 C 
HETATM   29  C22 UNL     1      28.638  -1.896  52.988  1.00  0.00     0.001 C 
HETATM   30  C23 UNL     1      27.304  -1.200  52.964  1.00  0.00     0.014 C 
ENDBRANCH  22  25
ENDBRANCH   1  21
TORSDOF 4
ENDMDL
MODEL 4
REMARK VINA RESULT:      -8.9      6.574     12.177
REMARK  4 active torsions:
REMARK  status: ('A' for Active; 'I' for Inactive)
REMARK       I    between atoms: C1_2  and  N1_3 
REMARK    1  A    between atoms: C1_2  and  C18_24 
REMARK    2  A    between atoms: N1_3  and  C2_4 
REMARK    3  A    between atoms: N2_8  and  C6_9 
REMARK    4  A    between atoms: C9_13  and  C10_14 
ROOT
HETATM    1  C2  UNL     1      24.310   3.311  51.084  1.00  0.00     0.015 C 
HETATM    2  C3  UNL     1      25.462   2.717  50.776  1.00  0.00     0.027 C 
HETATM    3  C4  UNL     1      26.493   3.023  49.765  1.00  0.00     0.020 C 
HETATM    4  C5  UNL     1      26.893   4.150  49.160  1.00  0.00     0.115 C 
HETATM    5  N2  UNL     1      26.459   5.500  49.278  1.00  0.00    -0.165 N 
HETATM    6  C15 UNL     1      25.394   6.179  49.949  1.00  0.00     0.111 C 
HETATM    7  C16 UNL     1      24.256   5.708  50.463  1.00  0.00    -0.003 C 
HETATM    8  C17 UNL     1      23.491   4.472  50.654  1.00  0.00     0.085 C 
ENDROOT
BRANCH   5   9
HETATM    9  C6  UNL     1      27.309   6.371  48.538  1.00  0.00     0.732 A 
HETATM   10  N3  UNL     1      26.799   7.553  48.145  1.00  0.00    -0.074 NA
HETATM   11  C7  UNL     1      27.551   8.442  47.432  1.00  0.00     0.139 A 
HETATM   12  C8  UNL     1      28.844   8.060  47.145  1.00  0.00     0.053 A 
HETATM   13  C9  UNL     1      29.390   6.858  47.535  1.00  0.00     0.089 A 
HETATM   14  N5  UNL     1      28.582   6.041  48.233  1.00  0.00    -0.062 NA
BRANCH  13  15
HETATM   15  C10 UNL     1      30.752   6.428  47.247  1.00  0.00     0.011 A 
HETATM   16  C11 UNL     1      31.137   5.197  47.737  1.00  0.00     0.017 A 
HETATM   17  C12 UNL     1      32.413   4.719  47.506  1.00  0.00     0.020 A 
HETATM   18  C13 UNL     1      33.283   5.493  46.779  1.00  0.00     0.116 A 
HETATM   19  N4  UNL     1      32.880   6.685  46.315  1.00  0.00    -0.272 NA
HETATM   20  C14 UNL     1      31.635   7.190  46.522  1.00  0.00     0.130 A 
ENDBRANCH  13  15
ENDBRANCH   5   9
BRANCH   1  21
HETATM   21  N1  UNL     1      23.732   2.551  52.167  1.00  0.00    -0.330 N 
HETATM   22  C1  UNL     1      22.868   1.472  51.849  1.00  0.00     0.226 C 
HETATM   23  O1  UNL     1      22.695   1.289  50.601  1.00  0.00    -0.273 OA
HETATM   24  H1  UNL     1      24.027   2.895  53.127  1.00  0.00     0.168 HD
BRANCH  22  25
HETATM   25  C18 UNL     1      22.310   0.734  53.004  1.00  0.00     0.078 C 
HETATM   26  C19 UNL     1      21.008   0.033  52.597  1.00  0.00     0.014 C 
HETATM   27  C20 UNL     1      20.344  -0.566  53.794  1.00  0.00     0.001 C 
HETATM   28  C21 UNL     1      21.264  -1.533  54.476  1.00  0.00     0.000 C 
HETATM   29  C22 UNL     1      22.645  -0.973  54.708  1.00  0.00     0.001 C 
HETATM   30  C23 UNL     1      23.242  -0.376  53.463  1.00  0.00     0.014 C 
ENDBRANCH  22  25
ENDBRANCH   1  21
TORSDOF 4
ENDMDL
MODEL 5
REMARK VINA RESULT:      -8.9      5.933     12.204
REMARK  4 active torsions:
REMARK  status: ('A' for Active; 'I' for Inactive)
REMARK       I    between atoms: C1_2  and  N1_3 
REMARK    1  A    between atoms: C1_2  and  C18_24 
REMARK    2  A    between atoms: N1_3  and  C2_4 
REMARK    3  A    between atoms: N2_8  and  C6_9 
REMARK    4  A    between atoms: C9_13  and  C10_14 
ROOT
HETATM    1  C2  UNL     1      23.740   2.682  50.554  1.00  0.00     0.015 C 
HETATM    2  C3  UNL     1      23.234   3.576  49.706  1.00  0.00     0.027 C 
HETATM    3  C4  UNL     1      23.775   4.837  49.161  1.00  0.00     0.020 C 
HETATM    4  C5  UNL     1      25.014   5.292  48.927  1.00  0.00     0.115 C 
HETATM    5  N2  UNL     1      26.296   4.706  49.124  1.00  0.00    -0.165 N 
HETATM    6  C15 UNL     1      26.795   3.513  49.734  1.00  0.00     0.111 C 
HETATM    7  C16 UNL     1      26.216   2.677  50.600  1.00  0.00    -0.003 C 
HETATM    8  C17 UNL     1      24.975   2.453  51.346  1.00  0.00     0.085 C 
ENDROOT
BRANCH   5   9
HETATM    9  C6  UNL     1      27.318   5.528  48.569  1.00  0.00     0.732 A 
HETATM   10  N3  UNL     1      26.956   6.729  48.081  1.00  0.00    -0.074 NA
HETATM   11  C7  UNL     1      27.878   7.573  47.533  1.00  0.00     0.139 A 
HETATM   12  C8  UNL     1      29.181   7.126  47.510  1.00  0.00     0.053 A 
HETATM   13  C9  UNL     1      29.579   5.904  48.002  1.00  0.00     0.089 A 
HETATM   14  N5  UNL     1      28.608   5.133  48.525  1.00  0.00    -0.062 NA
BRANCH  13  15
HETATM   15  C10 UNL     1      30.948   5.405  47.992  1.00  0.00     0.011 A 
HETATM   16  C11 UNL     1      31.214   4.320  47.183  1.00  0.00     0.017 A 
HETATM   17  C12 UNL     1      32.488   3.789  47.119  1.00  0.00     0.020 A 
HETATM   18  C13 UNL     1      33.479   4.365  47.876  1.00  0.00     0.116 A 
HETATM   19  N4  UNL     1      33.190   5.419  48.653  1.00  0.00    -0.272 NA
HETATM   20  C14 UNL     1      31.949   5.970  48.744  1.00  0.00     0.130 A 
ENDBRANCH  13  15
ENDBRANCH   5   9
BRANCH   1  21
HETATM   21  N1  UNL     1      22.741   1.651  50.710  1.00  0.00    -0.330 N 
HETATM   22  C1  UNL     1      21.807   1.770  51.771  1.00  0.00     0.226 C 
HETATM   23  O1  UNL     1      21.962   2.809  52.491  1.00  0.00    -0.273 OA
HETATM   24  H1  UNL     1      22.813   0.882  49.983  1.00  0.00     0.168 HD
BRANCH  22  25
HETATM   25  C18 UNL     1      20.810   0.682  51.875  1.00  0.00     0.078 C 
HETATM   26  C19 UNL     1      20.496   0.399  53.348  1.00  0.00     0.014 C 
HETATM   27  C20 UNL     1      19.629  -0.812  53.472  1.00  0.00     0.001 C 
HETATM   28  C21 UNL     1      18.360  -0.630  52.696  1.00  0.00     0.000 C 
HETATM   29  C22 UNL     1      18.590  -0.133  51.291  1.00  0.00     0.001 C 
HETATM   30  C23 UNL     1      19.483   1.077  51.246  1.00  0.00     0.014 C 
ENDBRANCH  22  25
ENDBRANCH   1  21
TORSDOF 4
ENDMDL
MODEL 6
REMARK VINA RESULT:      -8.8      6.597     10.245
REMARK  4 active torsions:
REMARK  status: ('A' for Active; 'I' for Inactive)
REMARK       I    between atoms: C1_2  and  N1_3 
REMARK    1  A    between atoms: C1_2  and  C18_24 
REMARK    2  A    between atoms: N1_3  and  C2_4 
REMARK    3  A    between atoms: N2_8  and  C6_9 
REMARK    4  A    between atoms: C9_13  and  C10_14 
ROOT
HETATM    1  C2  UNL     1      25.660   6.305  49.256  1.00  0.00     0.015 C 
HETATM    2  C3  UNL     1      26.418   5.331  48.755  1.00  0.00     0.027 C 
HETATM    3  C4  UNL     1      26.872   4.043  49.318  1.00  0.00     0.020 C 
HETATM    4  C5  UNL     1      26.375   3.206  50.239  1.00  0.00     0.115 C 
HETATM    5  N2  UNL     1      25.194   3.254  51.030  1.00  0.00    -0.165 N 
HETATM    6  C15 UNL     1      24.158   4.210  51.269  1.00  0.00     0.111 C 
HETATM    7  C16 UNL     1      24.124   5.525  51.035  1.00  0.00    -0.003 C 
HETATM    8  C17 UNL     1      24.924   6.631  50.503  1.00  0.00     0.085 C 
ENDROOT
BRANCH   5   9
HETATM    9  C6  UNL     1      25.020   2.039  51.754  1.00  0.00     0.732 A 
HETATM   10  N3  UNL     1      23.789   1.763  52.221  1.00  0.00    -0.074 NA
HETATM   11  C7  UNL     1      23.543   0.619  52.924  1.00  0.00     0.139 A 
HETATM   12  C8  UNL     1      24.617  -0.222  53.123  1.00  0.00     0.053 A 
HETATM   13  C9  UNL     1      25.886   0.037  52.657  1.00  0.00     0.089 A 
HETATM   14  N5  UNL     1      26.042   1.185  51.974  1.00  0.00    -0.062 NA
BRANCH  13  15
HETATM   15  C10 UNL     1      27.040  -0.832  52.851  1.00  0.00     0.011 A 
HETATM   16  C11 UNL     1      28.197  -0.243  53.316  1.00  0.00     0.017 A 
HETATM   17  C12 UNL     1      29.333  -1.000  53.526  1.00  0.00     0.020 A 
HETATM   18  C13 UNL     1      29.283  -2.347  53.263  1.00  0.00     0.116 A 
HETATM   19  N4  UNL     1      28.144  -2.892  52.812  1.00  0.00    -0.272 NA
HETATM   20  C14 UNL     1      27.006  -2.180  52.592  1.00  0.00     0.130 A 
ENDBRANCH  13  15
ENDBRANCH   5   9
BRANCH   1  21
HETATM   21  N1  UNL     1      25.563   7.318  48.233  1.00  0.00    -0.330 N 
HETATM   22  C1  UNL     1      26.590   8.293  48.146  1.00  0.00     0.226 C 
HETATM   23  O1  UNL     1      27.514   8.158  49.011  1.00  0.00    -0.273 OA
HETATM   24  H1  UNL     1      24.696   7.222  47.627  1.00  0.00     0.168 HD
BRANCH  22  25
HETATM   25  C18 UNL     1      26.431   9.301  47.075  1.00  0.00     0.078 C 
HETATM   26  C19 UNL     1      26.310   8.605  45.714  1.00  0.00     0.014 C 
HETATM   27  C20 UNL     1      26.329   9.612  44.612  1.00  0.00     0.001 C 
HETATM   28  C21 UNL     1      25.218  10.604  44.788  1.00  0.00     0.000 C 
HETATM   29  C22 UNL     1      25.144  11.167  46.184  1.00  0.00     0.001 C 
HETATM   30  C23 UNL     1      25.145  10.094  47.239  1.00  0.00     0.014 C 
ENDBRANCH  22  25
ENDBRANCH   1  21
TORSDOF 4
ENDMDL
MODEL 7
REMARK VINA RESULT:      -8.8      3.295      4.671
REMARK  4 active torsions:
REMARK  status: ('A' for Active; 'I' for Inactive)
REMARK       I    between atoms: C1_2  and  N1_3 
REMARK    1  A    between atoms: C1_2  and  C18_24 
REMARK    2  A    between atoms: N1_3  and  C2_4 
REMARK    3  A    between atoms: N2_8  and  C6_9 
REMARK    4  A    between atoms: C9_13  and  C10_14 
ROOT
HETATM    1  C2  UNL     1      21.730   1.240  52.118  1.00  0.00     0.015 C 
HETATM    2  C3  UNL     1      21.636   2.509  52.510  1.00  0.00     0.027 C 
HETATM    3  C4  UNL     1      20.693   3.587  52.153  1.00  0.00     0.020 C 
HETATM    4  C5  UNL     1      19.420   3.606  51.734  1.00  0.00     0.115 C 
HETATM    5  N2  UNL     1      18.488   2.563  51.476  1.00  0.00    -0.165 N 
HETATM    6  C15 UNL     1      18.535   1.134  51.429  1.00  0.00     0.111 C 
HETATM    7  C16 UNL     1      19.577   0.306  51.324  1.00  0.00    -0.003 C 
HETATM    8  C17 UNL     1      21.039   0.287  51.214  1.00  0.00     0.085 C 
ENDROOT
BRANCH   5   9
HETATM    9  C6  UNL     1      17.196   3.095  51.200  1.00  0.00     0.732 A 
HETATM   10  N3  UNL     1      17.026   3.746  50.035  1.00  0.00    -0.074 NA
HETATM   11  C7  UNL     1      15.818   4.284  49.699  1.00  0.00     0.139 A 
HETATM   12  C8  UNL     1      14.799   4.123  50.612  1.00  0.00     0.053 A 
HETATM   13  C9  UNL     1      14.945   3.462  51.811  1.00  0.00     0.089 A 
HETATM   14  N5  UNL     1      16.168   2.962  52.064  1.00  0.00    -0.062 NA
BRANCH  13  15
HETATM   15  C10 UNL     1      13.887   3.275  52.796  1.00  0.00     0.011 A 
HETATM   16  C11 UNL     1      13.317   4.413  53.328  1.00  0.00     0.017 A 
HETATM   17  C12 UNL     1      12.308   4.319  54.266  1.00  0.00     0.020 A 
HETATM   18  C13 UNL     1      11.887   3.071  54.655  1.00  0.00     0.116 A 
HETATM   19  N4  UNL     1      12.459   1.982  54.120  1.00  0.00    -0.272 NA
HETATM   20  C14 UNL     1      13.455   2.034  53.195  1.00  0.00     0.130 A 
ENDBRANCH  13  15
ENDBRANCH   5   9
BRANCH   1  21
HETATM   21  N1  UNL     1      22.861   0.676  52.815  1.00  0.00    -0.330 N 
HETATM   22  C1  UNL     1      24.158   0.880  52.275  1.00  0.00     0.226 C 
HETATM   23  O1  UNL     1      24.176   1.561  51.199  1.00  0.00    -0.273 OA
HETATM   24  H1  UNL     1      22.593   0.147  53.694  1.00  0.00     0.168 HD
BRANCH  22  25
HETATM   25  C18 UNL     1      25.273   0.277  53.037  1.00  0.00     0.078 C 
HETATM   26  C19 UNL     1      26.387  -0.160  52.078  1.00  0.00     0.014 C 
HETATM   27  C20 UNL     1      27.435  -0.928  52.814  1.00  0.00     0.001 C 
HETATM   28  C21 UNL     1      28.004  -0.103  53.929  1.00  0.00     0.000 C 
HETATM   29  C22 UNL     1      26.946   0.543  54.788  1.00  0.00     0.001 C 
HETATM   30  C23 UNL     1      25.919   1.284  53.976  1.00  0.00     0.014 C 
ENDBRANCH  22  25
ENDBRANCH   1  21
TORSDOF 4
ENDMDL
MODEL 8
REMARK VINA RESULT:      -8.6      1.626      3.778
REMARK  4 active torsions:
REMARK  status: ('A' for Active; 'I' for Inactive)
REMARK       I    between atoms: C1_2  and  N1_3 
REMARK    1  A    between atoms: C1_2  and  C18_24 
REMARK    2  A    between atoms: N1_3  and  C2_4 
REMARK    3  A    between atoms: N2_8  and  C6_9 
REMARK    4  A    between atoms: C9_13  and  C10_14 
ROOT
HETATM    1  C2  UNL     1      23.632   0.001  53.337  1.00  0.00     0.015 C 
HETATM    2  C3  UNL     1      22.930  -0.631  54.275  1.00  0.00     0.027 C 
HETATM    3  C4  UNL     1      21.501  -0.580  54.644  1.00  0.00     0.020 C 
HETATM    4  C5  UNL     1      20.378  -0.303  53.967  1.00  0.00     0.115 C 
HETATM    5  N2  UNL     1      20.147   0.051  52.609  1.00  0.00    -0.165 N 
HETATM    6  C15 UNL     1      20.965   0.372  51.480  1.00  0.00     0.111 C 
HETATM    7  C16 UNL     1      22.248   0.735  51.417  1.00  0.00    -0.003 C 
HETATM    8  C17 UNL     1      23.425   0.994  52.252  1.00  0.00     0.085 C 
ENDROOT
BRANCH   5   9
HETATM    9  C6  UNL     1      18.752   0.090  52.326  1.00  0.00     0.732 A 
HETATM   10  N3  UNL     1      18.000  -0.939  52.757  1.00  0.00    -0.074 NA
HETATM   11  C7  UNL     1      16.655  -0.974  52.525  1.00  0.00     0.139 A 
HETATM   12  C8  UNL     1      16.124   0.092  51.832  1.00  0.00     0.053 A 
HETATM   13  C9  UNL     1      16.870   1.157  51.380  1.00  0.00     0.089 A 
HETATM   14  N5  UNL     1      18.187   1.114  51.651  1.00  0.00    -0.062 NA
BRANCH  13  15
HETATM   15  C10 UNL     1      16.338   2.298  50.646  1.00  0.00     0.011 A 
HETATM   16  C11 UNL     1      14.972   2.486  50.684  1.00  0.00     0.017 A 
HETATM   17  C12 UNL     1      14.391   3.545  50.014  1.00  0.00     0.020 A 
HETATM   18  C13 UNL     1      15.202   4.404  49.314  1.00  0.00     0.116 A 
HETATM   19  N4  UNL     1      16.527   4.196  49.295  1.00  0.00    -0.272 NA
HETATM   20  C14 UNL     1      17.136   3.166  49.941  1.00  0.00     0.130 A 
ENDBRANCH  13  15
ENDBRANCH   5   9
BRANCH   1  21
HETATM   21  N1  UNL     1      24.994  -0.459  53.461  1.00  0.00    -0.330 N 
HETATM   22  C1  UNL     1      25.973   0.449  53.942  1.00  0.00     0.226 C 
HETATM   23  O1  UNL     1      25.522   1.607  54.219  1.00  0.00    -0.273 OA
HETATM   24  H1  UNL     1      25.126  -1.470  53.168  1.00  0.00     0.168 HD
BRANCH  22  25
HETATM   25  C18 UNL     1      27.349  -0.086  54.047  1.00  0.00     0.078 C 
HETATM   26  C19 UNL     1      27.554  -1.208  53.023  1.00  0.00     0.014 C 
HETATM   27  C20 UNL     1      28.873  -1.874  53.239  1.00  0.00     0.001 C 
HETATM   28  C21 UNL     1      29.987  -0.875  53.144  1.00  0.00     0.000 C 
HETATM   29  C22 UNL     1      29.741   0.366  53.964  1.00  0.00     0.001 C 
HETATM   30  C23 UNL     1      28.387   0.970  53.704  1.00  0.00     0.014 C 
ENDBRANCH  22  25
ENDBRANCH   1  21
TORSDOF 4
ENDMDL
MODEL 9
REMARK VINA RESULT:      -8.5      4.425      5.771
REMARK  4 active torsions:
REMARK  status: ('A' for Active; 'I' for Inactive)
REMARK       I    between atoms: C1_2  and  N1_3 
REMARK    1  A    between atoms: C1_2  and  C18_24 
REMARK    2  A    between atoms: N1_3  and  C2_4 
REMARK    3  A    between atoms: N2_8  and  C6_9 
REMARK    4  A    between atoms: C9_13  and  C10_14 
ROOT
HETATM    1  C2  UNL     1      24.903   3.638  50.193  1.00  0.00     0.015 C 
HETATM    2  C3  UNL     1      25.517   3.284  51.320  1.00  0.00     0.027 C 
HETATM    3  C4  UNL     1      25.020   2.660  52.563  1.00  0.00     0.020 C 
HETATM    4  C5  UNL     1      23.994   1.845  52.846  1.00  0.00     0.115 C 
HETATM    5  N2  UNL     1      22.983   1.268  52.029  1.00  0.00    -0.165 N 
HETATM    6  C15 UNL     1      22.569   1.396  50.666  1.00  0.00     0.111 C 
HETATM    7  C16 UNL     1      22.829   2.352  49.770  1.00  0.00    -0.003 C 
HETATM    8  C17 UNL     1      23.543   3.620  49.597  1.00  0.00     0.085 C 
ENDROOT
BRANCH   5   9
HETATM    9  C6  UNL     1      22.205   0.335  52.771  1.00  0.00     0.732 A 
HETATM   10  N3  UNL     1      22.822  -0.355  53.748  1.00  0.00    -0.074 NA
HETATM   11  C7  UNL     1      22.143  -1.267  54.503  1.00  0.00     0.139 A 
HETATM   12  C8  UNL     1      20.808  -1.436  54.208  1.00  0.00     0.053 A 
HETATM   13  C9  UNL     1      20.151  -0.744  53.215  1.00  0.00     0.089 A 
HETATM   14  N5  UNL     1      20.894   0.136  52.518  1.00  0.00    -0.062 NA
BRANCH  13  15
HETATM   15  C10 UNL     1      18.742  -0.899  52.880  1.00  0.00     0.011 A 
HETATM   16  C11 UNL     1      18.221  -0.034  51.940  1.00  0.00     0.017 A 
HETATM   17  C12 UNL     1      16.893  -0.119  51.569  1.00  0.00     0.020 A 
HETATM   18  C13 UNL     1      16.107  -1.081  52.155  1.00  0.00     0.116 A 
HETATM   19  N4  UNL     1      16.641  -1.908  53.066  1.00  0.00    -0.272 NA
HETATM   20  C14 UNL     1      17.943  -1.856  53.457  1.00  0.00     0.130 A 
ENDBRANCH  13  15
ENDBRANCH   5   9
BRANCH   1  21
HETATM   21  N1  UNL     1      25.915   4.204  49.332  1.00  0.00    -0.330 N 
HETATM   22  C1  UNL     1      26.087   5.612  49.325  1.00  0.00     0.226 C 
HETATM   23  O1  UNL     1      25.301   6.239  50.107  1.00  0.00    -0.273 OA
HETATM   24  H1  UNL     1      26.446   3.475  48.773  1.00  0.00     0.168 HD
BRANCH  22  25
HETATM   25  C18 UNL     1      27.140   6.126  48.424  1.00  0.00     0.078 C 
HETATM   26  C19 UNL     1      27.479   7.576  48.788  1.00  0.00     0.014 C 
HETATM   27  C20 UNL     1      28.409   8.163  47.777  1.00  0.00     0.001 C 
HETATM   28  C21 UNL     1      29.662   7.346  47.679  1.00  0.00     0.000 C 
HETATM   29  C22 UNL     1      29.396   5.868  47.540  1.00  0.00     0.001 C 
HETATM   30  C23 UNL     1      28.440   5.354  48.583  1.00  0.00     0.014 C 
ENDBRANCH  22  25
ENDBRANCH   1  21
TORSDOF 4
ENDMDL
