MODEL 1
REMARK VINA RESULT:      -7.2      0.000      0.000
REMARK  10 active torsions:
REMARK  status: ('A' for Active; 'I' for Inactive)
REMARK    1  A    between atoms: C2_2  and  O1_3 
REMARK    2  A    between atoms: C3_4  and  O2_5 
REMARK    3  A    between atoms: O2_5  and  C4_6 
REMARK    4  A    between atoms: C6_8  and  C7_9 
REMARK    5  A    between atoms: C6_8  and  C8_11 
REMARK    6  A    between atoms: C7_9  and  O3_10 
REMARK    7  A    between atoms: C8_11  and  C9_13 
REMARK    8  A    between atoms: C9_13  and  C10_14 
REMARK    9  A    between atoms: C10_14  and  C11_15 
REMARK   10  A    between atoms: C14_18  and  O5_19 
ROOT
HETATM    1  C4  UNL     1      23.024   1.773  52.743  1.00  0.00     0.060 C 
HETATM    2  C5  UNL     1      21.516   1.709  52.689  1.00  0.00     0.077 C 
HETATM    3  C6  UNL     1      23.417   2.984  52.403  1.00  0.00     0.040 C 
ENDROOT
BRANCH   3   4
HETATM    4  C7  UNL     1      23.712   4.406  51.996  1.00  0.00     0.209 C 
BRANCH   4   5
HETATM    5  O3  UNL     1      23.910   5.263  53.044  1.00  0.00    -0.396 OA
HETATM    6  H11 UNL     1      24.853   5.569  53.071  1.00  0.00     0.209 HD
ENDBRANCH   4   5
ENDBRANCH   3   4
BRANCH   3   7
HETATM    7  C8  UNL     1      24.845   2.623  52.648  1.00  0.00     0.160 C 
HETATM    8  O4  UNL     1      25.475   2.771  53.756  1.00  0.00    -0.293 OA
BRANCH   7   9
HETATM    9  C9  UNL     1      26.045   2.058  52.015  1.00  0.00     0.088 C 
BRANCH   9  10
HETATM   10  C10 UNL     1      27.147   1.898  53.074  1.00  0.00     0.046 C 
BRANCH  10  11
HETATM   11  C11 UNL     1      27.630   0.481  53.080  1.00  0.00    -0.058 A 
HETATM   12  C12 UNL     1      28.907   0.089  53.512  1.00  0.00     0.010 A 
HETATM   13  C13 UNL     1      29.228  -1.268  53.483  1.00  0.00     0.037 A 
HETATM   14  C14 UNL     1      28.274  -2.174  53.029  1.00  0.00     0.065 A 
HETATM   15  C15 UNL     1      27.049  -1.766  52.618  1.00  0.00     0.037 A 
HETATM   16  C16 UNL     1      26.685  -0.439  52.627  1.00  0.00     0.010 A 
BRANCH  14  17
HETATM   17  O5  UNL     1      28.531  -3.534  52.978  1.00  0.00    -0.361 OA
HETATM   18  H18 UNL     1      27.875  -4.166  52.501  1.00  0.00     0.217 HD
ENDBRANCH  14  17
ENDBRANCH  10  11
ENDBRANCH   9  10
ENDBRANCH   7   9
ENDBRANCH   3   7
BRANCH   1  19
HETATM   19  O2  UNL     1      23.389   0.463  53.150  1.00  0.00    -0.324 OA
BRANCH  19  20
HETATM   20  C3  UNL     1      22.290  -0.344  53.507  1.00  0.00     0.173 C 
HETATM   21  C2  UNL     1      21.854  -1.233  54.388  1.00  0.00     0.061 C 
HETATM   22  C1  UNL     1      20.501  -1.832  54.311  1.00  0.00     0.078 C 
BRANCH  21  23
HETATM   23  O1  UNL     1      22.601  -1.682  55.444  1.00  0.00    -0.363 OA
HETATM   24  H4  UNL     1      23.584  -1.855  55.295  1.00  0.00     0.217 HD
ENDBRANCH  21  23
ENDBRANCH  19  20
ENDBRANCH   1  19
TORSDOF 10
ENDMDL
MODEL 2
REMARK VINA RESULT:      -7.0      2.516      5.701
REMARK  10 active torsions:
REMARK  status: ('A' for Active; 'I' for Inactive)
REMARK    1  A    between atoms: C2_2  and  O1_3 
REMARK    2  A    between atoms: C3_4  and  O2_5 
REMARK    3  A    between atoms: O2_5  and  C4_6 
REMARK    4  A    between atoms: C6_8  and  C7_9 
REMARK    5  A    between atoms: C6_8  and  C8_11 
REMARK    6  A    between atoms: C7_9  and  O3_10 
REMARK    7  A    between atoms: C8_11  and  C9_13 
REMARK    8  A    between atoms: C9_13  and  C10_14 
REMARK    9  A    between atoms: C10_14  and  C11_15 
REMARK   10  A    between atoms: C14_18  and  O5_19 
ROOT
HETATM    1  C4  UNL     1      25.621   3.280  50.772  1.00  0.00     0.060 C 
HETATM    2  C5  UNL     1      26.617   3.748  49.739  1.00  0.00     0.077 C 
HETATM    3  C6  UNL     1      24.734   4.234  50.981  1.00  0.00     0.040 C 
ENDROOT
BRANCH   3   4
HETATM    4  C7  UNL     1      23.801   5.411  51.110  1.00  0.00     0.209 C 
BRANCH   4   5
HETATM    5  O3  UNL     1      24.104   6.260  52.140  1.00  0.00    -0.396 OA
HETATM    6  H11 UNL     1      23.551   6.053  52.936  1.00  0.00     0.209 HD
ENDBRANCH   4   5
ENDBRANCH   3   4
BRANCH   3   7
HETATM    7  C8  UNL     1      23.983   3.369  51.937  1.00  0.00     0.160 C 
HETATM    8  O4  UNL     1      24.085   3.403  53.216  1.00  0.00    -0.293 OA
BRANCH   7   9
HETATM    9  C9  UNL     1      22.985   2.293  52.024  1.00  0.00     0.088 C 
BRANCH   9  10
HETATM   10  C10 UNL     1      23.463   1.242  53.038  1.00  0.00     0.046 C 
BRANCH  10  11
HETATM   11  C11 UNL     1      22.331   0.319  53.370  1.00  0.00    -0.058 A 
HETATM   12  C12 UNL     1      22.438  -0.770  54.248  1.00  0.00     0.010 A 
HETATM   13  C13 UNL     1      21.302  -1.543  54.485  1.00  0.00     0.037 A 
HETATM   14  C14 UNL     1      20.114  -1.206  53.844  1.00  0.00     0.065 A 
HETATM   15  C15 UNL     1      20.040  -0.148  53.001  1.00  0.00     0.037 A 
HETATM   16  C16 UNL     1      21.133   0.645  52.733  1.00  0.00     0.010 A 
BRANCH  14  17
HETATM   17  O5  UNL     1      18.952  -1.933  54.039  1.00  0.00    -0.361 OA
HETATM   18  H18 UNL     1      18.966  -2.959  53.970  1.00  0.00     0.217 HD
ENDBRANCH  14  17
ENDBRANCH  10  11
ENDBRANCH   9  10
ENDBRANCH   7   9
ENDBRANCH   3   7
BRANCH   1  19
HETATM   19  O2  UNL     1      26.074   1.974  51.091  1.00  0.00    -0.324 OA
BRANCH  19  20
HETATM   20  C3  UNL     1      27.146   1.956  52.006  1.00  0.00     0.173 C 
HETATM   21  C2  UNL     1      27.488   2.202  53.262  1.00  0.00     0.061 C 
HETATM   22  C1  UNL     1      28.868   2.005  53.765  1.00  0.00     0.078 C 
BRANCH  21  23
HETATM   23  O1  UNL     1      26.612   2.659  54.210  1.00  0.00    -0.363 OA
HETATM   24  H4  UNL     1      26.932   3.361  54.859  1.00  0.00     0.217 HD
ENDBRANCH  21  23
ENDBRANCH  19  20
ENDBRANCH   1  19
TORSDOF 10
ENDMDL
MODEL 3
REMARK VINA RESULT:      -7.0      2.650      6.301
REMARK  10 active torsions:
REMARK  status: ('A' for Active; 'I' for Inactive)
REMARK    1  A    between atoms: C2_2  and  O1_3 
REMARK    2  A    between atoms: C3_4  and  O2_5 
REMARK    3  A    between atoms: O2_5  and  C4_6 
REMARK    4  A    between atoms: C6_8  and  C7_9 
REMARK    5  A    between atoms: C6_8  and  C8_11 
REMARK    6  A    between atoms: C7_9  and  O3_10 
REMARK    7  A    between atoms: C8_11  and  C9_13 
REMARK    8  A    between atoms: C9_13  and  C10_14 
REMARK    9  A    between atoms: C10_14  and  C11_15 
REMARK   10  A    between atoms: C14_18  and  O5_19 
ROOT
HETATM    1  C4  UNL     1      25.806   3.490  50.442  1.00  0.00     0.060 C 
HETATM    2  C5  UNL     1      26.834   4.128  49.540  1.00  0.00     0.077 C 
HETATM    3  C6  UNL     1      26.423   2.793  51.376  1.00  0.00     0.040 C 
ENDROOT
BRANCH   3   4
HETATM    4  C7  UNL     1      27.267   2.043  52.375  1.00  0.00     0.209 C 
BRANCH   4   5
HETATM    5  O3  UNL     1      27.272   2.589  53.630  1.00  0.00    -0.396 OA
HETATM    6  H11 UNL     1      27.186   1.881  54.319  1.00  0.00     0.209 HD
ENDBRANCH   4   5
ENDBRANCH   3   4
BRANCH   3   7
HETATM    7  C8  UNL     1      25.122   2.435  52.013  1.00  0.00     0.160 C 
HETATM    8  O4  UNL     1      24.583   3.042  53.007  1.00  0.00    -0.293 OA
BRANCH   7   9
HETATM    9  C9  UNL     1      23.996   1.493  51.949  1.00  0.00     0.088 C 
BRANCH   9  10
HETATM   10  C10 UNL     1      24.017   0.596  53.197  1.00  0.00     0.046 C 
BRANCH  10  11
HETATM   11  C11 UNL     1      22.650   0.029  53.427  1.00  0.00    -0.058 A 
HETATM   12  C12 UNL     1      22.394  -1.118  54.194  1.00  0.00     0.010 A 
HETATM   13  C13 UNL     1      21.071  -1.532  54.345  1.00  0.00     0.037 A 
HETATM   14  C14 UNL     1      20.063  -0.797  53.730  1.00  0.00     0.065 A 
HETATM   15  C15 UNL     1      20.340   0.307  52.994  1.00  0.00     0.037 A 
HETATM   16  C16 UNL     1      21.629   0.756  52.815  1.00  0.00     0.010 A 
BRANCH  14  17
HETATM   17  O5  UNL     1      18.730  -1.156  53.842  1.00  0.00    -0.361 OA
HETATM   18  H18 UNL     1      17.996  -0.436  53.804  1.00  0.00     0.217 HD
ENDBRANCH  14  17
ENDBRANCH  10  11
ENDBRANCH   9  10
ENDBRANCH   7   9
ENDBRANCH   3   7
BRANCH   1  19
HETATM   19  O2  UNL     1      24.574   3.923  49.887  1.00  0.00    -0.324 OA
BRANCH  19  20
HETATM   20  C3  UNL     1      24.294   5.283  50.126  1.00  0.00     0.173 C 
HETATM   21  C2  UNL     1      24.066   6.180  51.074  1.00  0.00     0.061 C 
HETATM   22  C1  UNL     1      23.800   7.607  50.774  1.00  0.00     0.078 C 
BRANCH  21  23
HETATM   23  O1  UNL     1      24.053   5.883  52.411  1.00  0.00    -0.363 OA
HETATM   24  H4  UNL     1      24.859   5.424  52.807  1.00  0.00     0.217 HD
ENDBRANCH  21  23
ENDBRANCH  19  20
ENDBRANCH   1  19
TORSDOF 10
ENDMDL
MODEL 4
REMARK VINA RESULT:      -6.9      1.850      4.297
REMARK  10 active torsions:
REMARK  status: ('A' for Active; 'I' for Inactive)
REMARK    1  A    between atoms: C2_2  and  O1_3 
REMARK    2  A    between atoms: C3_4  and  O2_5 
REMARK    3  A    between atoms: O2_5  and  C4_6 
REMARK    4  A    between atoms: C6_8  and  C7_9 
REMARK    5  A    between atoms: C6_8  and  C8_11 
REMARK    6  A    between atoms: C7_9  and  O3_10 
REMARK    7  A    between atoms: C8_11  and  C9_13 
REMARK    8  A    between atoms: C9_13  and  C10_14 
REMARK    9  A    between atoms: C10_14  and  C11_15 
REMARK   10  A    between atoms: C14_18  and  O5_19 
ROOT
HETATM    1  C4  UNL     1      23.699   3.032  50.069  1.00  0.00     0.060 C 
HETATM    2  C5  UNL     1      22.579   3.131  49.062  1.00  0.00     0.077 C 
HETATM    3  C6  UNL     1      23.410   2.089  50.944  1.00  0.00     0.040 C 
ENDROOT
BRANCH   3   4
HETATM    4  C7  UNL     1      22.944   0.987  51.862  1.00  0.00     0.209 C 
BRANCH   4   5
HETATM    5  O3  UNL     1      22.199   1.419  52.926  1.00  0.00    -0.396 OA
HETATM    6  H11 UNL     1      21.321   0.959  52.947  1.00  0.00     0.209 HD
ENDBRANCH   4   5
ENDBRANCH   3   4
BRANCH   3   7
HETATM    7  C8  UNL     1      24.716   2.289  51.638  1.00  0.00     0.160 C 
HETATM    8  O4  UNL     1      24.890   2.930  52.736  1.00  0.00    -0.293 OA
BRANCH   7   9
HETATM    9  C9  UNL     1      26.154   1.993  51.558  1.00  0.00     0.088 C 
BRANCH   9  10
HETATM   10  C10 UNL     1      26.692   1.717  52.970  1.00  0.00     0.046 C 
BRANCH  10  11
HETATM   11  C11 UNL     1      27.313   0.355  53.009  1.00  0.00    -0.058 A 
HETATM   12  C12 UNL     1      28.630   0.104  53.426  1.00  0.00     0.010 A 
HETATM   13  C13 UNL     1      29.082  -1.215  53.432  1.00  0.00     0.037 A 
HETATM   14  C14 UNL     1      28.215  -2.224  53.025  1.00  0.00     0.065 A 
HETATM   15  C15 UNL     1      26.949  -1.952  52.627  1.00  0.00     0.037 A 
HETATM   16  C16 UNL     1      26.455  -0.667  52.603  1.00  0.00     0.010 A 
BRANCH  14  17
HETATM   17  O5  UNL     1      28.604  -3.553  53.009  1.00  0.00    -0.361 OA
HETATM   18  H18 UNL     1      28.409  -4.139  52.187  1.00  0.00     0.217 HD
ENDBRANCH  14  17
ENDBRANCH  10  11
ENDBRANCH   9  10
ENDBRANCH   7   9
ENDBRANCH   3   7
BRANCH   1  19
HETATM   19  O2  UNL     1      24.614   4.025  49.635  1.00  0.00    -0.324 OA
BRANCH  19  20
HETATM   20  C3  UNL     1      24.209   5.340  49.942  1.00  0.00     0.173 C 
HETATM   21  C2  UNL     1      23.947   6.177  50.936  1.00  0.00     0.061 C 
HETATM   22  C1  UNL     1      23.516   7.576  50.706  1.00  0.00     0.078 C 
BRANCH  21  23
HETATM   23  O1  UNL     1      24.048   5.838  52.258  1.00  0.00    -0.363 OA
HETATM   24  H4  UNL     1      23.904   6.558  52.949  1.00  0.00     0.217 HD
ENDBRANCH  21  23
ENDBRANCH  19  20
ENDBRANCH   1  19
TORSDOF 10
ENDMDL
MODEL 5
REMARK VINA RESULT:      -6.8      1.638      2.082
REMARK  10 active torsions:
REMARK  status: ('A' for Active; 'I' for Inactive)
REMARK    1  A    between atoms: C2_2  and  O1_3 
REMARK    2  A    between atoms: C3_4  and  O2_5 
REMARK    3  A    between atoms: O2_5  and  C4_6 
REMARK    4  A    between atoms: C6_8  and  C7_9 
REMARK    5  A    between atoms: C6_8  and  C8_11 
REMARK    6  A    between atoms: C7_9  and  O3_10 
REMARK    7  A    between atoms: C8_11  and  C9_13 
REMARK    8  A    between atoms: C9_13  and  C10_14 
REMARK    9  A    between atoms: C10_14  and  C11_15 
REMARK   10  A    between atoms: C14_18  and  O5_19 
ROOT
HETATM    1  C4  UNL     1      23.313   1.877  51.166  1.00  0.00     0.060 C 
HETATM    2  C5  UNL     1      22.523   1.655  49.899  1.00  0.00     0.077 C 
HETATM    3  C6  UNL     1      24.201   2.830  50.961  1.00  0.00     0.040 C 
ENDROOT
BRANCH   3   4
HETATM    4  C7  UNL     1      25.159   3.928  50.575  1.00  0.00     0.209 C 
BRANCH   4   5
HETATM    5  O3  UNL     1      24.834   5.160  51.074  1.00  0.00    -0.396 OA
HETATM    6  H11 UNL     1      24.694   5.809  50.337  1.00  0.00     0.209 HD
ENDBRANCH   4   5
ENDBRANCH   3   4
BRANCH   3   7
HETATM    7  C8  UNL     1      24.656   2.754  52.380  1.00  0.00     0.160 C 
HETATM    8  O4  UNL     1      24.245   3.502  53.338  1.00  0.00    -0.293 OA
BRANCH   7   9
HETATM    9  C9  UNL     1      25.552   2.034  53.296  1.00  0.00     0.088 C 
BRANCH   9  10
HETATM   10  C10 UNL     1      26.893   1.775  52.592  1.00  0.00     0.046 C 
BRANCH  10  11
HETATM   11  C11 UNL     1      27.265   0.332  52.744  1.00  0.00    -0.058 A 
HETATM   12  C12 UNL     1      26.441  -0.735  52.355  1.00  0.00     0.010 A 
HETATM   13  C13 UNL     1      26.913  -2.035  52.535  1.00  0.00     0.037 A 
HETATM   14  C14 UNL     1      28.175  -2.220  53.092  1.00  0.00     0.065 A 
HETATM   15  C15 UNL     1      28.948  -1.170  53.459  1.00  0.00     0.037 A 
HETATM   16  C16 UNL     1      28.527   0.132  53.301  1.00  0.00     0.010 A 
BRANCH  14  17
HETATM   17  O5  UNL     1      28.700  -3.485  53.295  1.00  0.00    -0.361 OA
HETATM   18  H18 UNL     1      28.403  -4.270  52.702  1.00  0.00     0.217 HD
ENDBRANCH  14  17
ENDBRANCH  10  11
ENDBRANCH   9  10
ENDBRANCH   7   9
ENDBRANCH   3   7
BRANCH   1  19
HETATM   19  O2  UNL     1      22.749   0.938  52.068  1.00  0.00    -0.324 OA
BRANCH  19  20
HETATM   20  C3  UNL     1      21.389   0.662  51.819  1.00  0.00     0.173 C 
HETATM   21  C2  UNL     1      20.284   0.154  52.344  1.00  0.00     0.061 C 
HETATM   22  C1  UNL     1      19.004   0.091  51.600  1.00  0.00     0.078 C 
BRANCH  21  23
HETATM   23  O1  UNL     1      20.215  -0.359  53.612  1.00  0.00    -0.363 OA
HETATM   24  H4  UNL     1      19.999   0.269  54.371  1.00  0.00     0.217 HD
ENDBRANCH  21  23
ENDBRANCH  19  20
ENDBRANCH   1  19
TORSDOF 10
ENDMDL
MODEL 6
REMARK VINA RESULT:      -6.8      1.996      5.146
REMARK  10 active torsions:
REMARK  status: ('A' for Active; 'I' for Inactive)
REMARK    1  A    between atoms: C2_2  and  O1_3 
REMARK    2  A    between atoms: C3_4  and  O2_5 
REMARK    3  A    between atoms: O2_5  and  C4_6 
REMARK    4  A    between atoms: C6_8  and  C7_9 
REMARK    5  A    between atoms: C6_8  and  C8_11 
REMARK    6  A    between atoms: C7_9  and  O3_10 
REMARK    7  A    between atoms: C8_11  and  C9_13 
REMARK    8  A    between atoms: C9_13  and  C10_14 
REMARK    9  A    between atoms: C10_14  and  C11_15 
REMARK   10  A    between atoms: C14_18  and  O5_19 
ROOT
HETATM    1  C4  UNL     1      25.912   0.036  53.101  1.00  0.00     0.060 C 
HETATM    2  C5  UNL     1      26.321  -1.296  52.519  1.00  0.00     0.077 C 
HETATM    3  C6  UNL     1      26.245   0.995  52.259  1.00  0.00     0.040 C 
ENDROOT
BRANCH   3   4
HETATM    4  C7  UNL     1      26.683   1.976  51.202  1.00  0.00     0.209 C 
BRANCH   4   5
HETATM    5  O3  UNL     1      27.492   2.979  51.664  1.00  0.00    -0.396 OA
HETATM    6  H11 UNL     1      27.818   3.538  50.913  1.00  0.00     0.209 HD
ENDBRANCH   4   5
ENDBRANCH   3   4
BRANCH   3   7
HETATM    7  C8  UNL     1      25.638   2.028  53.149  1.00  0.00     0.160 C 
HETATM    8  O4  UNL     1      26.198   2.551  54.179  1.00  0.00    -0.293 OA
BRANCH   7   9
HETATM    9  C9  UNL     1      24.434   2.843  53.363  1.00  0.00     0.088 C 
BRANCH   9  10
HETATM   10  C10 UNL     1      23.771   3.129  52.006  1.00  0.00     0.046 C 
BRANCH  10  11
HETATM   11  C11 UNL     1      22.483   2.370  51.910  1.00  0.00    -0.058 A 
HETATM   12  C12 UNL     1      21.271   2.808  52.466  1.00  0.00     0.010 A 
HETATM   13  C13 UNL     1      20.138   2.015  52.291  1.00  0.00     0.037 A 
HETATM   14  C14 UNL     1      20.254   0.826  51.577  1.00  0.00     0.065 A 
HETATM   15  C15 UNL     1      21.438   0.428  51.053  1.00  0.00     0.037 A 
HETATM   16  C16 UNL     1      22.585   1.176  51.198  1.00  0.00     0.010 A 
BRANCH  14  17
HETATM   17  O5  UNL     1      19.166  -0.005  51.368  1.00  0.00    -0.361 OA
HETATM   18  H18 UNL     1      19.188  -0.706  50.617  1.00  0.00     0.217 HD
ENDBRANCH  14  17
ENDBRANCH  10  11
ENDBRANCH   9  10
ENDBRANCH   7   9
ENDBRANCH   3   7
BRANCH   1  19
HETATM   19  O2  UNL     1      25.326  -0.320  54.343  1.00  0.00    -0.324 OA
BRANCH  19  20
HETATM   20  C3  UNL     1      23.957  -0.640  54.251  1.00  0.00     0.173 C 
HETATM   21  C2  UNL     1      22.961  -1.274  54.852  1.00  0.00     0.061 C 
HETATM   22  C1  UNL     1      21.590  -1.316  54.291  1.00  0.00     0.078 C 
BRANCH  21  23
HETATM   23  O1  UNL     1      23.097  -1.948  56.036  1.00  0.00    -0.363 OA
HETATM   24  H4  UNL     1      23.002  -1.428  56.895  1.00  0.00     0.217 HD
ENDBRANCH  21  23
ENDBRANCH  19  20
ENDBRANCH   1  19
TORSDOF 10
ENDMDL
MODEL 7
REMARK VINA RESULT:      -6.7      2.377      6.892
REMARK  10 active torsions:
REMARK  status: ('A' for Active; 'I' for Inactive)
REMARK    1  A    between atoms: C2_2  and  O1_3 
REMARK    2  A    between atoms: C3_4  and  O2_5 
REMARK    3  A    between atoms: O2_5  and  C4_6 
REMARK    4  A    between atoms: C6_8  and  C7_9 
REMARK    5  A    between atoms: C6_8  and  C8_11 
REMARK    6  A    between atoms: C7_9  and  O3_10 
REMARK    7  A    between atoms: C8_11  and  C9_13 
REMARK    8  A    between atoms: C9_13  and  C10_14 
REMARK    9  A    between atoms: C10_14  and  C11_15 
REMARK   10  A    between atoms: C14_18  and  O5_19 
ROOT
HETATM    1  C4  UNL     1      25.708   0.295  52.474  1.00  0.00     0.060 C 
HETATM    2  C5  UNL     1      26.837   1.011  51.774  1.00  0.00     0.077 C 
HETATM    3  C6  UNL     1      24.736   1.154  52.715  1.00  0.00     0.040 C 
ENDROOT
BRANCH   3   4
HETATM    4  C7  UNL     1      23.718   2.247  52.921  1.00  0.00     0.209 C 
BRANCH   4   5
HETATM    5  O3  UNL     1      24.258   3.482  53.158  1.00  0.00    -0.396 OA
HETATM    6  H11 UNL     1      24.133   4.073  52.371  1.00  0.00     0.209 HD
ENDBRANCH   4   5
ENDBRANCH   3   4
BRANCH   3   7
HETATM    7  C8  UNL     1      23.887   0.075  53.301  1.00  0.00     0.160 C 
HETATM    8  O4  UNL     1      24.033  -0.443  54.465  1.00  0.00    -0.293 OA
BRANCH   7   9
HETATM    9  C9  UNL     1      22.733  -0.795  53.034  1.00  0.00     0.088 C 
BRANCH   9  10
HETATM   10  C10 UNL     1      21.571  -0.391  53.955  1.00  0.00     0.046 C 
BRANCH  10  11
HETATM   11  C11 UNL     1      20.287  -0.439  53.187  1.00  0.00    -0.058 A 
HETATM   12  C12 UNL     1      19.168  -1.193  53.575  1.00  0.00     0.010 A 
HETATM   13  C13 UNL     1      18.025  -1.138  52.779  1.00  0.00     0.037 A 
HETATM   14  C14 UNL     1      18.038  -0.342  51.637  1.00  0.00     0.065 A 
HETATM   15  C15 UNL     1      19.134   0.375  51.288  1.00  0.00     0.037 A 
HETATM   16  C16 UNL     1      20.287   0.353  52.040  1.00  0.00     0.010 A 
BRANCH  14  17
HETATM   17  O5  UNL     1      16.935  -0.244  50.807  1.00  0.00    -0.361 OA
HETATM   18  H18 UNL     1      16.849   0.544  50.152  1.00  0.00     0.217 HD
ENDBRANCH  14  17
ENDBRANCH  10  11
ENDBRANCH   9  10
ENDBRANCH   7   9
ENDBRANCH   3   7
BRANCH   1  19
HETATM   19  O2  UNL     1      26.183  -1.037  52.579  1.00  0.00    -0.324 OA
BRANCH  19  20
HETATM   20  C3  UNL     1      27.542  -1.124  52.943  1.00  0.00     0.173 C 
HETATM   21  C2  UNL     1      28.554  -1.962  53.119  1.00  0.00     0.061 C 
HETATM   22  C1  UNL     1      29.898  -1.509  53.548  1.00  0.00     0.078 C 
BRANCH  21  23
HETATM   23  O1  UNL     1      28.460  -3.314  52.924  1.00  0.00    -0.363 OA
HETATM   24  H4  UNL     1      27.648  -3.794  53.282  1.00  0.00     0.217 HD
ENDBRANCH  21  23
ENDBRANCH  19  20
ENDBRANCH   1  19
TORSDOF 10
ENDMDL
MODEL 8
REMARK VINA RESULT:      -6.6      2.654      5.438
REMARK  10 active torsions:
REMARK  status: ('A' for Active; 'I' for Inactive)
REMARK    1  A    between atoms: C2_2  and  O1_3 
REMARK    2  A    between atoms: C3_4  and  O2_5 
REMARK    3  A    between atoms: O2_5  and  C4_6 
REMARK    4  A    between atoms: C6_8  and  C7_9 
REMARK    5  A    between atoms: C6_8  and  C8_11 
REMARK    6  A    between atoms: C7_9  and  O3_10 
REMARK    7  A    between atoms: C8_11  and  C9_13 
REMARK    8  A    between atoms: C9_13  and  C10_14 
REMARK    9  A    between atoms: C10_14  and  C11_15 
REMARK   10  A    between atoms: C14_18  and  O5_19 
ROOT
HETATM    1  C4  UNL     1      25.332   2.953  50.418  1.00  0.00     0.060 C 
HETATM    2  C5  UNL     1      26.650   3.541  49.975  1.00  0.00     0.077 C 
HETATM    3  C6  UNL     1      24.347   3.649  49.886  1.00  0.00     0.040 C 
ENDROOT
BRANCH   3   4
HETATM    4  C7  UNL     1      23.334   4.538  49.209  1.00  0.00     0.209 C 
BRANCH   4   5
HETATM    5  O3  UNL     1      22.900   4.075  47.997  1.00  0.00    -0.396 OA
HETATM    6  H11 UNL     1      21.973   3.730  48.067  1.00  0.00     0.209 HD
ENDBRANCH   4   5
ENDBRANCH   3   4
BRANCH   3   7
HETATM    7  C8  UNL     1      23.333   2.739  50.494  1.00  0.00     0.160 C 
HETATM    8  O4  UNL     1      22.688   1.818  49.875  1.00  0.00    -0.293 OA
BRANCH   7   9
HETATM    9  C9  UNL     1      22.647   2.406  51.750  1.00  0.00     0.088 C 
BRANCH   9  10
HETATM   10  C10 UNL     1      21.898   1.074  51.580  1.00  0.00     0.046 C 
BRANCH  10  11
HETATM   11  C11 UNL     1      22.108   0.226  52.796  1.00  0.00    -0.058 A 
HETATM   12  C12 UNL     1      21.075  -0.432  53.481  1.00  0.00     0.010 A 
HETATM   13  C13 UNL     1      21.406  -1.206  54.593  1.00  0.00     0.037 A 
HETATM   14  C14 UNL     1      22.741  -1.295  54.976  1.00  0.00     0.065 A 
HETATM   15  C15 UNL     1      23.717  -0.647  54.295  1.00  0.00     0.037 A 
HETATM   16  C16 UNL     1      23.442   0.130  53.193  1.00  0.00     0.010 A 
BRANCH  14  17
HETATM   17  O5  UNL     1      23.134  -2.048  56.069  1.00  0.00    -0.361 OA
HETATM   18  H18 UNL     1      24.132  -2.143  56.300  1.00  0.00     0.217 HD
ENDBRANCH  14  17
ENDBRANCH  10  11
ENDBRANCH   9  10
ENDBRANCH   7   9
ENDBRANCH   3   7
BRANCH   1  19
HETATM   19  O2  UNL     1      25.723   1.867  51.244  1.00  0.00    -0.324 OA
BRANCH  19  20
HETATM   20  C3  UNL     1      26.859   2.138  52.032  1.00  0.00     0.173 C 
HETATM   21  C2  UNL     1      27.342   2.101  53.265  1.00  0.00     0.061 C 
HETATM   22  C1  UNL     1      28.720   2.538  53.595  1.00  0.00     0.078 C 
BRANCH  21  23
HETATM   23  O1  UNL     1      26.626   1.663  54.346  1.00  0.00    -0.363 OA
HETATM   24  H4  UNL     1      26.511   2.287  55.130  1.00  0.00     0.217 HD
ENDBRANCH  21  23
ENDBRANCH  19  20
ENDBRANCH   1  19
TORSDOF 10
ENDMDL
MODEL 9
REMARK VINA RESULT:      -6.6      2.602      6.002
REMARK  10 active torsions:
REMARK  status: ('A' for Active; 'I' for Inactive)
REMARK    1  A    between atoms: C2_2  and  O1_3 
REMARK    2  A    between atoms: C3_4  and  O2_5 
REMARK    3  A    between atoms: O2_5  and  C4_6 
REMARK    4  A    between atoms: C6_8  and  C7_9 
REMARK    5  A    between atoms: C6_8  and  C8_11 
REMARK    6  A    between atoms: C7_9  and  O3_10 
REMARK    7  A    between atoms: C8_11  and  C9_13 
REMARK    8  A    between atoms: C9_13  and  C10_14 
REMARK    9  A    between atoms: C10_14  and  C11_15 
REMARK   10  A    between atoms: C14_18  and  O5_19 
ROOT
HETATM    1  C4  UNL     1      25.309   3.863  50.332  1.00  0.00     0.060 C 
HETATM    2  C5  UNL     1      26.443   4.080  49.359  1.00  0.00     0.077 C 
HETATM    3  C6  UNL     1      25.736   3.121  51.334  1.00  0.00     0.040 C 
ENDROOT
BRANCH   3   4
HETATM    4  C7  UNL     1      26.367   2.269  52.407  1.00  0.00     0.209 C 
BRANCH   4   5
HETATM    5  O3  UNL     1      27.660   1.904  52.148  1.00  0.00    -0.396 OA
HETATM    6  H11 UNL     1      28.275   2.304  52.815  1.00  0.00     0.209 HD
ENDBRANCH   4   5
ENDBRANCH   3   4
BRANCH   3   7
HETATM    7  C8  UNL     1      24.411   3.221  52.014  1.00  0.00     0.160 C 
HETATM    8  O4  UNL     1      24.159   3.914  53.064  1.00  0.00    -0.293 OA
BRANCH   7   9
HETATM    9  C9  UNL     1      23.016   2.763  51.955  1.00  0.00     0.088 C 
BRANCH   9  10
HETATM   10  C10 UNL     1      22.988   1.276  51.565  1.00  0.00     0.046 C 
BRANCH  10  11
HETATM   11  C11 UNL     1      22.892   0.439  52.803  1.00  0.00    -0.058 A 
HETATM   12  C12 UNL     1      21.704   0.231  53.520  1.00  0.00     0.010 A 
HETATM   13  C13 UNL     1      21.746  -0.586  54.649  1.00  0.00     0.037 A 
HETATM   14  C14 UNL     1      22.959  -1.159  55.019  1.00  0.00     0.065 A 
HETATM   15  C15 UNL     1      24.091  -0.940  54.307  1.00  0.00     0.037 A 
HETATM   16  C16 UNL     1      24.101  -0.142  53.186  1.00  0.00     0.010 A 
BRANCH  14  17
HETATM   17  O5  UNL     1      23.066  -1.980  56.128  1.00  0.00    -0.361 OA
HETATM   18  H18 UNL     1      22.997  -1.583  57.074  1.00  0.00     0.217 HD
ENDBRANCH  14  17
ENDBRANCH  10  11
ENDBRANCH   9  10
ENDBRANCH   7   9
ENDBRANCH   3   7
BRANCH   1  19
HETATM   19  O2  UNL     1      24.232   4.572  49.738  1.00  0.00    -0.324 OA
BRANCH  19  20
HETATM   20  C3  UNL     1      24.330   5.971  49.882  1.00  0.00     0.173 C 
HETATM   21  C2  UNL     1      24.408   6.955  50.765  1.00  0.00     0.061 C 
HETATM   22  C1  UNL     1      24.498   8.379  50.365  1.00  0.00     0.078 C 
BRANCH  21  23
HETATM   23  O1  UNL     1      24.414   6.757  52.120  1.00  0.00    -0.363 OA
HETATM   24  H4  UNL     1      23.893   5.978  52.492  1.00  0.00     0.217 HD
ENDBRANCH  21  23
ENDBRANCH  19  20
ENDBRANCH   1  19
TORSDOF 10
ENDMDL
