MODEL 1
REMARK VINA RESULT:      -8.9      0.000      0.000
REMARK  6 active torsions:
REMARK  status: ('A' for Active; 'I' for Inactive)
REMARK    1  A    between atoms: N1_1  and  C1_2 
REMARK    2  A    between atoms: C2_3  and  O1_4 
REMARK    3  A    between atoms: O1_4  and  C3_5 
REMARK    4  A    between atoms: C5_9  and  C6_10 
REMARK    5  A    between atoms: C8_12  and  N4_13 
REMARK    6  A    between atoms: N4_13  and  C9_14 
ROOT
HETATM    1  C3  UNL     1      25.434   1.097  52.508  1.00  0.00     0.196 C 
HETATM    2  N2  UNL     1      25.654   2.205  52.003  1.00  0.00    -0.245 NA
HETATM    3  C4  UNL     1      26.784   2.920  51.579  1.00  0.00     0.273 C 
HETATM    4  N3  UNL     1      26.444   3.678  50.384  1.00  0.00    -0.371 N 
HETATM    5  C5  UNL     1      25.997   4.553  49.325  1.00  0.00     0.035 C 
HETATM    6  C13 UNL     1      24.781   4.630  48.867  1.00  0.00     0.030 C 
HETATM    7  C14 UNL     1      23.373   4.467  48.604  1.00  0.00     0.002 C 
HETATM    8  C15 UNL     1      22.450   3.710  49.141  1.00  0.00     0.000 C 
HETATM    9  C16 UNL     1      22.123   2.728  50.117  1.00  0.00     0.002 C 
HETATM   10  C17 UNL     1      22.839   2.135  50.999  1.00  0.00     0.034 C 
HETATM   11  C18 UNL     1      23.052   1.221  52.076  1.00  0.00     0.091 A 
HETATM   12  N6  UNL     1      21.851   0.773  52.446  1.00  0.00    -0.222 NA
HETATM   13  C19 UNL     1      22.060  -0.106  53.493  1.00  0.00     0.178 A 
HETATM   14  S1  UNL     1      21.356  -1.196  54.671  1.00  0.00    -0.062 SA
HETATM   15  C20 UNL     1      22.992  -1.659  55.413  1.00  0.00     0.071 A 
HETATM   16  C21 UNL     1      23.910  -0.898  54.645  1.00  0.00     0.107 A 
HETATM   17  N7  UNL     1      23.393  -0.123  53.679  1.00  0.00    -0.294 N 
HETATM   18  C22 UNL     1      24.046   0.689  52.819  1.00  0.00     0.123 A 
HETATM   19  H7  UNL     1      26.877   3.151  49.556  1.00  0.00     0.161 HD
ENDROOT
BRANCH   5  20
HETATM   20  C6  UNL     1      27.046   5.453  48.762  1.00  0.00    -0.026 A 
HETATM   21  C7  UNL     1      28.281   5.103  48.500  1.00  0.00     0.039 A 
HETATM   22  C8  UNL     1      29.080   6.184  47.961  1.00  0.00     0.030 A 
HETATM   23  C11 UNL     1      28.334   7.244  47.879  1.00  0.00     0.007 A 
HETATM   24  C12 UNL     1      26.997   6.877  48.374  1.00  0.00     0.070 A 
BRANCH  22  25
HETATM   25  N4  UNL     1      30.441   6.082  47.589  1.00  0.00    -0.344 N 
HETATM   26  H9  UNL     1      30.701   6.140  46.578  1.00  0.00     0.167 HD
BRANCH  25  27
HETATM   27  C9  UNL     1      31.397   5.902  48.630  1.00  0.00     0.119 A 
HETATM   28  N5  UNL     1      31.685   5.592  49.885  1.00  0.00    -0.267 NA
HETATM   29  C10 UNL     1      32.801   5.928  49.085  1.00  0.00     0.229 A 
ENDBRANCH  25  27
ENDBRANCH  22  25
ENDBRANCH   5  20
BRANCH   1  30
HETATM   30  O1  UNL     1      26.413   0.183  52.811  1.00  0.00    -0.301 OA
BRANCH  30  31
HETATM   31  C2  UNL     1      26.557  -0.979  52.068  1.00  0.00     0.161 C 
HETATM   32  C1  UNL     1      27.311  -1.822  52.767  1.00  0.00     0.105 C 
BRANCH  32  33
HETATM   33  N1  UNL     1      27.476  -0.929  53.858  1.00  0.00    -0.406 N 
HETATM   34  H1  UNL     1      27.587  -0.262  54.654  1.00  0.00     0.155 HD
HETATM   35  H2  UNL     1      27.516  -0.195  54.605  1.00  0.00     0.155 HD
ENDBRANCH  32  33
ENDBRANCH  30  31
ENDBRANCH   1  30
TORSDOF 6
ENDMDL
MODEL 2
REMARK VINA RESULT:      -8.7      1.466      2.274
REMARK  6 active torsions:
REMARK  status: ('A' for Active; 'I' for Inactive)
REMARK    1  A    between atoms: N1_1  and  C1_2 
REMARK    2  A    between atoms: C2_3  and  O1_4 
REMARK    3  A    between atoms: O1_4  and  C3_5 
REMARK    4  A    between atoms: C5_9  and  C6_10 
REMARK    5  A    between atoms: C8_12  and  N4_13 
REMARK    6  A    between atoms: N4_13  and  C9_14 
ROOT
HETATM    1  C3  UNL     1      25.421   1.085  52.516  1.00  0.00     0.196 C 
HETATM    2  N2  UNL     1      25.657   2.196  52.027  1.00  0.00    -0.245 NA
HETATM    3  C4  UNL     1      26.798   2.903  51.619  1.00  0.00     0.273 C 
HETATM    4  N3  UNL     1      26.475   3.680  50.431  1.00  0.00    -0.371 N 
HETATM    5  C5  UNL     1      26.045   4.574  49.381  1.00  0.00     0.035 C 
HETATM    6  C13 UNL     1      24.833   4.670  48.916  1.00  0.00     0.030 C 
HETATM    7  C14 UNL     1      23.425   4.527  48.643  1.00  0.00     0.002 C 
HETATM    8  C15 UNL     1      22.490   3.774  49.165  1.00  0.00     0.000 C 
HETATM    9  C16 UNL     1      22.145   2.784  50.125  1.00  0.00     0.002 C 
HETATM   10  C17 UNL     1      22.848   2.172  51.005  1.00  0.00     0.034 C 
HETATM   11  C18 UNL     1      23.044   1.242  52.071  1.00  0.00     0.091 A 
HETATM   12  N6  UNL     1      21.835   0.803  52.428  1.00  0.00    -0.222 NA
HETATM   13  C19 UNL     1      22.028  -0.091  53.465  1.00  0.00     0.178 A 
HETATM   14  S1  UNL     1      21.303  -1.188  54.625  1.00  0.00    -0.062 SA
HETATM   15  C20 UNL     1      22.929  -1.679  55.371  1.00  0.00     0.071 A 
HETATM   16  C21 UNL     1      23.861  -0.919  54.619  1.00  0.00     0.107 A 
HETATM   17  N7  UNL     1      23.359  -0.126  53.659  1.00  0.00    -0.294 N 
HETATM   18  C22 UNL     1      24.027   0.689  52.814  1.00  0.00     0.123 A 
HETATM   19  H7  UNL     1      26.907   3.159  49.600  1.00  0.00     0.161 HD
ENDROOT
BRANCH   5  20
HETATM   20  C6  UNL     1      27.108   5.468  48.836  1.00  0.00    -0.026 A 
HETATM   21  C7  UNL     1      26.984   6.759  48.645  1.00  0.00     0.039 A 
HETATM   22  C8  UNL     1      28.179   7.373  48.103  1.00  0.00     0.030 A 
HETATM   23  C11 UNL     1      29.080   6.451  47.947  1.00  0.00     0.007 A 
HETATM   24  C12 UNL     1      28.486   5.179  48.392  1.00  0.00     0.070 A 
BRANCH  22  25
HETATM   25  N4  UNL     1      28.321   8.748  47.803  1.00  0.00    -0.344 N 
HETATM   26  H9  UNL     1      29.021   9.046  47.086  1.00  0.00     0.167 HD
BRANCH  25  27
HETATM   27  C9  UNL     1      27.489   9.666  48.506  1.00  0.00     0.119 A 
HETATM   28  N5  UNL     1      27.069  10.197  49.645  1.00  0.00    -0.267 NA
HETATM   29  C10 UNL     1      26.461  10.726  48.484  1.00  0.00     0.229 A 
ENDBRANCH  25  27
ENDBRANCH  22  25
ENDBRANCH   5  20
BRANCH   1  30
HETATM   30  O1  UNL     1      26.388   0.155  52.813  1.00  0.00    -0.301 OA
BRANCH  30  31
HETATM   31  C2  UNL     1      26.546  -0.982  52.036  1.00  0.00     0.161 C 
HETATM   32  C1  UNL     1      27.270  -1.855  52.730  1.00  0.00     0.105 C 
BRANCH  32  33
HETATM   33  N1  UNL     1      27.406  -1.003  53.856  1.00  0.00    -0.406 N 
HETATM   34  H1  UNL     1      27.514  -0.363  54.675  1.00  0.00     0.155 HD
HETATM   35  H2  UNL     1      27.556  -0.288  54.608  1.00  0.00     0.155 HD
ENDBRANCH  32  33
ENDBRANCH  30  31
ENDBRANCH   1  30
TORSDOF 6
ENDMDL
MODEL 3
REMARK VINA RESULT:      -8.5      3.994      9.013
REMARK  6 active torsions:
REMARK  status: ('A' for Active; 'I' for Inactive)
REMARK    1  A    between atoms: N1_1  and  C1_2 
REMARK    2  A    between atoms: C2_3  and  O1_4 
REMARK    3  A    between atoms: O1_4  and  C3_5 
REMARK    4  A    between atoms: C5_9  and  C6_10 
REMARK    5  A    between atoms: C8_12  and  N4_13 
REMARK    6  A    between atoms: N4_13  and  C9_14 
ROOT
HETATM    1  C3  UNL     1      24.800   2.640  52.371  1.00  0.00     0.196 C 
HETATM    2  N2  UNL     1      23.585   2.772  52.567  1.00  0.00    -0.245 NA
HETATM    3  C4  UNL     1      22.555   3.567  52.043  1.00  0.00     0.273 C 
HETATM    4  N3  UNL     1      21.332   2.779  51.983  1.00  0.00    -0.371 N 
HETATM    5  C5  UNL     1      20.115   2.014  52.131  1.00  0.00     0.035 C 
HETATM    6  C13 UNL     1      20.027   0.820  52.640  1.00  0.00     0.030 C 
HETATM    7  C14 UNL     1      20.279  -0.465  53.243  1.00  0.00     0.002 C 
HETATM    8  C15 UNL     1      21.368  -1.043  53.685  1.00  0.00     0.000 C 
HETATM    9  C16 UNL     1      22.772  -0.953  53.894  1.00  0.00     0.002 C 
HETATM   10  C17 UNL     1      23.611  -0.017  53.641  1.00  0.00     0.034 C 
HETATM   11  C18 UNL     1      24.914   0.567  53.622  1.00  0.00     0.091 A 
HETATM   12  N6  UNL     1      25.715  -0.252  54.305  1.00  0.00    -0.222 NA
HETATM   13  C19 UNL     1      26.974   0.320  54.292  1.00  0.00     0.178 A 
HETATM   14  S1  UNL     1      28.653   0.211  54.783  1.00  0.00    -0.062 SA
HETATM   15  C20 UNL     1      29.130   1.808  53.970  1.00  0.00     0.071 A 
HETATM   16  C21 UNL     1      27.907   2.247  53.402  1.00  0.00     0.107 A 
HETATM   17  N7  UNL     1      26.836   1.459  53.589  1.00  0.00    -0.294 N 
HETATM   18  C22 UNL     1      25.571   1.651  53.155  1.00  0.00     0.123 A 
HETATM   19  H7  UNL     1      21.195   2.507  50.954  1.00  0.00     0.161 HD
ENDROOT
BRANCH   5  20
HETATM   20  C6  UNL     1      18.873   2.707  51.679  1.00  0.00    -0.026 A 
HETATM   21  C7  UNL     1      17.681   2.166  51.631  1.00  0.00     0.039 A 
HETATM   22  C8  UNL     1      16.660   3.075  51.150  1.00  0.00     0.030 A 
HETATM   23  C11 UNL     1      17.218   4.218  50.889  1.00  0.00     0.007 A 
HETATM   24  C12 UNL     1      18.652   4.086  51.198  1.00  0.00     0.070 A 
BRANCH  22  25
HETATM   25  N4  UNL     1      15.291   2.753  51.001  1.00  0.00    -0.344 N 
HETATM   26  H9  UNL     1      14.819   2.936  50.086  1.00  0.00     0.167 HD
BRANCH  25  27
HETATM   27  C9  UNL     1      14.620   2.186  52.123  1.00  0.00     0.119 A 
HETATM   28  N5  UNL     1      14.515   1.236  53.040  1.00  0.00    -0.267 NA
HETATM   29  C10 UNL     1      13.524   2.241  53.111  1.00  0.00     0.229 A 
ENDBRANCH  25  27
ENDBRANCH  22  25
ENDBRANCH   5  20
BRANCH   1  30
HETATM   30  O1  UNL     1      25.512   3.366  51.448  1.00  0.00    -0.301 OA
BRANCH  30  31
HETATM   31  C2  UNL     1      26.047   2.757  50.323  1.00  0.00     0.161 C 
HETATM   32  C1  UNL     1      26.435   3.713  49.485  1.00  0.00     0.105 C 
BRANCH  32  33
HETATM   33  N1  UNL     1      26.023   4.770  50.338  1.00  0.00    -0.406 N 
HETATM   34  H1  UNL     1      25.719   5.558  50.952  1.00  0.00     0.155 HD
HETATM   35  H2  UNL     1      25.714   5.622  50.864  1.00  0.00     0.155 HD
ENDBRANCH  32  33
ENDBRANCH  30  31
ENDBRANCH   1  30
TORSDOF 6
ENDMDL
MODEL 4
REMARK VINA RESULT:      -8.5      3.800      8.198
REMARK  6 active torsions:
REMARK  status: ('A' for Active; 'I' for Inactive)
REMARK    1  A    between atoms: N1_1  and  C1_2 
REMARK    2  A    between atoms: C2_3  and  O1_4 
REMARK    3  A    between atoms: O1_4  and  C3_5 
REMARK    4  A    between atoms: C5_9  and  C6_10 
REMARK    5  A    between atoms: C8_12  and  N4_13 
REMARK    6  A    between atoms: N4_13  and  C9_14 
ROOT
HETATM    1  C3  UNL     1      26.220   5.985  48.993  1.00  0.00     0.196 C 
HETATM    2  N2  UNL     1      25.733   4.964  49.494  1.00  0.00    -0.245 NA
HETATM    3  C4  UNL     1      26.222   3.816  50.134  1.00  0.00     0.273 C 
HETATM    4  N3  UNL     1      25.302   3.436  51.196  1.00  0.00    -0.371 N 
HETATM    5  C5  UNL     1      24.261   2.999  52.098  1.00  0.00     0.035 C 
HETATM    6  C13 UNL     1      23.112   3.585  52.270  1.00  0.00     0.030 C 
HETATM    7  C14 UNL     1      21.965   4.458  52.217  1.00  0.00     0.002 C 
HETATM    8  C15 UNL     1      21.694   5.528  51.515  1.00  0.00     0.000 C 
HETATM    9  C16 UNL     1      22.126   6.455  50.527  1.00  0.00     0.002 C 
HETATM   10  C17 UNL     1      23.210   6.529  49.847  1.00  0.00     0.034 C 
HETATM   11  C18 UNL     1      24.080   7.116  48.878  1.00  0.00     0.091 A 
HETATM   12  N6  UNL     1      23.384   8.076  48.266  1.00  0.00    -0.222 NA
HETATM   13  C19 UNL     1      24.226   8.637  47.323  1.00  0.00     0.178 A 
HETATM   14  S1  UNL     1      24.442   9.830  46.057  1.00  0.00    -0.062 SA
HETATM   15  C20 UNL     1      26.198   9.339  45.715  1.00  0.00     0.071 A 
HETATM   16  C21 UNL     1      26.415   8.287  46.641  1.00  0.00     0.107 A 
HETATM   17  N7  UNL     1      25.386   7.964  47.440  1.00  0.00    -0.294 N 
HETATM   18  C22 UNL     1      25.337   7.009  48.395  1.00  0.00     0.123 A 
HETATM   19  H7  UNL     1      25.758   3.740  52.118  1.00  0.00     0.161 HD
ENDROOT
BRANCH   5  20
HETATM   20  C6  UNL     1      24.559   1.744  52.848  1.00  0.00    -0.026 A 
HETATM   21  C7  UNL     1      25.695   1.469  53.438  1.00  0.00     0.039 A 
HETATM   22  C8  UNL     1      25.702   0.175  54.090  1.00  0.00     0.030 A 
HETATM   23  C11 UNL     1      24.543  -0.382  53.909  1.00  0.00     0.007 A 
HETATM   24  C12 UNL     1      23.727   0.553  53.116  1.00  0.00     0.070 A 
BRANCH  22  25
HETATM   25  N4  UNL     1      26.796  -0.371  54.802  1.00  0.00    -0.344 N 
HETATM   26  H9  UNL     1      26.643  -1.202  55.416  1.00  0.00     0.167 HD
BRANCH  25  27
HETATM   27  C9  UNL     1      28.066   0.253  54.639  1.00  0.00     0.119 A 
HETATM   28  N5  UNL     1      28.938   1.192  54.978  1.00  0.00    -0.267 NA
HETATM   29  C10 UNL     1      29.375   0.316  53.959  1.00  0.00     0.229 A 
ENDBRANCH  25  27
ENDBRANCH  22  25
ENDBRANCH   5  20
BRANCH   1  30
HETATM   30  O1  UNL     1      27.567   6.251  48.949  1.00  0.00    -0.301 OA
BRANCH  30  31
HETATM   31  C2  UNL     1      28.430   5.439  48.228  1.00  0.00     0.161 C 
HETATM   32  C1  UNL     1      29.624   6.023  48.212  1.00  0.00     0.105 C 
BRANCH  32  33
HETATM   33  N1  UNL     1      29.202   7.141  48.977  1.00  0.00    -0.406 N 
HETATM   34  H1  UNL     1      28.898   7.974  49.529  1.00  0.00     0.155 HD
HETATM   35  H2  UNL     1      28.945   8.038  49.454  1.00  0.00     0.155 HD
ENDBRANCH  32  33
ENDBRANCH  30  31
ENDBRANCH   1  30
TORSDOF 6
ENDMDL
MODEL 5
REMARK VINA RESULT:      -8.3      4.099      7.297
REMARK  6 active torsions:
REMARK  status: ('A' for Active; 'I' for Inactive)
REMARK    1  A    between atoms: N1_1  and  C1_2 
REMARK    2  A    between atoms: C2_3  and  O1_4 
REMARK    3  A    between atoms: O1_4  and  C3_5 
REMARK    4  A    between atoms: C5_9  and  C6_10 
REMARK    5  A    between atoms: C8_12  and  N4_13 
REMARK    6  A    between atoms: N4_13  and  C9_14 
ROOT
HETATM    1  C3  UNL     1      18.909   1.252  51.140  1.00  0.00     0.196 C 
HETATM    2  N2  UNL     1      20.128   1.041  51.121  1.00  0.00    -0.245 NA
HETATM    3  C4  UNL     1      21.271   1.739  50.706  1.00  0.00     0.273 C 
HETATM    4  N3  UNL     1      22.360   1.459  51.631  1.00  0.00    -0.371 N 
HETATM    5  C5  UNL     1      23.445   0.991  52.463  1.00  0.00     0.035 C 
HETATM    6  C13 UNL     1      23.346   0.106  53.412  1.00  0.00     0.030 C 
HETATM    7  C14 UNL     1      22.896  -0.877  54.365  1.00  0.00     0.002 C 
HETATM    8  C15 UNL     1      21.729  -1.422  54.599  1.00  0.00     0.000 C 
HETATM    9  C16 UNL     1      20.354  -1.505  54.247  1.00  0.00     0.002 C 
HETATM   10  C17 UNL     1      19.669  -0.904  53.345  1.00  0.00     0.034 C 
HETATM   11  C18 UNL     1      18.470  -0.613  52.625  1.00  0.00     0.091 A 
HETATM   12  N6  UNL     1      17.548  -1.483  53.041  1.00  0.00    -0.222 NA
HETATM   13  C19 UNL     1      16.392  -1.204  52.337  1.00  0.00     0.178 A 
HETATM   14  S1  UNL     1      14.712  -1.604  52.035  1.00  0.00    -0.062 SA
HETATM   15  C20 UNL     1      14.490  -0.275  50.759  1.00  0.00     0.071 A 
HETATM   16  C21 UNL     1      15.771   0.335  50.717  1.00  0.00     0.107 A 
HETATM   17  N7  UNL     1      16.707  -0.169  51.536  1.00  0.00    -0.294 N 
HETATM   18  C22 UNL     1      17.989   0.229  51.684  1.00  0.00     0.123 A 
HETATM   19  H7  UNL     1      22.462   2.326  52.254  1.00  0.00     0.161 HD
ENDROOT
BRANCH   5  20
HETATM   20  C6  UNL     1      24.781   1.575  52.147  1.00  0.00    -0.026 A 
HETATM   21  C7  UNL     1      25.831   1.525  52.929  1.00  0.00     0.039 A 
HETATM   22  C8  UNL     1      26.996   2.178  52.364  1.00  0.00     0.030 A 
HETATM   23  C11 UNL     1      26.676   2.651  51.198  1.00  0.00     0.007 A 
HETATM   24  C12 UNL     1      25.262   2.315  50.962  1.00  0.00     0.070 A 
BRANCH  22  25
HETATM   25  N4  UNL     1      28.260   2.270  52.993  1.00  0.00    -0.344 N 
HETATM   26  H9  UNL     1      28.777   3.178  52.971  1.00  0.00     0.167 HD
BRANCH  25  27
HETATM   27  C9  UNL     1      28.766   1.101  53.632  1.00  0.00     0.119 A 
HETATM   28  N5  UNL     1      29.601   0.073  53.652  1.00  0.00    -0.267 NA
HETATM   29  C10 UNL     1      28.734   0.156  54.766  1.00  0.00     0.229 A 
ENDBRANCH  25  27
ENDBRANCH  22  25
ENDBRANCH   5  20
BRANCH   1  30
HETATM   30  O1  UNL     1      18.322   2.405  50.680  1.00  0.00    -0.301 OA
BRANCH  30  31
HETATM   31  C2  UNL     1      17.878   3.379  51.561  1.00  0.00     0.161 C 
HETATM   32  C1  UNL     1      17.195   4.282  50.864  1.00  0.00     0.105 C 
BRANCH  32  33
HETATM   33  N1  UNL     1      17.384   3.618  49.624  1.00  0.00    -0.406 N 
HETATM   34  H1  UNL     1      17.541   3.131  48.714  1.00  0.00     0.155 HD
HETATM   35  H2  UNL     1      17.648   3.133  48.733  1.00  0.00     0.155 HD
ENDBRANCH  32  33
ENDBRANCH  30  31
ENDBRANCH   1  30
TORSDOF 6
ENDMDL
MODEL 6
REMARK VINA RESULT:      -8.1      4.061      8.130
REMARK  6 active torsions:
REMARK  status: ('A' for Active; 'I' for Inactive)
REMARK    1  A    between atoms: N1_1  and  C1_2 
REMARK    2  A    between atoms: C2_3  and  O1_4 
REMARK    3  A    between atoms: O1_4  and  C3_5 
REMARK    4  A    between atoms: C5_9  and  C6_10 
REMARK    5  A    between atoms: C8_12  and  N4_13 
REMARK    6  A    between atoms: N4_13  and  C9_14 
ROOT
HETATM    1  C3  UNL     1      24.203   5.574  49.158  1.00  0.00     0.196 C 
HETATM    2  N2  UNL     1      24.328   4.417  49.580  1.00  0.00    -0.245 NA
HETATM    3  C4  UNL     1      24.948   3.799  50.675  1.00  0.00     0.273 C 
HETATM    4  N3  UNL     1      24.119   2.690  51.126  1.00  0.00    -0.371 N 
HETATM    5  C5  UNL     1      23.358   1.492  51.400  1.00  0.00     0.035 C 
HETATM    6  C13 UNL     1      22.301   1.100  50.750  1.00  0.00     0.030 C 
HETATM    7  C14 UNL     1      21.190   0.960  49.842  1.00  0.00     0.002 C 
HETATM    8  C15 UNL     1      20.766   1.682  48.837  1.00  0.00     0.000 C 
HETATM    9  C16 UNL     1      20.953   2.836  48.027  1.00  0.00     0.002 C 
HETATM   10  C17 UNL     1      21.843   3.758  48.054  1.00  0.00     0.034 C 
HETATM   11  C18 UNL     1      22.459   4.961  47.591  1.00  0.00     0.091 A 
HETATM   12  N6  UNL     1      21.840   5.301  46.459  1.00  0.00    -0.222 NA
HETATM   13  C19 UNL     1      22.444   6.461  46.009  1.00  0.00     0.178 A 
HETATM   14  S1  UNL     1      22.510   7.716  44.787  1.00  0.00    -0.062 SA
HETATM   15  C20 UNL     1      23.909   8.619  45.604  1.00  0.00     0.071 A 
HETATM   16  C21 UNL     1      24.166   7.826  46.751  1.00  0.00     0.107 A 
HETATM   17  N7  UNL     1      23.396   6.739  46.919  1.00  0.00    -0.294 N 
HETATM   18  C22 UNL     1      23.440   5.831  47.918  1.00  0.00     0.123 A 
HETATM   19  H7  UNL     1      23.624   3.023  52.017  1.00  0.00     0.161 HD
ENDROOT
BRANCH   5  20
HETATM   20  C6  UNL     1      23.888   0.647  52.509  1.00  0.00    -0.026 A 
HETATM   21  C7  UNL     1      25.155   0.408  52.738  1.00  0.00     0.039 A 
HETATM   22  C8  UNL     1      25.377  -0.450  53.885  1.00  0.00     0.030 A 
HETATM   23  C11 UNL     1      24.224  -0.762  54.394  1.00  0.00     0.007 A 
HETATM   24  C12 UNL     1      23.192  -0.102  53.576  1.00  0.00     0.070 A 
BRANCH  22  25
HETATM   25  N4  UNL     1      26.645  -0.865  54.356  1.00  0.00    -0.344 N 
HETATM   26  H9  UNL     1      26.789  -1.865  54.624  1.00  0.00     0.167 HD
BRANCH  25  27
HETATM   27  C9  UNL     1      27.672   0.119  54.440  1.00  0.00     0.119 A 
HETATM   28  N5  UNL     1      28.060   1.355  54.718  1.00  0.00    -0.267 NA
HETATM   29  C10 UNL     1      29.091   0.494  54.275  1.00  0.00     0.229 A 
ENDBRANCH  25  27
ENDBRANCH  22  25
ENDBRANCH   5  20
BRANCH   1  30
HETATM   30  O1  UNL     1      24.737   6.678  49.777  1.00  0.00    -0.301 OA
BRANCH  30  31
HETATM   31  C2  UNL     1      26.069   7.019  49.601  1.00  0.00     0.161 C 
HETATM   32  C1  UNL     1      26.277   8.184  50.206  1.00  0.00     0.105 C 
BRANCH  32  33
HETATM   33  N1  UNL     1      24.935   8.310  50.650  1.00  0.00    -0.406 N 
HETATM   34  H1  UNL     1      23.946   8.386  50.977  1.00  0.00     0.155 HD
HETATM   35  H2  UNL     1      23.942   8.277  50.983  1.00  0.00     0.155 HD
ENDBRANCH  32  33
ENDBRANCH  30  31
ENDBRANCH   1  30
TORSDOF 6
ENDMDL
MODEL 7
REMARK VINA RESULT:      -7.9      4.565      8.723
REMARK  6 active torsions:
REMARK  status: ('A' for Active; 'I' for Inactive)
REMARK    1  A    between atoms: N1_1  and  C1_2 
REMARK    2  A    between atoms: C2_3  and  O1_4 
REMARK    3  A    between atoms: O1_4  and  C3_5 
REMARK    4  A    between atoms: C5_9  and  C6_10 
REMARK    5  A    between atoms: C8_12  and  N4_13 
REMARK    6  A    between atoms: N4_13  and  C9_14 
ROOT
HETATM    1  C3  UNL     1      22.062   6.582  49.868  1.00  0.00     0.196 C 
HETATM    2  N2  UNL     1      22.737   5.827  50.578  1.00  0.00    -0.245 NA
HETATM    3  C4  UNL     1      22.485   4.745  51.433  1.00  0.00     0.273 C 
HETATM    4  N3  UNL     1      23.566   3.777  51.305  1.00  0.00    -0.371 N 
HETATM    5  C5  UNL     1      24.754   2.956  51.282  1.00  0.00     0.035 C 
HETATM    6  C13 UNL     1      25.827   3.194  50.583  1.00  0.00     0.030 C 
HETATM    7  C14 UNL     1      26.831   3.742  49.706  1.00  0.00     0.002 C 
HETATM    8  C15 UNL     1      26.873   4.819  48.965  1.00  0.00     0.000 C 
HETATM    9  C16 UNL     1      26.207   5.995  48.521  1.00  0.00     0.002 C 
HETATM   10  C17 UNL     1      25.051   6.474  48.799  1.00  0.00     0.034 C 
HETATM   11  C18 UNL     1      24.003   7.439  48.696  1.00  0.00     0.091 A 
HETATM   12  N6  UNL     1      24.487   8.461  47.988  1.00  0.00    -0.222 NA
HETATM   13  C19 UNL     1      23.474   9.397  47.897  1.00  0.00     0.178 A 
HETATM   14  S1  UNL     1      22.953  10.959  47.296  1.00  0.00    -0.062 SA
HETATM   15  C20 UNL     1      21.251  10.816  48.020  1.00  0.00     0.071 A 
HETATM   16  C21 UNL     1      21.287   9.548  48.655  1.00  0.00     0.107 A 
HETATM   17  N7  UNL     1      22.437   8.861  48.566  1.00  0.00    -0.294 N 
HETATM   18  C22 UNL     1      22.724   7.645  49.080  1.00  0.00     0.123 A 
HETATM   19  H7  UNL     1      23.183   2.970  50.712  1.00  0.00     0.161 HD
ENDROOT
BRANCH   5  20
HETATM   20  C6  UNL     1      24.717   1.763  52.177  1.00  0.00    -0.026 A 
HETATM   21  C7  UNL     1      25.698   1.369  52.952  1.00  0.00     0.039 A 
HETATM   22  C8  UNL     1      25.382   0.177  53.711  1.00  0.00     0.030 A 
HETATM   23  C11 UNL     1      24.174  -0.194  53.411  1.00  0.00     0.007 A 
HETATM   24  C12 UNL     1      23.654   0.768  52.425  1.00  0.00     0.070 A 
BRANCH  22  25
HETATM   25  N4  UNL     1      26.256  -0.461  54.624  1.00  0.00    -0.344 N 
HETATM   26  H9  UNL     1      25.887  -1.220  55.240  1.00  0.00     0.167 HD
BRANCH  25  27
HETATM   27  C9  UNL     1      27.613  -0.026  54.652  1.00  0.00     0.119 A 
HETATM   28  N5  UNL     1      28.542   0.812  55.087  1.00  0.00    -0.267 NA
HETATM   29  C10 UNL     1      29.011  -0.191  54.208  1.00  0.00     0.229 A 
ENDBRANCH  25  27
ENDBRANCH  22  25
ENDBRANCH   5  20
BRANCH   1  30
HETATM   30  O1  UNL     1      20.696   6.506  49.748  1.00  0.00    -0.301 OA
BRANCH  30  31
HETATM   31  C2  UNL     1      20.110   5.782  48.721  1.00  0.00     0.161 C 
HETATM   32  C1  UNL     1      18.869   6.231  48.559  1.00  0.00     0.105 C 
BRANCH  32  33
HETATM   33  N1  UNL     1      18.974   7.197  49.594  1.00  0.00    -0.406 N 
HETATM   34  H1  UNL     1      19.034   7.910  50.355  1.00  0.00     0.155 HD
HETATM   35  H2  UNL     1      18.926   7.921  50.350  1.00  0.00     0.155 HD
ENDBRANCH  32  33
ENDBRANCH  30  31
ENDBRANCH   1  30
TORSDOF 6
ENDMDL
MODEL 8
REMARK VINA RESULT:      -7.9      4.133      9.440
REMARK  6 active torsions:
REMARK  status: ('A' for Active; 'I' for Inactive)
REMARK    1  A    between atoms: N1_1  and  C1_2 
REMARK    2  A    between atoms: C2_3  and  O1_4 
REMARK    3  A    between atoms: O1_4  and  C3_5 
REMARK    4  A    between atoms: C5_9  and  C6_10 
REMARK    5  A    between atoms: C8_12  and  N4_13 
REMARK    6  A    between atoms: N4_13  and  C9_14 
ROOT
HETATM    1  C3  UNL     1      29.912   6.417  48.427  1.00  0.00     0.196 C 
HETATM    2  N2  UNL     1      28.738   6.028  48.411  1.00  0.00    -0.245 NA
HETATM    3  C4  UNL     1      28.075   4.800  48.555  1.00  0.00     0.273 C 
HETATM    4  N3  UNL     1      26.828   5.016  49.274  1.00  0.00    -0.371 N 
HETATM    5  C5  UNL     1      25.522   5.321  49.812  1.00  0.00     0.035 C 
HETATM    6  C13 UNL     1      25.082   6.510  50.108  1.00  0.00     0.030 C 
HETATM    7  C14 UNL     1      24.915   7.926  50.321  1.00  0.00     0.002 C 
HETATM    8  C15 UNL     1      25.694   8.956  50.107  1.00  0.00     0.000 C 
HETATM    9  C16 UNL     1      26.949   9.432  49.640  1.00  0.00     0.002 C 
HETATM   10  C17 UNL     1      27.964   8.818  49.154  1.00  0.00     0.034 C 
HETATM   11  C18 UNL     1      29.280   8.750  48.601  1.00  0.00     0.091 A 
HETATM   12  N6  UNL     1      29.673  10.007  48.385  1.00  0.00    -0.222 NA
HETATM   13  C19 UNL     1      30.943   9.938  47.843  1.00  0.00     0.178 A 
HETATM   14  S1  UNL     1      32.332  10.804  47.215  1.00  0.00    -0.062 SA
HETATM   15  C20 UNL     1      33.297   9.261  46.860  1.00  0.00     0.071 A 
HETATM   16  C21 UNL     1      32.412   8.235  47.278  1.00  0.00     0.107 A 
HETATM   17  N7  UNL     1      31.226   8.624  47.773  1.00  0.00    -0.294 N 
HETATM   18  C22 UNL     1      30.218   7.852  48.233  1.00  0.00     0.123 A 
HETATM   19  H7  UNL     1      26.990   4.669  50.276  1.00  0.00     0.161 HD
ENDROOT
BRANCH   5  20
HETATM   20  C6  UNL     1      24.622   4.145  49.994  1.00  0.00    -0.026 A 
HETATM   21  C7  UNL     1      24.641   3.331  51.021  1.00  0.00     0.039 A 
HETATM   22  C8  UNL     1      23.654   2.274  50.931  1.00  0.00     0.030 A 
HETATM   23  C11 UNL     1      22.995   2.422  49.822  1.00  0.00     0.007 A 
HETATM   24  C12 UNL     1      23.545   3.605  49.140  1.00  0.00     0.070 A 
BRANCH  22  25
HETATM   25  N4  UNL     1      23.456   1.263  51.900  1.00  0.00    -0.344 N 
HETATM   26  H9  UNL     1      22.482   0.965  52.137  1.00  0.00     0.167 HD
BRANCH  25  27
HETATM   27  C9  UNL     1      24.612   0.697  52.510  1.00  0.00     0.119 A 
HETATM   28  N5  UNL     1      25.801   0.122  52.407  1.00  0.00    -0.267 NA
HETATM   29  C10 UNL     1      25.355   0.329  53.732  1.00  0.00     0.229 A 
ENDBRANCH  25  27
ENDBRANCH  22  25
ENDBRANCH   5  20
BRANCH   1  30
HETATM   30  O1  UNL     1      30.993   5.592  48.620  1.00  0.00    -0.301 OA
BRANCH  30  31
HETATM   31  C2  UNL     1      31.477   4.800  47.590  1.00  0.00     0.161 C 
HETATM   32  C1  UNL     1      32.694   4.385  47.930  1.00  0.00     0.105 C 
BRANCH  32  33
HETATM   33  N1  UNL     1      32.688   5.060  49.178  1.00  0.00    -0.406 N 
HETATM   34  H1  UNL     1      32.698   5.550  50.100  1.00  0.00     0.155 HD
HETATM   35  H2  UNL     1      32.792   5.501  50.123  1.00  0.00     0.155 HD
ENDBRANCH  32  33
ENDBRANCH  30  31
ENDBRANCH   1  30
TORSDOF 6
ENDMDL
MODEL 9
REMARK VINA RESULT:      -7.8      2.972      5.159
REMARK  6 active torsions:
REMARK  status: ('A' for Active; 'I' for Inactive)
REMARK    1  A    between atoms: N1_1  and  C1_2 
REMARK    2  A    between atoms: C2_3  and  O1_4 
REMARK    3  A    between atoms: O1_4  and  C3_5 
REMARK    4  A    between atoms: C5_9  and  C6_10 
REMARK    5  A    between atoms: C8_12  and  N4_13 
REMARK    6  A    between atoms: N4_13  and  C9_14 
ROOT
HETATM    1  C3  UNL     1      20.225   2.089  51.138  1.00  0.00     0.196 C 
HETATM    2  N2  UNL     1      21.345   2.255  50.639  1.00  0.00    -0.245 NA
HETATM    3  C4  UNL     1      21.968   3.230  49.847  1.00  0.00     0.273 C 
HETATM    4  N3  UNL     1      23.356   3.366  50.265  1.00  0.00    -0.371 N 
HETATM    5  C5  UNL     1      24.763   3.314  50.590  1.00  0.00     0.035 C 
HETATM    6  C13 UNL     1      25.312   2.518  51.461  1.00  0.00     0.030 C 
HETATM    7  C14 UNL     1      25.587   1.523  52.467  1.00  0.00     0.002 C 
HETATM    8  C15 UNL     1      24.826   0.672  53.108  1.00  0.00     0.000 C 
HETATM    9  C16 UNL     1      23.519   0.150  53.312  1.00  0.00     0.002 C 
HETATM   10  C17 UNL     1      22.393   0.443  52.774  1.00  0.00     0.034 C 
HETATM   11  C18 UNL     1      20.984   0.302  52.588  1.00  0.00     0.091 A 
HETATM   12  N6  UNL     1      20.608  -0.771  53.287  1.00  0.00    -0.222 NA
HETATM   13  C19 UNL     1      19.245  -0.910  53.099  1.00  0.00     0.178 A 
HETATM   14  S1  UNL     1      17.789  -1.820  53.452  1.00  0.00    -0.062 SA
HETATM   15  C20 UNL     1      16.700  -0.725  52.425  1.00  0.00     0.071 A 
HETATM   16  C21 UNL     1      17.612   0.237  51.919  1.00  0.00     0.107 A 
HETATM   17  N7  UNL     1      18.895   0.106  52.288  1.00  0.00    -0.294 N 
HETATM   18  C22 UNL     1      19.947   0.882  51.946  1.00  0.00     0.123 A 
HETATM   19  H7  UNL     1      23.414   4.269  50.839  1.00  0.00     0.161 HD
ENDROOT
BRANCH   5  20
HETATM   20  C6  UNL     1      25.627   4.247  49.809  1.00  0.00    -0.026 A 
HETATM   21  C7  UNL     1      26.868   4.014  49.461  1.00  0.00     0.039 A 
HETATM   22  C8  UNL     1      27.464   5.099  48.707  1.00  0.00     0.030 A 
HETATM   23  C11 UNL     1      26.579   6.040  48.574  1.00  0.00     0.007 A 
HETATM   24  C12 UNL     1      25.353   5.588  49.253  1.00  0.00     0.070 A 
BRANCH  22  25
HETATM   25  N4  UNL     1      28.787   5.110  48.207  1.00  0.00    -0.344 N 
HETATM   26  H9  UNL     1      29.253   4.204  47.973  1.00  0.00     0.167 HD
BRANCH  25  27
HETATM   27  C9  UNL     1      29.421   6.376  48.047  1.00  0.00     0.119 A 
HETATM   28  N5  UNL     1      29.881   7.505  48.565  1.00  0.00    -0.267 NA
HETATM   29  C10 UNL     1      30.048   7.382  47.167  1.00  0.00     0.229 A 
ENDBRANCH  25  27
ENDBRANCH  22  25
ENDBRANCH   5  20
BRANCH   1  30
HETATM   30  O1  UNL     1      19.182   2.972  50.994  1.00  0.00    -0.301 OA
BRANCH  30  31
HETATM   31  C2  UNL     1      18.472   3.048  49.806  1.00  0.00     0.161 C 
HETATM   32  C1  UNL     1      17.353   3.727  50.041  1.00  0.00     0.105 C 
BRANCH  32  33
HETATM   33  N1  UNL     1      17.643   3.930  51.415  1.00  0.00    -0.406 N 
HETATM   34  H1  UNL     1      17.860   4.063  52.428  1.00  0.00     0.155 HD
HETATM   35  H2  UNL     1      17.889   3.958  52.434  1.00  0.00     0.155 HD
ENDBRANCH  32  33
ENDBRANCH  30  31
ENDBRANCH   1  30
TORSDOF 6
ENDMDL
