MODEL 1
REMARK VINA RESULT:      -7.7      0.000      0.000
REMARK  1 active torsions:
REMARK  status: ('A' for Active; 'I' for Inactive)
REMARK       I    between atoms: N4_16  and  C13_17 
REMARK    1  A    between atoms: C13_17  and  C14_19 
ROOT
HETATM    1  C14 UNL     1      20.858   0.378  53.184  1.00  0.00     0.226 C 
HETATM    2  C15 UNL     1      20.350   1.724  52.882  1.00  0.00     0.068 C 
HETATM    3  N5  UNL     1      19.960   2.786  52.632  1.00  0.00    -0.197 NA
ENDROOT
BRANCH   1   4
HETATM    4  C13 UNL     1      22.321   0.519  53.421  1.00  0.00     0.235 C 
HETATM    5  N4  UNL     1      23.167   0.978  52.374  1.00  0.00    -0.318 N 
HETATM    6  C11 UNL     1      24.583   1.258  52.155  1.00  0.00     0.133 A 
HETATM    7  C12 UNL     1      23.669   1.480  51.038  1.00  0.00     0.183 A 
HETATM    8  C2  UNL     1      25.214   2.440  52.774  1.00  0.00     0.057 C 
HETATM    9  N3  UNL     1      25.433   0.079  52.090  1.00  0.00    -0.350 N 
HETATM   10  C1  UNL     1      24.203   3.375  53.422  1.00  0.00     0.018 C 
HETATM   11  C3  UNL     1      26.321   2.234  53.702  1.00  0.00     0.008 C 
HETATM   12  C4  UNL     1      26.635   1.209  54.465  1.00  0.00     0.022 C 
HETATM   13  C5  UNL     1      25.964   0.111  55.262  1.00  0.00     0.207 C 
HETATM   14  N2  UNL     1      28.108   1.143  54.443  1.00  0.00    -0.385 N 
HETATM   15  N1  UNL     1      25.756  -0.945  54.222  1.00  0.00    -0.271 NA
HETATM   16  C6  UNL     1      26.138  -0.867  52.948  1.00  0.00     0.096 C 
HETATM   17  C7  UNL     1      27.140  -1.412  52.009  1.00  0.00     0.078 C 
HETATM   18  C8  UNL     1      28.233  -2.212  52.713  1.00  0.00     0.010 C 
HETATM   19  C9  UNL     1      28.790  -1.249  53.775  1.00  0.00    -0.001 C 
HETATM   20  C10 UNL     1      28.889  -0.098  54.503  1.00  0.00     0.131 C 
HETATM   21  H14 UNL     1      28.595   2.064  54.377  1.00  0.00     0.160 HD
HETATM   22  H15 UNL     1      25.590  -0.173  51.073  1.00  0.00     0.163 HD
HETATM   23  O1  UNL     1      22.469   0.158  54.619  1.00  0.00    -0.272 OA
ENDBRANCH   1   4
TORSDOF 1
ENDMDL
MODEL 2
REMARK VINA RESULT:      -7.2      9.629     11.708
REMARK  1 active torsions:
REMARK  status: ('A' for Active; 'I' for Inactive)
REMARK       I    between atoms: N4_16  and  C13_17 
REMARK    1  A    between atoms: C13_17  and  C14_19 
ROOT
HETATM    1  C14 UNL     1      33.354   4.931  44.408  1.00  0.00     0.226 C 
HETATM    2  C15 UNL     1      34.476   4.256  45.076  1.00  0.00     0.068 C 
HETATM    3  N5  UNL     1      35.350   3.716  45.612  1.00  0.00    -0.197 NA
ENDROOT
BRANCH   1   4
HETATM    4  C13 UNL     1      32.633   5.698  45.461  1.00  0.00     0.235 C 
HETATM    5  N4  UNL     1      32.399   5.107  46.733  1.00  0.00    -0.318 N 
HETATM    6  C11 UNL     1      31.771   5.459  48.004  1.00  0.00     0.133 A 
HETATM    7  C12 UNL     1      32.372   4.133  47.890  1.00  0.00     0.183 A 
HETATM    8  C2  UNL     1      32.413   6.431  48.910  1.00  0.00     0.057 C 
HETATM    9  N3  UNL     1      30.318   5.532  47.964  1.00  0.00    -0.350 N 
HETATM   10  C1  UNL     1      33.824   6.800  48.472  1.00  0.00     0.018 C 
HETATM   11  C3  UNL     1      31.692   7.655  49.243  1.00  0.00     0.008 C 
HETATM   12  C4  UNL     1      30.762   8.320  48.592  1.00  0.00     0.022 C 
HETATM   13  C5  UNL     1      30.355   8.650  47.172  1.00  0.00     0.207 C 
HETATM   14  N2  UNL     1      29.843   8.821  49.630  1.00  0.00    -0.385 N 
HETATM   15  N1  UNL     1      29.522   7.461  46.804  1.00  0.00    -0.271 NA
HETATM   16  C6  UNL     1      29.231   6.438  47.606  1.00  0.00     0.096 C 
HETATM   17  C7  UNL     1      28.111   5.855  48.371  1.00  0.00     0.078 C 
HETATM   18  C8  UNL     1      26.898   6.779  48.437  1.00  0.00     0.010 C 
HETATM   19  C9  UNL     1      27.454   8.100  48.996  1.00  0.00    -0.001 C 
HETATM   20  C10 UNL     1      28.394   8.976  49.457  1.00  0.00     0.131 C 
HETATM   21  H14 UNL     1      30.291   9.073  50.539  1.00  0.00     0.160 HD
HETATM   22  H15 UNL     1      29.921   4.615  48.315  1.00  0.00     0.163 HD
HETATM   23  O1  UNL     1      32.378   6.801  44.908  1.00  0.00    -0.272 OA
ENDBRANCH   1   4
TORSDOF 1
ENDMDL
MODEL 3
REMARK VINA RESULT:      -7.1      3.454      4.931
REMARK  1 active torsions:
REMARK  status: ('A' for Active; 'I' for Inactive)
REMARK       I    between atoms: N4_16  and  C13_17 
REMARK    1  A    between atoms: C13_17  and  C14_19 
ROOT
HETATM    1  C14 UNL     1      23.018   7.041  50.633  1.00  0.00     0.226 C 
HETATM    2  C15 UNL     1      24.155   7.934  50.368  1.00  0.00     0.068 C 
HETATM    3  N5  UNL     1      25.056   8.628  50.147  1.00  0.00    -0.197 NA
ENDROOT
BRANCH   1   4
HETATM    4  C13 UNL     1      23.592   5.716  50.994  1.00  0.00     0.235 C 
HETATM    5  N4  UNL     1      23.615   4.668  50.033  1.00  0.00    -0.318 N 
HETATM    6  C11 UNL     1      24.055   3.279  49.940  1.00  0.00     0.133 A 
HETATM    7  C12 UNL     1      23.442   3.876  48.756  1.00  0.00     0.183 A 
HETATM    8  C2  UNL     1      25.494   2.954  49.881  1.00  0.00     0.057 C 
HETATM    9  N3  UNL     1      23.248   2.333  50.696  1.00  0.00    -0.350 N 
HETATM   10  C1  UNL     1      26.368   4.188  49.706  1.00  0.00     0.018 C 
HETATM   11  C3  UNL     1      26.064   2.124  50.936  1.00  0.00     0.008 C 
HETATM   12  C4  UNL     1      25.695   1.930  52.184  1.00  0.00     0.022 C 
HETATM   13  C5  UNL     1      25.058   2.681  53.333  1.00  0.00     0.207 C 
HETATM   14  N2  UNL     1      25.967   0.505  52.454  1.00  0.00    -0.385 N 
HETATM   15  N1  UNL     1      23.599   2.499  53.052  1.00  0.00    -0.271 NA
HETATM   16  C6  UNL     1      23.083   1.797  52.043  1.00  0.00     0.096 C 
HETATM   17  C7  UNL     1      22.374   0.533  51.762  1.00  0.00     0.078 C 
HETATM   18  C8  UNL     1      22.337  -0.403  52.967  1.00  0.00     0.010 C 
HETATM   19  C9  UNL     1      23.811  -0.558  53.378  1.00  0.00    -0.001 C 
HETATM   20  C10 UNL     1      25.160  -0.346  53.335  1.00  0.00     0.131 C 
HETATM   21  H14 UNL     1      26.800   0.110  51.965  1.00  0.00     0.160 HD
HETATM   22  H15 UNL     1      22.545   1.885  50.043  1.00  0.00     0.163 HD
HETATM   23  O1  UNL     1      23.957   5.862  52.191  1.00  0.00    -0.272 OA
ENDBRANCH   1   4
TORSDOF 1
ENDMDL
MODEL 4
REMARK VINA RESULT:      -7.1      3.625      5.444
REMARK  1 active torsions:
REMARK  status: ('A' for Active; 'I' for Inactive)
REMARK       I    between atoms: N4_16  and  C13_17 
REMARK    1  A    between atoms: C13_17  and  C14_19 
ROOT
HETATM    1  C14 UNL     1      22.873  -1.164  52.922  1.00  0.00     0.226 C 
HETATM    2  C15 UNL     1      21.916  -1.401  54.012  1.00  0.00     0.068 C 
HETATM    3  N5  UNL     1      21.150  -1.582  54.862  1.00  0.00    -0.197 NA
ENDROOT
BRANCH   1   4
HETATM    4  C13 UNL     1      22.835   0.295  52.633  1.00  0.00     0.235 C 
HETATM    5  N4  UNL     1      22.194   0.767  51.455  1.00  0.00    -0.318 N 
HETATM    6  C11 UNL     1      21.922   2.040  50.792  1.00  0.00     0.133 A 
HETATM    7  C12 UNL     1      21.438   0.824  50.146  1.00  0.00     0.183 A 
HETATM    8  C2  UNL     1      20.919   2.971  51.347  1.00  0.00     0.057 C 
HETATM    9  N3  UNL     1      23.088   2.682  50.206  1.00  0.00    -0.350 N 
HETATM   10  C1  UNL     1      20.108   2.355  52.479  1.00  0.00     0.018 C 
HETATM   11  C3  UNL     1      21.354   4.302  51.754  1.00  0.00     0.008 C 
HETATM   12  C4  UNL     1      22.527   4.750  52.147  1.00  0.00     0.022 C 
HETATM   13  C5  UNL     1      23.745   4.286  52.915  1.00  0.00     0.207 C 
HETATM   14  N2  UNL     1      22.636   6.107  51.579  1.00  0.00    -0.385 N 
HETATM   15  N1  UNL     1      24.550   3.616  51.845  1.00  0.00    -0.271 NA
HETATM   16  C6  UNL     1      24.218   3.536  50.558  1.00  0.00     0.096 C 
HETATM   17  C7  UNL     1      24.584   4.083  49.236  1.00  0.00     0.078 C 
HETATM   18  C8  UNL     1      25.551   5.260  49.333  1.00  0.00     0.010 C 
HETATM   19  C9  UNL     1      24.854   6.252  50.279  1.00  0.00    -0.001 C 
HETATM   20  C10 UNL     1      23.887   6.722  51.121  1.00  0.00     0.131 C 
HETATM   21  H14 UNL     1      21.738   6.636  51.513  1.00  0.00     0.160 HD
HETATM   22  H15 UNL     1      23.124   2.446  49.173  1.00  0.00     0.163 HD
HETATM   23  O1  UNL     1      23.447   0.812  53.606  1.00  0.00    -0.272 OA
ENDBRANCH   1   4
TORSDOF 1
ENDMDL
MODEL 5
REMARK VINA RESULT:      -6.9      3.034      5.629
REMARK  1 active torsions:
REMARK  status: ('A' for Active; 'I' for Inactive)
REMARK       I    between atoms: N4_16  and  C13_17 
REMARK    1  A    between atoms: C13_17  and  C14_19 
ROOT
HETATM    1  C14 UNL     1      22.952  -0.339  53.649  1.00  0.00     0.226 C 
HETATM    2  C15 UNL     1      21.606   0.113  54.027  1.00  0.00     0.068 C 
HETATM    3  N5  UNL     1      20.540   0.468  54.310  1.00  0.00    -0.197 NA
ENDROOT
BRANCH   1   4
HETATM    4  C13 UNL     1      23.501   0.690  52.723  1.00  0.00     0.235 C 
HETATM    5  N4  UNL     1      24.536   1.560  53.164  1.00  0.00    -0.318 N 
HETATM    6  C11 UNL     1      25.339   2.660  52.637  1.00  0.00     0.133 A 
HETATM    7  C12 UNL     1      25.584   2.243  54.014  1.00  0.00     0.183 A 
HETATM    8  C2  UNL     1      26.397   2.400  51.639  1.00  0.00     0.057 C 
HETATM    9  N3  UNL     1      24.613   3.905  52.442  1.00  0.00    -0.350 N 
HETATM   10  C1  UNL     1      26.664   0.915  51.439  1.00  0.00     0.018 C 
HETATM   11  C3  UNL     1      26.293   3.037  50.332  1.00  0.00     0.008 C 
HETATM   12  C4  UNL     1      25.249   3.467  49.655  1.00  0.00     0.022 C 
HETATM   13  C5  UNL     1      23.793   3.122  49.432  1.00  0.00     0.207 C 
HETATM   14  N2  UNL     1      25.703   4.695  48.977  1.00  0.00    -0.385 N 
HETATM   15  N1  UNL     1      23.128   3.825  50.574  1.00  0.00    -0.271 NA
HETATM   16  C6  UNL     1      23.742   4.580  51.485  1.00  0.00     0.096 C 
HETATM   17  C7  UNL     1      23.910   5.989  51.891  1.00  0.00     0.078 C 
HETATM   18  C8  UNL     1      23.351   6.970  50.863  1.00  0.00     0.010 C 
HETATM   19  C9  UNL     1      24.046   6.581  49.547  1.00  0.00    -0.001 C 
HETATM   20  C10 UNL     1      24.857   5.865  48.714  1.00  0.00     0.131 C 
HETATM   21  H14 UNL     1      26.703   4.695  48.677  1.00  0.00     0.160 HD
HETATM   22  H15 UNL     1      24.775   4.530  53.282  1.00  0.00     0.163 HD
HETATM   23  O1  UNL     1      22.844   0.521  51.661  1.00  0.00    -0.272 OA
ENDBRANCH   1   4
TORSDOF 1
ENDMDL
MODEL 6
REMARK VINA RESULT:      -6.8      3.178      6.320
REMARK  1 active torsions:
REMARK  status: ('A' for Active; 'I' for Inactive)
REMARK       I    between atoms: N4_16  and  C13_17 
REMARK    1  A    between atoms: C13_17  and  C14_19 
ROOT
HETATM    1  C14 UNL     1      26.859  -0.196  52.222  1.00  0.00     0.226 C 
HETATM    2  C15 UNL     1      26.793  -0.227  53.690  1.00  0.00     0.068 C 
HETATM    3  N5  UNL     1      26.725  -0.252  54.846  1.00  0.00    -0.197 NA
ENDROOT
BRANCH   1   4
HETATM    4  C13 UNL     1      26.102   1.010  51.788  1.00  0.00     0.235 C 
HETATM    5  N4  UNL     1      24.706   1.101  52.046  1.00  0.00    -0.318 N 
HETATM    6  C11 UNL     1      23.611   2.039  51.819  1.00  0.00     0.133 A 
HETATM    7  C12 UNL     1      23.300   0.790  52.508  1.00  0.00     0.183 A 
HETATM    8  C2  UNL     1      23.529   3.293  52.595  1.00  0.00     0.057 C 
HETATM    9  N3  UNL     1      23.185   2.154  50.433  1.00  0.00    -0.350 N 
HETATM   10  C1  UNL     1      24.535   3.344  53.736  1.00  0.00     0.018 C 
HETATM   11  C3  UNL     1      23.572   4.561  51.876  1.00  0.00     0.008 C 
HETATM   12  C4  UNL     1      24.098   4.884  50.714  1.00  0.00     0.022 C 
HETATM   13  C5  UNL     1      25.278   4.523  49.838  1.00  0.00     0.207 C 
HETATM   14  N2  UNL     1      23.164   5.858  50.120  1.00  0.00    -0.385 N 
HETATM   15  N1  UNL     1      24.754   3.342  49.081  1.00  0.00    -0.271 NA
HETATM   16  C6  UNL     1      23.527   2.833  49.187  1.00  0.00     0.096 C 
HETATM   17  C7  UNL     1      22.252   2.734  48.449  1.00  0.00     0.078 C 
HETATM   18  C8  UNL     1      22.211   3.637  47.219  1.00  0.00     0.010 C 
HETATM   19  C9  UNL     1      22.546   5.037  47.760  1.00  0.00    -0.001 C 
HETATM   20  C10 UNL     1      22.887   5.982  48.685  1.00  0.00     0.131 C 
HETATM   21  H14 UNL     1      22.684   6.487  50.802  1.00  0.00     0.160 HD
HETATM   22  H15 UNL     1      22.342   1.531  50.282  1.00  0.00     0.163 HD
HETATM   23  O1  UNL     1      26.976   1.732  51.238  1.00  0.00    -0.272 OA
ENDBRANCH   1   4
TORSDOF 1
ENDMDL
MODEL 7
REMARK VINA RESULT:      -6.6      4.895      7.476
REMARK  1 active torsions:
REMARK  status: ('A' for Active; 'I' for Inactive)
REMARK       I    between atoms: N4_16  and  C13_17 
REMARK    1  A    between atoms: C13_17  and  C14_19 
ROOT
HETATM    1  C14 UNL     1      24.590   2.566  53.414  1.00  0.00     0.226 C 
HETATM    2  C15 UNL     1      23.886   1.340  53.013  1.00  0.00     0.068 C 
HETATM    3  N5  UNL     1      23.340   0.373  52.684  1.00  0.00    -0.197 NA
ENDROOT
BRANCH   1   4
HETATM    4  C13 UNL     1      24.349   3.566  52.338  1.00  0.00     0.235 C 
HETATM    5  N4  UNL     1      25.175   3.574  51.179  1.00  0.00    -0.318 N 
HETATM    6  C11 UNL     1      25.306   4.326  49.934  1.00  0.00     0.133 A 
HETATM    7  C12 UNL     1      26.246   3.234  50.168  1.00  0.00     0.183 A 
HETATM    8  C2  UNL     1      24.312   4.160  48.855  1.00  0.00     0.057 C 
HETATM    9  N3  UNL     1      25.812   5.680  50.092  1.00  0.00    -0.350 N 
HETATM   10  C1  UNL     1      23.349   3.010  49.114  1.00  0.00     0.018 C 
HETATM   11  C3  UNL     1      23.546   5.325  48.428  1.00  0.00     0.008 C 
HETATM   12  C4  UNL     1      23.214   6.428  49.066  1.00  0.00     0.022 C 
HETATM   13  C5  UNL     1      22.857   6.895  50.460  1.00  0.00     0.207 C 
HETATM   14  N2  UNL     1      23.289   7.500  48.057  1.00  0.00    -0.385 N 
HETATM   15  N1  UNL     1      24.205   7.160  51.054  1.00  0.00    -0.271 NA
HETATM   16  C6  UNL     1      25.371   7.031  50.423  1.00  0.00     0.096 C 
HETATM   17  C7  UNL     1      26.464   7.838  49.842  1.00  0.00     0.078 C 
HETATM   18  C8  UNL     1      26.122   9.323  49.763  1.00  0.00     0.010 C 
HETATM   19  C9  UNL     1      24.794   9.370  48.988  1.00  0.00    -0.001 C 
HETATM   20  C10 UNL     1      23.700   8.881  48.335  1.00  0.00     0.131 C 
HETATM   21  H14 UNL     1      23.025   7.218  47.086  1.00  0.00     0.160 HD
HETATM   22  H15 UNL     1      26.854   5.680  49.901  1.00  0.00     0.163 HD
HETATM   23  O1  UNL     1      23.367   4.234  52.760  1.00  0.00    -0.272 OA
ENDBRANCH   1   4
TORSDOF 1
ENDMDL
MODEL 8
REMARK VINA RESULT:      -6.6      3.953      6.637
REMARK  1 active torsions:
REMARK  status: ('A' for Active; 'I' for Inactive)
REMARK       I    between atoms: N4_16  and  C13_17 
REMARK    1  A    between atoms: C13_17  and  C14_19 
ROOT
HETATM    1  C14 UNL     1      25.454   3.920  49.664  1.00  0.00     0.226 C 
HETATM    2  C15 UNL     1      26.398   3.231  50.555  1.00  0.00     0.068 C 
HETATM    3  N5  UNL     1      27.136   2.674  51.252  1.00  0.00    -0.197 NA
ENDROOT
BRANCH   1   4
HETATM    4  C13 UNL     1      24.090   3.482  50.070  1.00  0.00     0.235 C 
HETATM    5  N4  UNL     1      23.555   3.901  51.319  1.00  0.00    -0.318 N 
HETATM    6  C11 UNL     1      22.330   3.732  52.097  1.00  0.00     0.133 A 
HETATM    7  C12 UNL     1      23.389   4.554  52.673  1.00  0.00     0.183 A 
HETATM    8  C2  UNL     1      21.083   4.406  51.680  1.00  0.00     0.057 C 
HETATM    9  N3  UNL     1      22.144   2.403  52.658  1.00  0.00    -0.350 N 
HETATM   10  C1  UNL     1      21.304   5.408  50.556  1.00  0.00     0.018 C 
HETATM   11  C3  UNL     1      19.923   3.585  51.354  1.00  0.00     0.008 C 
HETATM   12  C4  UNL     1      19.829   2.344  50.925  1.00  0.00     0.022 C 
HETATM   13  C5  UNL     1      20.577   1.363  50.048  1.00  0.00     0.207 C 
HETATM   14  N2  UNL     1      18.636   1.790  51.591  1.00  0.00    -0.385 N 
HETATM   15  N1  UNL     1      21.564   0.776  51.010  1.00  0.00    -0.271 NA
HETATM   16  C6  UNL     1      21.657   1.073  52.305  1.00  0.00     0.096 C 
HETATM   17  C7  UNL     1      21.381   0.507  53.641  1.00  0.00     0.078 C 
HETATM   18  C8  UNL     1      20.562  -0.780  53.577  1.00  0.00     0.010 C 
HETATM   19  C9  UNL     1      19.316  -0.401  52.758  1.00  0.00    -0.001 C 
HETATM   20  C10 UNL     1      18.490   0.394  52.017  1.00  0.00     0.131 C 
HETATM   21  H14 UNL     1      17.861   2.471  51.754  1.00  0.00     0.160 HD
HETATM   22  H15 UNL     1      22.476   2.408  53.664  1.00  0.00     0.163 HD
HETATM   23  O1  UNL     1      23.701   2.772  49.104  1.00  0.00    -0.272 OA
ENDBRANCH   1   4
TORSDOF 1
ENDMDL
MODEL 9
REMARK VINA RESULT:      -6.4      3.620      6.002
REMARK  1 active torsions:
REMARK  status: ('A' for Active; 'I' for Inactive)
REMARK       I    between atoms: N4_16  and  C13_17 
REMARK    1  A    between atoms: C13_17  and  C14_19 
ROOT
HETATM    1  C14 UNL     1      16.035   3.265  51.461  1.00  0.00     0.226 C 
HETATM    2  C15 UNL     1      15.840   3.940  50.170  1.00  0.00     0.068 C 
HETATM    3  N5  UNL     1      15.690   4.457  49.145  1.00  0.00    -0.197 NA
ENDROOT
BRANCH   1   4
HETATM    4  C13 UNL     1      17.447   2.792  51.485  1.00  0.00     0.235 C 
HETATM    5  N4  UNL     1      17.781   1.532  50.916  1.00  0.00    -0.318 N 
HETATM    6  C11 UNL     1      18.966   0.701  50.718  1.00  0.00     0.133 A 
HETATM    7  C12 UNL     1      17.690   0.190  50.226  1.00  0.00     0.183 A 
HETATM    8  C2  UNL     1      19.986   1.082  49.720  1.00  0.00     0.057 C 
HETATM    9  N3  UNL     1      19.496   0.099  51.931  1.00  0.00    -0.350 N 
HETATM   10  C1  UNL     1      19.541   2.240  48.837  1.00  0.00     0.018 C 
HETATM   11  C3  UNL     1      21.346   1.339  50.179  1.00  0.00     0.008 C 
HETATM   12  C4  UNL     1      21.810   1.733  51.346  1.00  0.00     0.022 C 
HETATM   13  C5  UNL     1      21.415   2.615  52.510  1.00  0.00     0.207 C 
HETATM   14  N2  UNL     1      23.079   1.004  51.527  1.00  0.00    -0.385 N 
HETATM   15  N1  UNL     1      20.593   1.681  53.343  1.00  0.00    -0.271 NA
HETATM   16  C6  UNL     1      20.358   0.398  53.070  1.00  0.00     0.096 C 
HETATM   17  C7  UNL     1      20.722  -0.961  53.517  1.00  0.00     0.078 C 
HETATM   18  C8  UNL     1      21.876  -0.964  54.516  1.00  0.00     0.010 C 
HETATM   19  C9  UNL     1      22.998  -0.188  53.807  1.00  0.00    -0.001 C 
HETATM   20  C10 UNL     1      23.597   0.537  52.817  1.00  0.00     0.131 C 
HETATM   21  H14 UNL     1      23.619   0.826  50.651  1.00  0.00     0.160 HD
HETATM   22  H15 UNL     1      19.130  -0.892  52.009  1.00  0.00     0.163 HD
HETATM   23  O1  UNL     1      18.067   3.723  52.066  1.00  0.00    -0.272 OA
ENDBRANCH   1   4
TORSDOF 1
ENDMDL
