MODEL 1
REMARK VINA RESULT:      -6.5      0.000      0.000
REMARK  6 active torsions:
REMARK  status: ('A' for Active; 'I' for Inactive)
REMARK    1  A    between atoms: C3_3  and  C4_4 
REMARK    2  A    between atoms: C5_5  and  N1_6 
REMARK    3  A    between atoms: N1_6  and  C6_7 
REMARK    4  A    between atoms: C7_8  and  C8_9 
REMARK    5  A    between atoms: C8_9  and  C9_10 
REMARK    6  A    between atoms: C10_13  and  N3_14 
ROOT
HETATM    1  C4  UNL     1      23.312   1.020  52.613  1.00  0.00     0.009 C 
HETATM    2  C5  UNL     1      24.652   1.134  52.569  1.00  0.00     0.115 C 
HETATM    3  N2  UNL     1      25.264   2.352  52.078  1.00  0.00    -0.325 N 
HETATM    4  C10 UNL     1      25.526   2.885  50.791  1.00  0.00     0.155 C 
HETATM    5  C11 UNL     1      24.968   3.185  49.632  1.00  0.00     0.029 C 
HETATM    6  C12 UNL     1      23.492   2.928  49.410  1.00  0.00     0.032 C 
HETATM    7  C13 UNL     1      22.289   2.466  49.898  1.00  0.00     0.186 C 
HETATM    8  O2  UNL     1      21.799   1.887  51.115  1.00  0.00    -0.378 OA
HETATM    9  C14 UNL     1      22.546   2.275  52.285  1.00  0.00     0.210 C 
HETATM   10  H13 UNL     1      25.507   2.825  52.944  1.00  0.00     0.169 HD
ENDROOT
BRANCH   2  11
HETATM   11  N1  UNL     1      25.518   0.065  52.923  1.00  0.00    -0.352 N 
HETATM   12  H6  UNL     1      25.480  -0.082  53.972  1.00  0.00     0.166 HD
BRANCH  11  13
HETATM   13  C6  UNL     1      26.424  -0.899  52.444  1.00  0.00     0.085 C 
HETATM   14  C7  UNL     1      27.613  -0.968  53.013  1.00  0.00    -0.007 C 
BRANCH  14  15
HETATM   15  C8  UNL     1      28.114  -0.135  54.116  1.00  0.00     0.060 C 
BRANCH  15  16
HETATM   16  C9  UNL     1      29.476   0.439  53.781  1.00  0.00     0.226 C 
HETATM   17  F1  UNL     1      30.232  -0.534  53.195  1.00  0.00    -0.255 F 
ENDBRANCH  15  16
ENDBRANCH  14  15
ENDBRANCH  11  13
ENDBRANCH   2  11
BRANCH   1  18
HETATM   18  C3  UNL     1      22.677  -0.218  53.022  1.00  0.00     0.008 C 
HETATM   19  C2  UNL     1      21.911  -0.324  54.095  1.00  0.00    -0.030 C 
HETATM   20  C1  UNL     1      21.286  -1.619  54.465  1.00  0.00     0.036 C 
ENDBRANCH   1  18
BRANCH   4  21
HETATM   21  N3  UNL     1      26.937   3.197  50.807  1.00  0.00    -0.080 NA
HETATM   22  O1  UNL     1      27.581   2.611  51.722  1.00  0.00    -0.059 OA
ENDBRANCH   4  21
TORSDOF 6
ENDMDL
MODEL 2
REMARK VINA RESULT:      -6.5      2.960      5.194
REMARK  6 active torsions:
REMARK  status: ('A' for Active; 'I' for Inactive)
REMARK    1  A    between atoms: C3_3  and  C4_4 
REMARK    2  A    between atoms: C5_5  and  N1_6 
REMARK    3  A    between atoms: N1_6  and  C6_7 
REMARK    4  A    between atoms: C7_8  and  C8_9 
REMARK    5  A    between atoms: C8_9  and  C9_10 
REMARK    6  A    between atoms: C10_13  and  N3_14 
ROOT
HETATM    1  C4  UNL     1      24.384  -0.018  53.145  1.00  0.00     0.009 C 
HETATM    2  C5  UNL     1      24.463   0.994  52.262  1.00  0.00     0.115 C 
HETATM    3  N2  UNL     1      25.725   1.306  51.623  1.00  0.00    -0.325 N 
HETATM    4  C10 UNL     1      26.888   2.018  52.012  1.00  0.00     0.155 C 
HETATM    5  C11 UNL     1      27.810   2.112  52.953  1.00  0.00     0.029 C 
HETATM    6  C12 UNL     1      27.768   1.190  54.154  1.00  0.00     0.032 C 
HETATM    7  C13 UNL     1      27.147   0.164  54.832  1.00  0.00     0.186 C 
HETATM    8  O2  UNL     1      25.993  -0.669  54.653  1.00  0.00    -0.378 OA
HETATM    9  C14 UNL     1      25.625  -0.863  53.272  1.00  0.00     0.210 C 
HETATM   10  H13 UNL     1      25.614   0.861  50.717  1.00  0.00     0.169 HD
ENDROOT
BRANCH   2  11
HETATM   11  N1  UNL     1      23.358   1.837  51.970  1.00  0.00    -0.352 N 
HETATM   12  H6  UNL     1      22.841   2.058  52.869  1.00  0.00     0.166 HD
BRANCH  11  13
HETATM   13  C6  UNL     1      22.652   2.514  50.959  1.00  0.00     0.085 C 
HETATM   14  C7  UNL     1      21.670   1.872  50.352  1.00  0.00    -0.007 C 
BRANCH  14  15
HETATM   15  C8  UNL     1      21.217   0.499  50.617  1.00  0.00     0.060 C 
BRANCH  15  16
HETATM   16  C9  UNL     1      19.913   0.503  51.390  1.00  0.00     0.226 C 
HETATM   17  F1  UNL     1      20.125   1.083  52.606  1.00  0.00    -0.255 F 
ENDBRANCH  15  16
ENDBRANCH  14  15
ENDBRANCH  11  13
ENDBRANCH   2  11
BRANCH   1  18
HETATM   18  C3  UNL     1      23.153  -0.296  53.858  1.00  0.00     0.008 C 
HETATM   19  C2  UNL     1      22.370  -1.328  53.587  1.00  0.00    -0.030 C 
HETATM   20  C1  UNL     1      21.120  -1.564  54.351  1.00  0.00     0.036 C 
ENDBRANCH   1  18
BRANCH   4  21
HETATM   21  N3  UNL     1      27.094   2.983  50.957  1.00  0.00    -0.080 NA
HETATM   22  O1  UNL     1      26.024   3.423  50.449  1.00  0.00    -0.059 OA
ENDBRANCH   4  21
TORSDOF 6
ENDMDL
MODEL 3
REMARK VINA RESULT:      -6.4      2.345      4.536
REMARK  6 active torsions:
REMARK  status: ('A' for Active; 'I' for Inactive)
REMARK    1  A    between atoms: C3_3  and  C4_4 
REMARK    2  A    between atoms: C5_5  and  N1_6 
REMARK    3  A    between atoms: N1_6  and  C6_7 
REMARK    4  A    between atoms: C7_8  and  C8_9 
REMARK    5  A    between atoms: C8_9  and  C9_10 
REMARK    6  A    between atoms: C10_13  and  N3_14 
ROOT
HETATM    1  C4  UNL     1      23.818   1.287  52.100  1.00  0.00     0.009 C 
HETATM    2  C5  UNL     1      24.121   0.417  53.081  1.00  0.00     0.115 C 
HETATM    3  N2  UNL     1      23.175  -0.613  53.457  1.00  0.00    -0.325 N 
HETATM    4  C10 UNL     1      22.009  -0.648  54.264  1.00  0.00     0.155 C 
HETATM    5  C11 UNL     1      20.835  -0.075  54.458  1.00  0.00     0.029 C 
HETATM    6  C12 UNL     1      20.399   1.080  53.581  1.00  0.00     0.032 C 
HETATM    7  C13 UNL     1      20.673   1.940  52.540  1.00  0.00     0.186 C 
HETATM    8  O2  UNL     1      21.750   2.170  51.621  1.00  0.00    -0.378 OA
HETATM    9  C14 UNL     1      22.544   0.998  51.350  1.00  0.00     0.210 C 
HETATM   10  H13 UNL     1      23.548  -1.424  52.972  1.00  0.00     0.169 HD
ENDROOT
BRANCH   2  11
HETATM   11  N1  UNL     1      25.322   0.507  53.832  1.00  0.00    -0.352 N 
HETATM   12  H6  UNL     1      25.708   1.491  53.757  1.00  0.00     0.166 HD
BRANCH  11  13
HETATM   13  C6  UNL     1      26.231  -0.189  54.652  1.00  0.00     0.085 C 
HETATM   14  C7  UNL     1      27.514  -0.125  54.348  1.00  0.00    -0.007 C 
BRANCH  14  15
HETATM   15  C8  UNL     1      28.121   0.605  53.225  1.00  0.00     0.060 C 
BRANCH  15  16
HETATM   16  C9  UNL     1      28.714   1.918  53.694  1.00  0.00     0.226 C 
HETATM   17  F1  UNL     1      27.717   2.844  53.786  1.00  0.00    -0.255 F 
ENDBRANCH  15  16
ENDBRANCH  14  15
ENDBRANCH  11  13
ENDBRANCH   2  11
BRANCH   1  18
HETATM   18  C3  UNL     1      24.712   2.378  51.762  1.00  0.00     0.008 C 
HETATM   19  C2  UNL     1      25.477   2.385  50.682  1.00  0.00    -0.030 C 
HETATM   20  C1  UNL     1      26.374   3.530  50.386  1.00  0.00     0.036 C 
ENDBRANCH   1  18
BRANCH   4  21
HETATM   21  N3  UNL     1      22.247  -1.722  55.201  1.00  0.00    -0.080 NA
HETATM   22  O1  UNL     1      23.242  -1.532  55.956  1.00  0.00    -0.059 OA
ENDBRANCH   4  21
TORSDOF 6
ENDMDL
MODEL 4
REMARK VINA RESULT:      -6.2      3.211      5.377
REMARK  6 active torsions:
REMARK  status: ('A' for Active; 'I' for Inactive)
REMARK    1  A    between atoms: C3_3  and  C4_4 
REMARK    2  A    between atoms: C5_5  and  N1_6 
REMARK    3  A    between atoms: N1_6  and  C6_7 
REMARK    4  A    between atoms: C7_8  and  C8_9 
REMARK    5  A    between atoms: C8_9  and  C9_10 
REMARK    6  A    between atoms: C10_13  and  N3_14 
ROOT
HETATM    1  C4  UNL     1      23.218   1.646  52.204  1.00  0.00     0.009 C 
HETATM    2  C5  UNL     1      23.539   0.572  52.948  1.00  0.00     0.115 C 
HETATM    3  N2  UNL     1      24.761   0.563  53.727  1.00  0.00    -0.325 N 
HETATM    4  C10 UNL     1      26.128   0.330  53.431  1.00  0.00     0.155 C 
HETATM    5  C11 UNL     1      27.120   0.696  52.639  1.00  0.00     0.029 C 
HETATM    6  C12 UNL     1      26.897   1.753  51.579  1.00  0.00     0.032 C 
HETATM    7  C13 UNL     1      26.042   2.635  50.955  1.00  0.00     0.186 C 
HETATM    8  O2  UNL     1      24.664   3.021  51.062  1.00  0.00    -0.378 OA
HETATM    9  C14 UNL     1      24.113   2.845  52.383  1.00  0.00     0.210 C 
HETATM   10  H13 UNL     1      24.415   0.786  54.656  1.00  0.00     0.169 HD
ENDROOT
BRANCH   2  11
HETATM   11  N1  UNL     1      22.755  -0.612  52.952  1.00  0.00    -0.352 N 
HETATM   12  H6  UNL     1      22.564  -0.907  51.952  1.00  0.00     0.166 HD
BRANCH  11  13
HETATM   13  C6  UNL     1      22.113  -1.574  53.754  1.00  0.00     0.085 C 
HETATM   14  C7  UNL     1      20.874  -1.332  54.141  1.00  0.00    -0.007 C 
BRANCH  14  15
HETATM   15  C8  UNL     1      20.066  -0.144  53.825  1.00  0.00     0.060 C 
BRANCH  15  16
HETATM   16  C9  UNL     1      18.910  -0.507  52.915  1.00  0.00     0.226 C 
HETATM   17  F1  UNL     1      19.319  -0.395  51.618  1.00  0.00    -0.255 F 
ENDBRANCH  15  16
ENDBRANCH  14  15
ENDBRANCH  11  13
ENDBRANCH   2  11
BRANCH   1  18
HETATM   18  C3  UNL     1      22.045   1.646  51.353  1.00  0.00     0.008 C 
HETATM   19  C2  UNL     1      22.052   1.218  50.101  1.00  0.00    -0.030 C 
HETATM   20  C1  UNL     1      20.819   1.241  49.275  1.00  0.00     0.036 C 
ENDBRANCH   1  18
BRANCH   4  21
HETATM   21  N3  UNL     1      26.534  -0.691  54.369  1.00  0.00    -0.080 NA
HETATM   22  O1  UNL     1      25.957  -0.615  55.491  1.00  0.00    -0.059 OA
ENDBRANCH   4  21
TORSDOF 6
ENDMDL
MODEL 5
REMARK VINA RESULT:      -5.9      1.836      2.246
REMARK  6 active torsions:
REMARK  status: ('A' for Active; 'I' for Inactive)
REMARK    1  A    between atoms: C3_3  and  C4_4 
REMARK    2  A    between atoms: C5_5  and  N1_6 
REMARK    3  A    between atoms: N1_6  and  C6_7 
REMARK    4  A    between atoms: C7_8  and  C8_9 
REMARK    5  A    between atoms: C8_9  and  C9_10 
REMARK    6  A    between atoms: C10_13  and  N3_14 
ROOT
HETATM    1  C4  UNL     1      22.607   1.203  52.061  1.00  0.00     0.009 C 
HETATM    2  C5  UNL     1      23.655   2.022  51.862  1.00  0.00     0.115 C 
HETATM    3  N2  UNL     1      23.539   3.147  50.956  1.00  0.00    -0.325 N 
HETATM    4  C10 UNL     1      23.599   3.301  49.548  1.00  0.00     0.155 C 
HETATM    5  C11 UNL     1      23.095   2.858  48.409  1.00  0.00     0.029 C 
HETATM    6  C12 UNL     1      22.043   1.770  48.416  1.00  0.00     0.032 C 
HETATM    7  C13 UNL     1      21.252   0.897  49.132  1.00  0.00     0.186 C 
HETATM    8  O2  UNL     1      21.037   0.560  50.509  1.00  0.00    -0.378 OA
HETATM    9  C14 UNL     1      21.315   1.641  51.423  1.00  0.00     0.210 C 
HETATM   10  H13 UNL     1      23.386   3.917  51.601  1.00  0.00     0.169 HD
ENDROOT
BRANCH   2  11
HETATM   11  N1  UNL     1      24.924   1.792  52.457  1.00  0.00    -0.352 N 
HETATM   12  H6  UNL     1      25.470   1.107  51.859  1.00  0.00     0.166 HD
BRANCH  11  13
HETATM   13  C6  UNL     1      25.772   2.104  53.536  1.00  0.00     0.085 C 
HETATM   14  C7  UNL     1      26.306   1.104  54.214  1.00  0.00    -0.007 C 
BRANCH  14  15
HETATM   15  C8  UNL     1      26.112  -0.332  53.969  1.00  0.00     0.060 C 
BRANCH  15  16
HETATM   16  C9  UNL     1      27.183  -0.869  53.041  1.00  0.00     0.226 C 
HETATM   17  F1  UNL     1      26.719  -0.819  51.759  1.00  0.00    -0.255 F 
ENDBRANCH  15  16
ENDBRANCH  14  15
ENDBRANCH  11  13
ENDBRANCH   2  11
BRANCH   1  18
HETATM   18  C3  UNL     1      22.723   0.025  52.898  1.00  0.00     0.008 C 
HETATM   19  C2  UNL     1      22.065  -0.130  54.035  1.00  0.00    -0.030 C 
HETATM   20  C1  UNL     1      22.224  -1.360  54.852  1.00  0.00     0.036 C 
ENDBRANCH   1  18
BRANCH   4  21
HETATM   21  N3  UNL     1      24.590   4.330  49.335  1.00  0.00    -0.080 NA
HETATM   22  O1  UNL     1      25.780   3.907  49.355  1.00  0.00    -0.059 OA
ENDBRANCH   4  21
TORSDOF 6
ENDMDL
MODEL 6
REMARK VINA RESULT:      -5.9      2.193      4.254
REMARK  6 active torsions:
REMARK  status: ('A' for Active; 'I' for Inactive)
REMARK    1  A    between atoms: C3_3  and  C4_4 
REMARK    2  A    between atoms: C5_5  and  N1_6 
REMARK    3  A    between atoms: N1_6  and  C6_7 
REMARK    4  A    between atoms: C7_8  and  C8_9 
REMARK    5  A    between atoms: C8_9  and  C9_10 
REMARK    6  A    between atoms: C10_13  and  N3_14 
ROOT
HETATM    1  C4  UNL     1      22.861   1.388  51.970  1.00  0.00     0.009 C 
HETATM    2  C5  UNL     1      24.072   1.081  52.468  1.00  0.00     0.115 C 
HETATM    3  N2  UNL     1      24.306  -0.217  53.067  1.00  0.00    -0.325 N 
HETATM    4  C10 UNL     1      24.027  -0.795  54.332  1.00  0.00     0.155 C 
HETATM    5  C11 UNL     1      23.062  -1.022  55.205  1.00  0.00     0.029 C 
HETATM    6  C12 UNL     1      21.651  -0.557  54.917  1.00  0.00     0.032 C 
HETATM    7  C13 UNL     1      20.767   0.079  54.071  1.00  0.00     0.186 C 
HETATM    8  O2  UNL     1      20.817   0.734  52.796  1.00  0.00    -0.378 OA
HETATM    9  C14 UNL     1      21.870   0.253  51.936  1.00  0.00     0.210 C 
HETATM   10  H13 UNL     1      24.773  -0.712  52.313  1.00  0.00     0.169 HD
ENDROOT
BRANCH   2  11
HETATM   11  N1  UNL     1      25.139   2.017  52.501  1.00  0.00    -0.352 N 
HETATM   12  H6  UNL     1      24.922   2.770  53.215  1.00  0.00     0.166 HD
BRANCH  11  13
HETATM   13  C6  UNL     1      26.394   2.364  51.964  1.00  0.00     0.085 C 
HETATM   14  C7  UNL     1      27.472   2.068  52.667  1.00  0.00    -0.007 C 
BRANCH  14  15
HETATM   15  C8  UNL     1      27.516   1.402  53.977  1.00  0.00     0.060 C 
BRANCH  15  16
HETATM   16  C9  UNL     1      28.902   0.856  54.256  1.00  0.00     0.226 C 
HETATM   17  F1  UNL     1      28.784  -0.294  54.982  1.00  0.00    -0.255 F 
ENDBRANCH  15  16
ENDBRANCH  14  15
ENDBRANCH  11  13
ENDBRANCH   2  11
BRANCH   1  18
HETATM   18  C3  UNL     1      22.579   2.708  51.441  1.00  0.00     0.008 C 
HETATM   19  C2  UNL     1      22.174   3.722  52.188  1.00  0.00    -0.030 C 
HETATM   20  C1  UNL     1      21.900   5.053  51.592  1.00  0.00     0.036 C 
ENDBRANCH   1  18
BRANCH   4  21
HETATM   21  N3  UNL     1      25.299  -1.307  54.787  1.00  0.00    -0.080 NA
HETATM   22  O1  UNL     1      25.613  -0.935  55.953  1.00  0.00    -0.059 OA
ENDBRANCH   4  21
TORSDOF 6
ENDMDL
MODEL 7
REMARK VINA RESULT:      -5.9      2.329      4.620
REMARK  6 active torsions:
REMARK  status: ('A' for Active; 'I' for Inactive)
REMARK    1  A    between atoms: C3_3  and  C4_4 
REMARK    2  A    between atoms: C5_5  and  N1_6 
REMARK    3  A    between atoms: N1_6  and  C6_7 
REMARK    4  A    between atoms: C7_8  and  C8_9 
REMARK    5  A    between atoms: C8_9  and  C9_10 
REMARK    6  A    between atoms: C10_13  and  N3_14 
ROOT
HETATM    1  C4  UNL     1      23.092   1.209  51.871  1.00  0.00     0.009 C 
HETATM    2  C5  UNL     1      23.806   0.764  52.921  1.00  0.00     0.115 C 
HETATM    3  N2  UNL     1      23.441  -0.474  53.579  1.00  0.00    -0.325 N 
HETATM    4  C10 UNL     1      22.462  -0.842  54.536  1.00  0.00     0.155 C 
HETATM    5  C11 UNL     1      21.169  -0.797  54.802  1.00  0.00     0.029 C 
HETATM    6  C12 UNL     1      20.214  -0.139  53.829  1.00  0.00     0.032 C 
HETATM    7  C13 UNL     1      20.017   0.531  52.641  1.00  0.00     0.186 C 
HETATM    8  O2  UNL     1      20.823   1.011  51.557  1.00  0.00    -0.378 OA
HETATM    9  C14 UNL     1      22.039   0.261  51.360  1.00  0.00     0.210 C 
HETATM   10  H13 UNL     1      24.107  -1.127  53.175  1.00  0.00     0.169 HD
ENDROOT
BRANCH   2  11
HETATM   11  N1  UNL     1      24.884   1.504  53.475  1.00  0.00    -0.352 N 
HETATM   12  H6  UNL     1      24.572   2.503  53.644  1.00  0.00     0.166 HD
BRANCH  11  13
HETATM   13  C6  UNL     1      26.225   1.456  53.902  1.00  0.00     0.085 C 
HETATM   14  C7  UNL     1      27.027   0.577  53.328  1.00  0.00    -0.007 C 
BRANCH  14  15
HETATM   15  C8  UNL     1      26.674  -0.381  52.271  1.00  0.00     0.060 C 
BRANCH  15  16
HETATM   16  C9  UNL     1      26.935  -1.803  52.724  1.00  0.00     0.226 C 
HETATM   17  F1  UNL     1      26.611  -2.655  51.709  1.00  0.00    -0.255 F 
ENDBRANCH  15  16
ENDBRANCH  14  15
ENDBRANCH  11  13
ENDBRANCH   2  11
BRANCH   1  18
HETATM   18  C3  UNL     1      23.387   2.485  51.250  1.00  0.00     0.008 C 
HETATM   19  C2  UNL     1      23.958   2.603  50.062  1.00  0.00    -0.030 C 
HETATM   20  C1  UNL     1      24.236   3.937  49.474  1.00  0.00     0.036 C 
ENDBRANCH   1  18
BRANCH   4  21
HETATM   21  N3  UNL     1      23.206  -1.503  55.583  1.00  0.00    -0.080 NA
HETATM   22  O1  UNL     1      24.456  -1.333  55.509  1.00  0.00    -0.059 OA
ENDBRANCH   4  21
TORSDOF 6
ENDMDL
MODEL 8
REMARK VINA RESULT:      -5.8      2.918      5.098
REMARK  6 active torsions:
REMARK  status: ('A' for Active; 'I' for Inactive)
REMARK    1  A    between atoms: C3_3  and  C4_4 
REMARK    2  A    between atoms: C5_5  and  N1_6 
REMARK    3  A    between atoms: N1_6  and  C6_7 
REMARK    4  A    between atoms: C7_8  and  C8_9 
REMARK    5  A    between atoms: C8_9  and  C9_10 
REMARK    6  A    between atoms: C10_13  and  N3_14 
ROOT
HETATM    1  C4  UNL     1      22.792   1.023  51.649  1.00  0.00     0.009 C 
HETATM    2  C5  UNL     1      23.957   0.736  52.258  1.00  0.00     0.115 C 
HETATM    3  N2  UNL     1      24.077  -0.451  53.079  1.00  0.00    -0.325 N 
HETATM    4  C10 UNL     1      23.703  -0.787  54.406  1.00  0.00     0.155 C 
HETATM    5  C11 UNL     1      22.688  -0.804  55.250  1.00  0.00     0.029 C 
HETATM    6  C12 UNL     1      21.325  -0.313  54.811  1.00  0.00     0.032 C 
HETATM    7  C13 UNL     1      20.524   0.219  53.822  1.00  0.00     0.186 C 
HETATM    8  O2  UNL     1      20.675   0.641  52.460  1.00  0.00    -0.378 OA
HETATM    9  C14 UNL     1      21.730  -0.041  51.753  1.00  0.00     0.210 C 
HETATM   10  H13 UNL     1      24.543  -1.094  52.446  1.00  0.00     0.169 HD
ENDROOT
BRANCH   2  11
HETATM   11  N1  UNL     1      25.082   1.600  52.192  1.00  0.00    -0.352 N 
HETATM   12  H6  UNL     1      24.828   2.537  52.617  1.00  0.00     0.166 HD
BRANCH  11  13
HETATM   13  C6  UNL     1      26.424   1.726  51.786  1.00  0.00     0.085 C 
HETATM   14  C7  UNL     1      26.737   2.728  50.984  1.00  0.00    -0.007 C 
BRANCH  14  15
HETATM   15  C8  UNL     1      25.825   3.752  50.453  1.00  0.00     0.060 C 
BRANCH  15  16
HETATM   16  C9  UNL     1      26.478   4.518  49.320  1.00  0.00     0.226 C 
HETATM   17  F1  UNL     1      25.514   5.208  48.643  1.00  0.00    -0.255 F 
ENDBRANCH  15  16
ENDBRANCH  14  15
ENDBRANCH  11  13
ENDBRANCH   2  11
BRANCH   1  18
HETATM   18  C3  UNL     1      22.623   2.247  50.891  1.00  0.00     0.008 C 
HETATM   19  C2  UNL     1      22.605   2.290  49.569  1.00  0.00    -0.030 C 
HETATM   20  C1  UNL     1      22.428   3.573  48.845  1.00  0.00     0.036 C 
ENDBRANCH   1  18
BRANCH   4  21
HETATM   21  N3  UNL     1      24.916  -1.286  55.010  1.00  0.00    -0.080 NA
HETATM   22  O1  UNL     1      25.969  -0.738  54.576  1.00  0.00    -0.059 OA
ENDBRANCH   4  21
TORSDOF 6
ENDMDL
MODEL 9
REMARK VINA RESULT:      -5.7      3.353      6.515
REMARK  6 active torsions:
REMARK  status: ('A' for Active; 'I' for Inactive)
REMARK    1  A    between atoms: C3_3  and  C4_4 
REMARK    2  A    between atoms: C5_5  and  N1_6 
REMARK    3  A    between atoms: N1_6  and  C6_7 
REMARK    4  A    between atoms: C7_8  and  C8_9 
REMARK    5  A    between atoms: C8_9  and  C9_10 
REMARK    6  A    between atoms: C10_13  and  N3_14 
ROOT
HETATM    1  C4  UNL     1      24.250   2.287  51.853  1.00  0.00     0.009 C 
HETATM    2  C5  UNL     1      23.199   1.448  51.813  1.00  0.00     0.115 C 
HETATM    3  N2  UNL     1      22.737   0.799  53.023  1.00  0.00    -0.325 N 
HETATM    4  C10 UNL     1      23.161  -0.328  53.771  1.00  0.00     0.155 C 
HETATM    5  C11 UNL     1      24.206  -0.876  54.365  1.00  0.00     0.029 C 
HETATM    6  C12 UNL     1      25.549  -0.178  54.337  1.00  0.00     0.032 C 
HETATM    7  C13 UNL     1      26.312   0.896  53.933  1.00  0.00     0.186 C 
HETATM    8  O2  UNL     1      26.118   2.103  53.182  1.00  0.00    -0.378 OA
HETATM    9  C14 UNL     1      24.768   2.607  53.232  1.00  0.00     0.210 C 
HETATM   10  H13 UNL     1      21.942   1.377  53.277  1.00  0.00     0.169 HD
ENDROOT
BRANCH   2  11
HETATM   11  N1  UNL     1      22.547   1.105  50.599  1.00  0.00    -0.352 N 
HETATM   12  H6  UNL     1      23.265   0.745  49.907  1.00  0.00     0.166 HD
BRANCH  11  13
HETATM   13  C6  UNL     1      21.315   1.044  49.922  1.00  0.00     0.085 C 
HETATM   14  C7  UNL     1      21.273   1.466  48.671  1.00  0.00    -0.007 C 
BRANCH  14  15
HETATM   15  C8  UNL     1      22.391   2.005  47.883  1.00  0.00     0.060 C 
BRANCH  15  16
HETATM   16  C9  UNL     1      22.151   3.460  47.535  1.00  0.00     0.226 C 
HETATM   17  F1  UNL     1      22.006   4.171  48.690  1.00  0.00    -0.255 F 
ENDBRANCH  15  16
ENDBRANCH  14  15
ENDBRANCH  11  13
ENDBRANCH   2  11
BRANCH   1  18
HETATM   18  C3  UNL     1      24.782   2.883  50.644  1.00  0.00     0.008 C 
HETATM   19  C2  UNL     1      24.826   4.189  50.433  1.00  0.00    -0.030 C 
HETATM   20  C1  UNL     1      25.383   4.744  49.174  1.00  0.00     0.036 C 
ENDBRANCH   1  18
BRANCH   4  21
HETATM   21  N3  UNL     1      21.977  -1.144  53.902  1.00  0.00    -0.080 NA
HETATM   22  O1  UNL     1      21.841  -1.671  55.043  1.00  0.00    -0.059 OA
ENDBRANCH   4  21
TORSDOF 6
ENDMDL
