MODEL 1
REMARK VINA RESULT:      -7.9      0.000      0.000
REMARK  5 active torsions:
REMARK  status: ('A' for Active; 'I' for Inactive)
REMARK    1  A    between atoms: C3_3  and  C5_5 
REMARK    2  A    between atoms: C5_5  and  C6_6 
REMARK    3  A    between atoms: N1_8  and  C8_9 
REMARK    4  A    between atoms: C19_22  and  O2_23 
REMARK    5  A    between atoms: O2_23  and  N2_24 
ROOT
HETATM    1  C6  UNL     1      24.983   0.874  53.333  1.00  0.00    -0.004 C 
HETATM    2  C7  UNL     1      25.138   2.346  53.216  1.00  0.00     0.160 C 
HETATM    3  N1  UNL     1      24.397   2.869  52.142  1.00  0.00    -0.394 N 
HETATM    4  C17 UNL     1      23.048   3.197  52.460  1.00  0.00     0.196 C 
HETATM    5  S1  UNL     1      21.996   1.746  52.017  1.00  0.00    -0.119 SA
HETATM    6  C18 UNL     1      22.474   0.390  53.132  1.00  0.00     0.086 C 
HETATM    7  C19 UNL     1      23.700   0.162  53.575  1.00  0.00     0.106 C 
ENDROOT
BRANCH   3   8
HETATM    8  C8  UNL     1      24.697   2.450  50.821  1.00  0.00     0.094 C 
HETATM    9  C9  UNL     1      26.279   2.224  50.630  1.00  0.00     0.026 C 
HETATM   10  C10 UNL     1      26.606   3.658  50.069  1.00  0.00     0.002 C 
HETATM   11  O1  UNL     1      25.279   4.229  50.544  1.00  0.00     0.000 OA
HETATM   12  C11 UNL     1      24.227   4.430  49.315  1.00  0.00    -0.004 A 
HETATM   13  C14 UNL     1      24.211   3.476  49.749  1.00  0.00     0.014 A 
HETATM   14  C12 UNL     1      24.455   5.936  48.852  1.00  0.00    -0.008 A 
HETATM   15  C16 UNL     1      23.138   4.038  48.315  1.00  0.00    -0.019 A 
HETATM   16  C13 UNL     1      24.570   4.890  49.473  1.00  0.00     0.043 A 
HETATM   17  C15 UNL     1      23.168   2.824  48.922  1.00  0.00    -0.017 A 
ENDBRANCH   3   8
BRANCH   1  18
HETATM   18  C5  UNL     1      25.960  -0.053  53.235  1.00  0.00     0.018 C 
BRANCH  18  19
HETATM   19  C3  UNL     1      27.198  -0.838  53.068  1.00  0.00    -0.066 C 
HETATM   20  C2  UNL     1      28.464  -0.459  53.379  1.00  0.00    -0.024 C 
HETATM   21  C1  UNL     1      29.130   0.723  53.968  1.00  0.00     0.036 C 
HETATM   22  C4  UNL     1      26.906  -2.164  52.462  1.00  0.00     0.048 C 
ENDBRANCH  18  19
ENDBRANCH   1  18
BRANCH   7  23
HETATM   23  O2  UNL     1      23.581  -0.960  54.383  1.00  0.00    -0.265 OA
BRANCH  23  24
HETATM   24  N2  UNL     1      22.444  -1.139  55.150  1.00  0.00    -0.209 NA
HETATM   25  H23 UNL     1      22.530  -0.655  56.064  1.00  0.00     0.150 HD
HETATM   26  H24 UNL     1      22.176  -2.140  55.263  1.00  0.00     0.150 HD
ENDBRANCH  23  24
ENDBRANCH   7  23
TORSDOF 5
ENDMDL
MODEL 2
REMARK VINA RESULT:      -7.2      2.546      6.598
REMARK  5 active torsions:
REMARK  status: ('A' for Active; 'I' for Inactive)
REMARK    1  A    between atoms: C3_3  and  C5_5 
REMARK    2  A    between atoms: C5_5  and  C6_6 
REMARK    3  A    between atoms: N1_8  and  C8_9 
REMARK    4  A    between atoms: C19_22  and  O2_23 
REMARK    5  A    between atoms: O2_23  and  N2_24 
ROOT
HETATM    1  C6  UNL     1      24.008   3.732  50.220  1.00  0.00    -0.004 C 
HETATM    2  C7  UNL     1      23.249   3.794  51.496  1.00  0.00     0.160 C 
HETATM    3  N1  UNL     1      23.485   2.668  52.303  1.00  0.00    -0.394 N 
HETATM    4  C17 UNL     1      24.619   2.783  53.158  1.00  0.00     0.196 C 
HETATM    5  S1  UNL     1      26.058   2.021  52.289  1.00  0.00    -0.119 SA
HETATM    6  C18 UNL     1      26.403   3.058  50.833  1.00  0.00     0.086 C 
HETATM    7  C19 UNL     1      25.489   3.678  50.104  1.00  0.00     0.106 C 
ENDROOT
BRANCH   3   8
HETATM    8  C8  UNL     1      23.126   1.383  51.825  1.00  0.00     0.094 C 
HETATM    9  C9  UNL     1      21.934   1.477  50.748  1.00  0.00     0.026 C 
HETATM   10  C10 UNL     1      20.750   1.246  51.760  1.00  0.00     0.002 C 
HETATM   11  O1  UNL     1      21.626   1.536  52.969  1.00  0.00     0.000 OA
HETATM   12  C11 UNL     1      22.037   0.174  53.765  1.00  0.00    -0.004 A 
HETATM   13  C14 UNL     1      22.679   0.427  52.976  1.00  0.00     0.014 A 
HETATM   14  C12 UNL     1      20.919   0.030  54.890  1.00  0.00    -0.008 A 
HETATM   15  C16 UNL     1      22.858  -1.076  54.087  1.00  0.00    -0.019 A 
HETATM   16  C13 UNL     1      21.555   0.474  53.945  1.00  0.00     0.043 A 
HETATM   17  C15 UNL     1      23.648  -0.692  53.053  1.00  0.00    -0.017 A 
ENDBRANCH   3   8
BRANCH   1  18
HETATM   18  C5  UNL     1      23.493   3.709  48.973  1.00  0.00     0.018 C 
BRANCH  18  19
HETATM   19  C3  UNL     1      22.700   3.810  47.733  1.00  0.00    -0.066 C 
HETATM   20  C2  UNL     1      22.360   4.939  47.060  1.00  0.00    -0.024 C 
HETATM   21  C1  UNL     1      22.594   6.393  47.191  1.00  0.00     0.036 C 
HETATM   22  C4  UNL     1      22.257   2.466  47.276  1.00  0.00     0.048 C 
ENDBRANCH  18  19
ENDBRANCH   1  18
BRANCH   7  23
HETATM   23  O2  UNL     1      26.211   4.335  49.119  1.00  0.00    -0.265 OA
BRANCH  23  24
HETATM   24  N2  UNL     1      27.572   4.527  49.272  1.00  0.00    -0.209 NA
HETATM   25  H23 UNL     1      28.049   4.567  48.351  1.00  0.00     0.150 HD
HETATM   26  H24 UNL     1      28.017   3.834  49.912  1.00  0.00     0.150 HD
ENDBRANCH  23  24
ENDBRANCH   7  23
TORSDOF 5
ENDMDL
MODEL 3
REMARK VINA RESULT:      -7.0      2.235      3.165
REMARK  5 active torsions:
REMARK  status: ('A' for Active; 'I' for Inactive)
REMARK    1  A    between atoms: C3_3  and  C5_5 
REMARK    2  A    between atoms: C5_5  and  C6_6 
REMARK    3  A    between atoms: N1_8  and  C8_9 
REMARK    4  A    between atoms: C19_22  and  O2_23 
REMARK    5  A    between atoms: O2_23  and  N2_24 
ROOT
HETATM    1  C6  UNL     1      21.510   0.929  52.836  1.00  0.00    -0.004 C 
HETATM    2  C7  UNL     1      21.641   2.380  52.547  1.00  0.00     0.160 C 
HETATM    3  N1  UNL     1      21.470   2.660  51.180  1.00  0.00    -0.394 N 
HETATM    4  C17 UNL     1      20.117   2.866  50.784  1.00  0.00     0.196 C 
HETATM    5  S1  UNL     1      19.458   1.253  50.173  1.00  0.00    -0.119 SA
HETATM    6  C18 UNL     1      19.412   0.128  51.602  1.00  0.00     0.086 C 
HETATM    7  C19 UNL     1      20.295   0.110  52.588  1.00  0.00     0.106 C 
ENDROOT
BRANCH   3   8
HETATM    8  C8  UNL     1      22.372   2.104  50.239  1.00  0.00     0.094 C 
HETATM    9  C9  UNL     1      23.867   2.049  50.831  1.00  0.00     0.026 C 
HETATM   10  C10 UNL     1      24.355   3.422  50.233  1.00  0.00     0.002 C 
HETATM   11  O1  UNL     1      22.936   3.886  49.943  1.00  0.00     0.000 OA
HETATM   12  C11 UNL     1      22.574   3.785  48.357  1.00  0.00    -0.004 A 
HETATM   13  C14 UNL     1      22.399   2.906  48.899  1.00  0.00     0.014 A 
HETATM   14  C12 UNL     1      22.925   5.231  47.787  1.00  0.00    -0.008 A 
HETATM   15  C16 UNL     1      22.099   3.130  47.059  1.00  0.00    -0.019 A 
HETATM   16  C13 UNL     1      22.783   4.301  48.569  1.00  0.00     0.043 A 
HETATM   17  C15 UNL     1      21.897   2.024  47.819  1.00  0.00    -0.017 A 
ENDBRANCH   3   8
BRANCH   1  18
HETATM   18  C5  UNL     1      22.457   0.121  53.360  1.00  0.00     0.018 C 
BRANCH  18  19
HETATM   19  C3  UNL     1      23.420  -0.635  54.182  1.00  0.00    -0.066 C 
HETATM   20  C2  UNL     1      24.761  -0.742  53.995  1.00  0.00    -0.024 C 
HETATM   21  C1  UNL     1      25.769  -0.220  53.047  1.00  0.00     0.036 C 
HETATM   22  C4  UNL     1      22.730  -1.338  55.295  1.00  0.00     0.048 C 
ENDBRANCH  18  19
ENDBRANCH   1  18
BRANCH   7  23
HETATM   23  O2  UNL     1      19.857  -0.897  53.435  1.00  0.00    -0.265 OA
BRANCH  23  24
HETATM   24  N2  UNL     1      18.518  -0.984  53.769  1.00  0.00    -0.209 NA
HETATM   25  H23 UNL     1      18.329  -0.522  54.679  1.00  0.00     0.150 HD
HETATM   26  H24 UNL     1      18.147  -1.958  53.743  1.00  0.00     0.150 HD
ENDBRANCH  23  24
ENDBRANCH   7  23
TORSDOF 5
ENDMDL
MODEL 4
REMARK VINA RESULT:      -6.9      7.703     10.689
REMARK  5 active torsions:
REMARK  status: ('A' for Active; 'I' for Inactive)
REMARK    1  A    between atoms: C3_3  and  C5_5 
REMARK    2  A    between atoms: C5_5  and  C6_6 
REMARK    3  A    between atoms: N1_8  and  C8_9 
REMARK    4  A    between atoms: C19_22  and  O2_23 
REMARK    5  A    between atoms: O2_23  and  N2_24 
ROOT
HETATM    1  C6  UNL     1      30.679   6.974  48.652  1.00  0.00    -0.004 C 
HETATM    2  C7  UNL     1      31.822   6.082  48.977  1.00  0.00     0.160 C 
HETATM    3  N1  UNL     1      32.722   5.970  47.903  1.00  0.00    -0.394 N 
HETATM    4  C17 UNL     1      33.727   6.979  47.868  1.00  0.00     0.196 C 
HETATM    5  S1  UNL     1      33.128   8.331  46.763  1.00  0.00    -0.119 SA
HETATM    6  C18 UNL     1      31.680   9.073  47.576  1.00  0.00     0.086 C 
HETATM    7  C19 UNL     1      30.787   8.413  48.297  1.00  0.00     0.106 C 
ENDROOT
BRANCH   3   8
HETATM    8  C8  UNL     1      32.275   5.418  46.676  1.00  0.00     0.094 C 
HETATM    9  C9  UNL     1      31.241   4.211  46.926  1.00  0.00     0.026 C 
HETATM   10  C10 UNL     1      32.298   3.045  46.872  1.00  0.00     0.002 C 
HETATM   11  O1  UNL     1      33.470   3.998  47.047  1.00  0.00     0.000 OA
HETATM   12  C11 UNL     1      34.269   4.245  45.648  1.00  0.00    -0.004 A 
HETATM   13  C14 UNL     1      33.455   4.886  45.802  1.00  0.00     0.014 A 
HETATM   14  C12 UNL     1      35.436   3.162  45.671  1.00  0.00    -0.008 A 
HETATM   15  C16 UNL     1      34.579   4.896  44.299  1.00  0.00    -0.019 A 
HETATM   16  C13 UNL     1      34.463   3.817  46.013  1.00  0.00     0.043 A 
HETATM   17  C15 UNL     1      33.512   5.693  44.560  1.00  0.00    -0.017 A 
ENDBRANCH   3   8
BRANCH   1  18
HETATM   18  C5  UNL     1      29.373   6.635  48.620  1.00  0.00     0.018 C 
BRANCH  18  19
HETATM   19  C3  UNL     1      27.982   6.262  48.297  1.00  0.00    -0.066 C 
HETATM   20  C2  UNL     1      27.010   7.061  47.788  1.00  0.00    -0.024 C 
HETATM   21  C1  UNL     1      26.880   8.467  47.348  1.00  0.00     0.036 C 
HETATM   22  C4  UNL     1      27.726   4.836  48.631  1.00  0.00     0.048 C 
ENDBRANCH  18  19
ENDBRANCH   1  18
BRANCH   7  23
HETATM   23  O2  UNL     1      29.881   9.380  48.708  1.00  0.00    -0.265 OA
BRANCH  23  24
HETATM   24  N2  UNL     1      29.967   9.907  49.983  1.00  0.00    -0.209 NA
HETATM   25  H23 UNL     1      29.037   9.926  50.443  1.00  0.00     0.150 HD
HETATM   26  H24 UNL     1      30.436  10.839  50.015  1.00  0.00     0.150 HD
ENDBRANCH  23  24
ENDBRANCH   7  23
TORSDOF 5
ENDMDL
MODEL 5
REMARK VINA RESULT:      -6.8      2.896      4.734
REMARK  5 active torsions:
REMARK  status: ('A' for Active; 'I' for Inactive)
REMARK    1  A    between atoms: C3_3  and  C5_5 
REMARK    2  A    between atoms: C5_5  and  C6_6 
REMARK    3  A    between atoms: N1_8  and  C8_9 
REMARK    4  A    between atoms: C19_22  and  O2_23 
REMARK    5  A    between atoms: O2_23  and  N2_24 
ROOT
HETATM    1  C6  UNL     1      24.257   2.514  50.543  1.00  0.00    -0.004 C 
HETATM    2  C7  UNL     1      23.146   2.749  49.586  1.00  0.00     0.160 C 
HETATM    3  N1  UNL     1      22.795   4.108  49.513  1.00  0.00    -0.394 N 
HETATM    4  C17 UNL     1      23.553   4.863  48.571  1.00  0.00     0.196 C 
HETATM    5  S1  UNL     1      24.961   5.641  49.477  1.00  0.00    -0.119 SA
HETATM    6  C18 UNL     1      26.038   4.285  50.038  1.00  0.00     0.086 C 
HETATM    7  C19 UNL     1      25.622   3.094  50.434  1.00  0.00     0.106 C 
ENDROOT
BRANCH   3   8
HETATM    8  C8  UNL     1      22.311   4.765  50.672  1.00  0.00     0.094 C 
HETATM    9  C9  UNL     1      21.413   3.774  51.566  1.00  0.00     0.026 C 
HETATM   10  C10 UNL     1      20.020   4.184  50.958  1.00  0.00     0.002 C 
HETATM   11  O1  UNL     1      20.659   4.856  49.753  1.00  0.00     0.000 OA
HETATM   12  C11 UNL     1      20.630   6.481  49.875  1.00  0.00    -0.004 A 
HETATM   13  C14 UNL     1      21.460   6.028  50.325  1.00  0.00     0.014 A 
HETATM   14  C12 UNL     1      19.292   6.903  49.120  1.00  0.00    -0.008 A 
HETATM   15  C16 UNL     1      21.114   7.872  50.289  1.00  0.00    -0.019 A 
HETATM   16  C13 UNL     1      20.186   6.211  49.586  1.00  0.00     0.043 A 
HETATM   17  C15 UNL     1      22.163   7.221  50.852  1.00  0.00    -0.017 A 
ENDBRANCH   3   8
BRANCH   1  18
HETATM   18  C5  UNL     1      24.217   1.752  51.657  1.00  0.00     0.018 C 
BRANCH  18  19
HETATM   19  C3  UNL     1      24.056   0.721  52.700  1.00  0.00    -0.066 C 
HETATM   20  C2  UNL     1      24.975  -0.191  53.108  1.00  0.00    -0.024 C 
HETATM   21  C1  UNL     1      26.377  -0.538  52.788  1.00  0.00     0.036 C 
HETATM   22  C4  UNL     1      22.688   0.764  53.280  1.00  0.00     0.048 C 
ENDBRANCH  18  19
ENDBRANCH   1  18
BRANCH   7  23
HETATM   23  O2  UNL     1      26.781   2.406  50.762  1.00  0.00    -0.265 OA
BRANCH  23  24
HETATM   24  N2  UNL     1      27.536   2.806  51.849  1.00  0.00    -0.209 NA
HETATM   25  H23 UNL     1      27.708   2.012  52.496  1.00  0.00     0.150 HD
HETATM   26  H24 UNL     1      27.141   3.634  52.345  1.00  0.00     0.150 HD
ENDBRANCH  23  24
ENDBRANCH   7  23
TORSDOF 5
ENDMDL
MODEL 6
REMARK VINA RESULT:      -6.7      2.623      3.742
REMARK  5 active torsions:
REMARK  status: ('A' for Active; 'I' for Inactive)
REMARK    1  A    between atoms: C3_3  and  C5_5 
REMARK    2  A    between atoms: C5_5  and  C6_6 
REMARK    3  A    between atoms: N1_8  and  C8_9 
REMARK    4  A    between atoms: C19_22  and  O2_23 
REMARK    5  A    between atoms: O2_23  and  N2_24 
ROOT
HETATM    1  C6  UNL     1      22.536   3.411  52.256  1.00  0.00    -0.004 C 
HETATM    2  C7  UNL     1      23.337   4.661  52.190  1.00  0.00     0.160 C 
HETATM    3  N1  UNL     1      23.148   5.342  50.976  1.00  0.00    -0.394 N 
HETATM    4  C17 UNL     1      22.042   6.240  50.969  1.00  0.00     0.196 C 
HETATM    5  S1  UNL     1      20.587   5.336  50.280  1.00  0.00    -0.119 SA
HETATM    6  C18 UNL     1      20.175   4.020  51.466  1.00  0.00     0.086 C 
HETATM    7  C19 UNL     1      21.053   3.337  52.184  1.00  0.00     0.106 C 
ENDROOT
BRANCH   3   8
HETATM    8  C8  UNL     1      23.512   4.710  49.760  1.00  0.00     0.094 C 
HETATM    9  C9  UNL     1      24.854   3.840  49.939  1.00  0.00     0.026 C 
HETATM   10  C10 UNL     1      25.863   4.953  49.467  1.00  0.00     0.002 C 
HETATM   11  O1  UNL     1      24.832   6.060  49.623  1.00  0.00     0.000 OA
HETATM   12  C11 UNL     1      24.244   6.552  48.185  1.00  0.00    -0.004 A 
HETATM   13  C14 UNL     1      23.738   5.736  48.604  1.00  0.00     0.014 A 
HETATM   14  C12 UNL     1      25.175   7.781  47.785  1.00  0.00    -0.008 A 
HETATM   15  C16 UNL     1      23.327   6.545  46.961  1.00  0.00    -0.019 A 
HETATM   16  C13 UNL     1      24.707   6.845  48.417  1.00  0.00     0.043 A 
HETATM   17  C15 UNL     1      22.717   5.490  47.559  1.00  0.00    -0.017 A 
ENDBRANCH   3   8
BRANCH   1  18
HETATM   18  C5  UNL     1      23.009   2.153  52.385  1.00  0.00     0.018 C 
BRANCH  18  19
HETATM   19  C3  UNL     1      23.667   0.886  52.754  1.00  0.00    -0.066 C 
HETATM   20  C2  UNL     1      23.156  -0.121  53.507  1.00  0.00    -0.024 C 
HETATM   21  C1  UNL     1      21.884  -0.422  54.200  1.00  0.00     0.036 C 
HETATM   22  C4  UNL     1      25.048   0.827  52.207  1.00  0.00     0.048 C 
ENDBRANCH  18  19
ENDBRANCH   1  18
BRANCH   7  23
HETATM   23  O2  UNL     1      20.287   2.456  52.933  1.00  0.00    -0.265 OA
BRANCH  23  24
HETATM   24  N2  UNL     1      19.431   1.574  52.298  1.00  0.00    -0.209 NA
HETATM   25  H23 UNL     1      18.462   1.672  52.656  1.00  0.00     0.150 HD
HETATM   26  H24 UNL     1      19.760   0.585  52.328  1.00  0.00     0.150 HD
ENDBRANCH  23  24
ENDBRANCH   7  23
TORSDOF 5
ENDMDL
MODEL 7
REMARK VINA RESULT:      -6.6      2.831      4.457
REMARK  5 active torsions:
REMARK  status: ('A' for Active; 'I' for Inactive)
REMARK    1  A    between atoms: C3_3  and  C5_5 
REMARK    2  A    between atoms: C5_5  and  C6_6 
REMARK    3  A    between atoms: N1_8  and  C8_9 
REMARK    4  A    between atoms: C19_22  and  O2_23 
REMARK    5  A    between atoms: O2_23  and  N2_24 
ROOT
HETATM    1  C6  UNL     1      23.063   0.909  51.915  1.00  0.00    -0.004 C 
HETATM    2  C7  UNL     1      22.197   1.308  50.776  1.00  0.00     0.160 C 
HETATM    3  N1  UNL     1      22.242   2.693  50.542  1.00  0.00    -0.394 N 
HETATM    4  C17 UNL     1      23.296   3.112  49.680  1.00  0.00     0.196 C 
HETATM    5  S1  UNL     1      24.727   3.602  50.737  1.00  0.00    -0.119 SA
HETATM    6  C18 UNL     1      25.310   2.091  51.567  1.00  0.00     0.086 C 
HETATM    7  C19 UNL     1      24.536   1.101  51.982  1.00  0.00     0.106 C 
ENDROOT
BRANCH   3   8
HETATM    8  C8  UNL     1      21.804   3.584  51.554  1.00  0.00     0.094 C 
HETATM    9  C9  UNL     1      20.586   2.951  52.395  1.00  0.00     0.026 C 
HETATM   10  C10 UNL     1      19.422   3.599  51.555  1.00  0.00     0.002 C 
HETATM   11  O1  UNL     1      20.348   3.948  50.401  1.00  0.00     0.000 OA
HETATM   12  C11 UNL     1      20.712   5.536  50.369  1.00  0.00    -0.004 A 
HETATM   13  C14 UNL     1      21.343   4.959  50.975  1.00  0.00     0.014 A 
HETATM   14  C12 UNL     1      19.622   6.165  49.393  1.00  0.00    -0.008 A 
HETATM   15  C16 UNL     1      21.476   6.814  50.722  1.00  0.00    -0.019 A 
HETATM   16  C13 UNL     1      20.252   5.344  50.044  1.00  0.00     0.043 A 
HETATM   17  C15 UNL     1      22.254   6.008  51.488  1.00  0.00    -0.017 A 
ENDBRANCH   3   8
BRANCH   1  18
HETATM   18  C5  UNL     1      22.669   0.319  53.063  1.00  0.00     0.018 C 
BRANCH  18  19
HETATM   19  C3  UNL     1      22.152  -0.541  54.144  1.00  0.00    -0.066 C 
HETATM   20  C2  UNL     1      22.866  -1.166  55.115  1.00  0.00    -0.024 C 
HETATM   21  C1  UNL     1      24.283  -1.262  55.529  1.00  0.00     0.036 C 
HETATM   22  C4  UNL     1      20.676  -0.690  54.044  1.00  0.00     0.048 C 
ENDBRANCH  18  19
ENDBRANCH   1  18
BRANCH   7  23
HETATM   23  O2  UNL     1      25.410   0.182  52.544  1.00  0.00    -0.265 OA
BRANCH  23  24
HETATM   24  N2  UNL     1      26.772   0.317  52.350  1.00  0.00    -0.209 NA
HETATM   25  H23 UNL     1      27.064  -0.100  51.445  1.00  0.00     0.150 HD
HETATM   26  H24 UNL     1      27.341  -0.044  53.146  1.00  0.00     0.150 HD
ENDBRANCH  23  24
ENDBRANCH   7  23
TORSDOF 5
ENDMDL
MODEL 8
REMARK VINA RESULT:      -6.6      8.287     10.934
REMARK  5 active torsions:
REMARK  status: ('A' for Active; 'I' for Inactive)
REMARK    1  A    between atoms: C3_3  and  C5_5 
REMARK    2  A    between atoms: C5_5  and  C6_6 
REMARK    3  A    between atoms: N1_8  and  C8_9 
REMARK    4  A    between atoms: C19_22  and  O2_23 
REMARK    5  A    between atoms: O2_23  and  N2_24 
ROOT
HETATM    1  C6  UNL     1      33.378   7.498  46.638  1.00  0.00    -0.004 C 
HETATM    2  C7  UNL     1      32.066   7.239  45.990  1.00  0.00     0.160 C 
HETATM    3  N1  UNL     1      31.019   7.916  46.637  1.00  0.00    -0.394 N 
HETATM    4  C17 UNL     1      30.803   9.247  46.175  1.00  0.00     0.196 C 
HETATM    5  S1  UNL     1      31.747  10.385  47.280  1.00  0.00    -0.119 SA
HETATM    6  C18 UNL     1      33.512  10.029  47.019  1.00  0.00     0.086 C 
HETATM    7  C19 UNL     1      34.021   8.832  46.773  1.00  0.00     0.106 C 
ENDROOT
BRANCH   3   8
HETATM    8  C8  UNL     1      30.727   7.615  47.991  1.00  0.00     0.094 C 
HETATM    9  C9  UNL     1      31.036   6.071  48.321  1.00  0.00     0.026 C 
HETATM   10  C10 UNL     1      29.579   5.530  48.063  1.00  0.00     0.002 C 
HETATM   11  O1  UNL     1      29.162   6.789  47.319  1.00  0.00     0.000 OA
HETATM   12  C11 UNL     1      28.210   7.749  48.230  1.00  0.00    -0.004 A 
HETATM   13  C14 UNL     1      29.238   7.912  48.356  1.00  0.00     0.014 A 
HETATM   14  C12 UNL     1      26.730   7.302  47.849  1.00  0.00    -0.008 A 
HETATM   15  C16 UNL     1      27.871   8.834  49.254  1.00  0.00    -0.019 A 
HETATM   16  C13 UNL     1      27.952   7.355  47.867  1.00  0.00     0.043 A 
HETATM   17  C15 UNL     1      29.214   8.993  49.369  1.00  0.00    -0.017 A 
ENDBRANCH   3   8
BRANCH   1  18
HETATM   18  C5  UNL     1      34.192   6.585  47.209  1.00  0.00     0.018 C 
BRANCH  18  19
HETATM   19  C3  UNL     1      34.939   5.654  48.076  1.00  0.00    -0.066 C 
HETATM   20  C2  UNL     1      34.846   4.300  48.106  1.00  0.00    -0.024 C 
HETATM   21  C1  UNL     1      34.096   3.247  47.387  1.00  0.00     0.036 C 
HETATM   22  C4  UNL     1      35.843   6.394  48.995  1.00  0.00     0.048 C 
ENDBRANCH  18  19
ENDBRANCH   1  18
BRANCH   7  23
HETATM   23  O2  UNL     1      35.385   9.048  46.647  1.00  0.00    -0.265 OA
BRANCH  23  24
HETATM   24  N2  UNL     1      35.929   9.318  45.405  1.00  0.00    -0.209 NA
HETATM   25  H23 UNL     1      36.259   8.449  44.944  1.00  0.00     0.150 HD
HETATM   26  H24 UNL     1      36.669  10.052  45.428  1.00  0.00     0.150 HD
ENDBRANCH  23  24
ENDBRANCH   7  23
TORSDOF 5
ENDMDL
MODEL 9
REMARK VINA RESULT:      -6.6      6.869      9.840
REMARK  5 active torsions:
REMARK  status: ('A' for Active; 'I' for Inactive)
REMARK    1  A    between atoms: C3_3  and  C5_5 
REMARK    2  A    between atoms: C5_5  and  C6_6 
REMARK    3  A    between atoms: N1_8  and  C8_9 
REMARK    4  A    between atoms: C19_22  and  O2_23 
REMARK    5  A    between atoms: O2_23  and  N2_24 
ROOT
HETATM    1  C6  UNL     1      28.901   6.891  47.487  1.00  0.00    -0.004 C 
HETATM    2  C7  UNL     1      28.709   8.075  46.611  1.00  0.00     0.160 C 
HETATM    3  N1  UNL     1      29.441   9.187  47.063  1.00  0.00    -0.394 N 
HETATM    4  C17 UNL     1      30.780   9.247  46.580  1.00  0.00     0.196 C 
HETATM    5  S1  UNL     1      31.870   8.461  47.846  1.00  0.00    -0.119 SA
HETATM    6  C18 UNL     1      31.422   6.698  47.905  1.00  0.00     0.086 C 
HETATM    7  C19 UNL     1      30.200   6.216  47.746  1.00  0.00     0.106 C 
ENDROOT
BRANCH   3   8
HETATM    8  C8  UNL     1      29.158   9.733  48.340  1.00  0.00     0.094 C 
HETATM    9  C9  UNL     1      27.589   9.627  48.680  1.00  0.00     0.026 C 
HETATM   10  C10 UNL     1      27.189  11.060  48.165  1.00  0.00     0.002 C 
HETATM   11  O1  UNL     1      28.487  11.227  47.391  1.00  0.00     0.000 OA
HETATM   12  C11 UNL     1      29.524  12.231  48.148  1.00  0.00    -0.004 A 
HETATM   13  C14 UNL     1      29.589  11.230  48.451  1.00  0.00     0.014 A 
HETATM   14  C12 UNL     1      29.219  13.658  47.508  1.00  0.00    -0.008 A 
HETATM   15  C16 UNL     1      30.628  12.642  49.124  1.00  0.00    -0.019 A 
HETATM   16  C13 UNL     1      29.158  12.458  47.737  1.00  0.00     0.043 A 
HETATM   17  C15 UNL     1      30.660  11.330  49.471  1.00  0.00    -0.017 A 
ENDBRANCH   3   8
BRANCH   1  18
HETATM   18  C5  UNL     1      27.948   6.241  48.189  1.00  0.00     0.018 C 
BRANCH  18  19
HETATM   19  C3  UNL     1      26.760   5.537  48.706  1.00  0.00    -0.066 C 
HETATM   20  C2  UNL     1      25.490   6.010  48.788  1.00  0.00    -0.024 C 
HETATM   21  C1  UNL     1      24.769   7.251  48.433  1.00  0.00     0.036 C 
HETATM   22  C4  UNL     1      27.118   4.176  49.188  1.00  0.00     0.048 C 
ENDBRANCH  18  19
ENDBRANCH   1  18
BRANCH   7  23
HETATM   23  O2  UNL     1      30.344   4.842  47.870  1.00  0.00    -0.265 OA
BRANCH  23  24
HETATM   24  N2  UNL     1      31.600   4.269  47.777  1.00  0.00    -0.209 NA
HETATM   25  H23 UNL     1      31.609   3.320  48.199  1.00  0.00     0.150 HD
HETATM   26  H24 UNL     1      32.359   4.873  48.160  1.00  0.00     0.150 HD
ENDBRANCH  23  24
ENDBRANCH   7  23
TORSDOF 5
ENDMDL
