MODEL 1
REMARK VINA RESULT:      -7.7      0.000      0.000
REMARK  6 active torsions:
REMARK  status: ('A' for Active; 'I' for Inactive)
REMARK    1  A    between atoms: C2_2  and  C3_3 
REMARK       I    between atoms: C3_3  and  N1_5 
REMARK    2  A    between atoms: N1_5  and  C4_6 
REMARK    3  A    between atoms: C5_7  and  C6_8 
REMARK    4  A    between atoms: C7_9  and  C8_10 
REMARK    5  A    between atoms: C8_10  and  N2_12 
REMARK    6  A    between atoms: C16_19  and  N3_20 
ROOT
HETATM    1  C8  UNL     1      24.259   2.610  51.586  1.00  0.00     0.027 C 
HETATM    2  C9  UNL     1      22.985   2.548  51.941  1.00  0.00     0.043 C 
ENDROOT
BRANCH   1   3
HETATM    3  C7  UNL     1      25.148   1.484  51.804  1.00  0.00     0.029 C 
HETATM    4  C6  UNL     1      26.295   1.488  52.432  1.00  0.00     0.003 C 
BRANCH   4   5
HETATM    5  C5  UNL     1      27.143   2.447  53.121  1.00  0.00     0.017 C 
HETATM    6  C4  UNL     1      28.401   2.403  53.593  1.00  0.00     0.091 C 
BRANCH   6   7
HETATM    7  N1  UNL     1      29.108   1.185  53.410  1.00  0.00    -0.334 N 
HETATM    8  C3  UNL     1      29.005  -0.042  54.153  1.00  0.00     0.244 C 
HETATM    9  O1  UNL     1      28.224  -0.206  55.124  1.00  0.00    -0.268 OA
HETATM   10  H4  UNL     1      29.771   1.288  52.605  1.00  0.00     0.168 HD
BRANCH   8  11
HETATM   11  C2  UNL     1      29.886  -1.109  53.696  1.00  0.00     0.064 C 
HETATM   12  C1  UNL     1      29.548  -2.322  53.285  1.00  0.00     0.017 C 
ENDBRANCH   8  11
ENDBRANCH   6   7
ENDBRANCH   4   5
ENDBRANCH   1   3
BRANCH   1  13
HETATM   13  N2  UNL     1      24.550   3.873  51.005  1.00  0.00    -0.313 N 
HETATM   14  C10 UNL     1      25.668   4.145  50.134  1.00  0.00     0.047 A 
HETATM   15  C11 UNL     1      26.809   3.852  49.416  1.00  0.00     0.030 A 
HETATM   16  C15 UNL     1      25.230   5.466  50.048  1.00  0.00     0.021 A 
HETATM   17  C12 UNL     1      27.481   4.790  48.660  1.00  0.00     0.002 A 
HETATM   18  C13 UNL     1      27.027   6.092  48.592  1.00  0.00     0.001 A 
HETATM   19  C14 UNL     1      25.888   6.428  49.296  1.00  0.00     0.013 A 
HETATM   20  C16 UNL     1      24.067   5.262  50.934  1.00  0.00     0.360 A 
BRANCH  20  21
HETATM   21  N3  UNL     1      24.159   5.992  52.167  1.00  0.00     0.106 N 
HETATM   22  H16 UNL     1      24.693   6.876  52.055  1.00  0.00     0.316 HD
HETATM   23  H17 UNL     1      24.479   5.385  52.950  1.00  0.00     0.316 HD
ENDBRANCH  20  21
ENDBRANCH   1  13
TORSDOF 6
ENDMDL
MODEL 2
REMARK VINA RESULT:      -7.6      3.227      6.570
REMARK  6 active torsions:
REMARK  status: ('A' for Active; 'I' for Inactive)
REMARK    1  A    between atoms: C2_2  and  C3_3 
REMARK       I    between atoms: C3_3  and  N1_5 
REMARK    2  A    between atoms: N1_5  and  C4_6 
REMARK    3  A    between atoms: C5_7  and  C6_8 
REMARK    4  A    between atoms: C7_9  and  C8_10 
REMARK    5  A    between atoms: C8_10  and  N2_12 
REMARK    6  A    between atoms: C16_19  and  N3_20 
ROOT
HETATM    1  C8  UNL     1      26.475   2.191  52.527  1.00  0.00     0.027 C 
HETATM    2  C9  UNL     1      26.660   2.637  51.295  1.00  0.00     0.043 C 
ENDROOT
BRANCH   1   3
HETATM    3  C7  UNL     1      25.317   2.598  53.301  1.00  0.00     0.029 C 
HETATM    4  C6  UNL     1      24.058   2.492  52.962  1.00  0.00     0.003 C 
BRANCH   4   5
HETATM    5  C5  UNL     1      23.284   1.999  51.835  1.00  0.00     0.017 C 
HETATM    6  C4  UNL     1      22.531   0.904  51.633  1.00  0.00     0.091 C 
BRANCH   6   7
HETATM    7  N1  UNL     1      22.431  -0.008  52.717  1.00  0.00    -0.334 N 
HETATM    8  C3  UNL     1      21.496  -0.016  53.809  1.00  0.00     0.244 C 
HETATM    9  O1  UNL     1      20.587   0.839  53.956  1.00  0.00    -0.268 OA
HETATM   10  H4  UNL     1      23.177  -0.738  52.625  1.00  0.00     0.168 HD
BRANCH   8  11
HETATM   11  C2  UNL     1      21.675  -1.107  54.759  1.00  0.00     0.064 C 
HETATM   12  C1  UNL     1      22.797  -1.502  55.341  1.00  0.00     0.017 C 
ENDBRANCH   8  11
ENDBRANCH   6   7
ENDBRANCH   4   5
ENDBRANCH   1   3
BRANCH   1  13
HETATM   13  N2  UNL     1      27.533   1.320  52.901  1.00  0.00    -0.313 N 
HETATM   14  C10 UNL     1      27.493  -0.120  52.802  1.00  0.00     0.047 A 
HETATM   15  C11 UNL     1      26.941  -1.350  52.510  1.00  0.00     0.030 A 
HETATM   16  C15 UNL     1      28.788  -0.152  53.318  1.00  0.00     0.021 A 
HETATM   17  C12 UNL     1      27.612  -2.539  52.708  1.00  0.00     0.002 A 
HETATM   18  C13 UNL     1      28.893  -2.544  53.220  1.00  0.00     0.001 A 
HETATM   19  C14 UNL     1      29.483  -1.335  53.527  1.00  0.00     0.013 A 
HETATM   20  C16 UNL     1      28.899   1.314  53.450  1.00  0.00     0.360 A 
BRANCH  20  21
HETATM   21  N3  UNL     1      28.999   1.754  54.813  1.00  0.00     0.106 N 
HETATM   22  H16 UNL     1      28.659   1.033  55.479  1.00  0.00     0.316 HD
HETATM   23  H17 UNL     1      28.583   2.699  54.944  1.00  0.00     0.316 HD
ENDBRANCH  20  21
ENDBRANCH   1  13
TORSDOF 6
ENDMDL
MODEL 3
REMARK VINA RESULT:      -7.4      3.357      5.474
REMARK  6 active torsions:
REMARK  status: ('A' for Active; 'I' for Inactive)
REMARK    1  A    between atoms: C2_2  and  C3_3 
REMARK       I    between atoms: C3_3  and  N1_5 
REMARK    2  A    between atoms: N1_5  and  C4_6 
REMARK    3  A    between atoms: C5_7  and  C6_8 
REMARK    4  A    between atoms: C7_9  and  C8_10 
REMARK    5  A    between atoms: C8_10  and  N2_12 
REMARK    6  A    between atoms: C16_19  and  N3_20 
ROOT
HETATM    1  C8  UNL     1      26.061  -0.577  52.375  1.00  0.00     0.027 C 
HETATM    2  C9  UNL     1      26.862  -1.630  52.407  1.00  0.00     0.043 C 
ENDROOT
BRANCH   1   3
HETATM    3  C7  UNL     1      26.299   0.512  51.446  1.00  0.00     0.029 C 
HETATM    4  C6  UNL     1      26.725   1.716  51.725  1.00  0.00     0.003 C 
BRANCH   4   5
HETATM    5  C5  UNL     1      27.115   2.475  52.902  1.00  0.00     0.017 C 
HETATM    6  C4  UNL     1      28.122   2.364  53.786  1.00  0.00     0.091 C 
BRANCH   6   7
HETATM    7  N1  UNL     1      29.036   1.297  53.580  1.00  0.00    -0.334 N 
HETATM    8  C3  UNL     1      29.135   0.043  54.276  1.00  0.00     0.244 C 
HETATM    9  O1  UNL     1      28.376  -0.293  55.219  1.00  0.00    -0.268 OA
HETATM   10  H4  UNL     1      29.687   1.545  52.797  1.00  0.00     0.168 HD
BRANCH   8  11
HETATM   11  C2  UNL     1      30.200  -0.835  53.806  1.00  0.00     0.064 C 
HETATM   12  C1  UNL     1      30.146  -2.143  53.609  1.00  0.00     0.017 C 
ENDBRANCH   8  11
ENDBRANCH   6   7
ENDBRANCH   4   5
ENDBRANCH   1   3
BRANCH   1  13
HETATM   13  N2  UNL     1      25.025  -0.714  53.337  1.00  0.00    -0.313 N 
HETATM   14  C10 UNL     1      23.700  -0.155  53.212  1.00  0.00     0.047 A 
HETATM   15  C11 UNL     1      22.680   0.551  52.608  1.00  0.00     0.030 A 
HETATM   16  C15 UNL     1      23.389  -0.713  54.451  1.00  0.00     0.021 A 
HETATM   17  C12 UNL     1      21.433   0.701  53.178  1.00  0.00     0.002 A 
HETATM   18  C13 UNL     1      21.150   0.139  54.406  1.00  0.00     0.001 A 
HETATM   19  C14 UNL     1      22.143  -0.575  55.046  1.00  0.00     0.013 A 
HETATM   20  C16 UNL     1      24.724  -1.312  54.649  1.00  0.00     0.360 A 
BRANCH  20  21
HETATM   21  N3  UNL     1      25.445  -0.737  55.749  1.00  0.00     0.106 N 
HETATM   22  H16 UNL     1      25.769   0.228  55.539  1.00  0.00     0.316 HD
HETATM   23  H17 UNL     1      26.187  -1.377  56.100  1.00  0.00     0.316 HD
ENDBRANCH  20  21
ENDBRANCH   1  13
TORSDOF 6
ENDMDL
MODEL 4
REMARK VINA RESULT:      -7.4      1.403      1.912
REMARK  6 active torsions:
REMARK  status: ('A' for Active; 'I' for Inactive)
REMARK    1  A    between atoms: C2_2  and  C3_3 
REMARK       I    between atoms: C3_3  and  N1_5 
REMARK    2  A    between atoms: N1_5  and  C4_6 
REMARK    3  A    between atoms: C5_7  and  C6_8 
REMARK    4  A    between atoms: C7_9  and  C8_10 
REMARK    5  A    between atoms: C8_10  and  N2_12 
REMARK    6  A    between atoms: C16_19  and  N3_20 
ROOT
HETATM    1  C8  UNL     1      23.968   3.474  51.549  1.00  0.00     0.027 C 
HETATM    2  C9  UNL     1      23.156   2.807  50.742  1.00  0.00     0.043 C 
ENDROOT
BRANCH   1   3
HETATM    3  C7  UNL     1      24.209   3.017  52.905  1.00  0.00     0.029 C 
HETATM    4  C6  UNL     1      24.527   1.809  53.292  1.00  0.00     0.003 C 
BRANCH   4   5
HETATM    5  C5  UNL     1      24.764   0.510  52.683  1.00  0.00     0.017 C 
HETATM    6  C4  UNL     1      25.872  -0.204  52.421  1.00  0.00     0.091 C 
BRANCH   6   7
HETATM    7  N1  UNL     1      27.111   0.382  52.796  1.00  0.00    -0.334 N 
HETATM    8  C3  UNL     1      27.818   0.282  54.044  1.00  0.00     0.244 C 
HETATM    9  O1  UNL     1      27.405  -0.380  55.029  1.00  0.00    -0.268 OA
HETATM   10  H4  UNL     1      27.484   0.943  51.994  1.00  0.00     0.168 HD
BRANCH   8  11
HETATM   11  C2  UNL     1      29.076   1.016  54.094  1.00  0.00     0.064 C 
HETATM   12  C1  UNL     1      29.259   2.323  53.986  1.00  0.00     0.017 C 
ENDBRANCH   8  11
ENDBRANCH   6   7
ENDBRANCH   4   5
ENDBRANCH   1   3
BRANCH   1  13
HETATM   13  N2  UNL     1      24.501   4.610  50.885  1.00  0.00    -0.313 N 
HETATM   14  C10 UNL     1      25.680   4.603  50.051  1.00  0.00     0.047 A 
HETATM   15  C11 UNL     1      26.774   4.051  49.417  1.00  0.00     0.030 A 
HETATM   16  C15 UNL     1      25.491   5.968  49.840  1.00  0.00     0.021 A 
HETATM   17  C12 UNL     1      27.630   4.787  48.623  1.00  0.00     0.002 A 
HETATM   18  C13 UNL     1      27.421   6.137  48.429  1.00  0.00     0.001 A 
HETATM   19  C14 UNL     1      26.338   6.729  49.047  1.00  0.00     0.013 A 
HETATM   20  C16 UNL     1      24.280   6.051  50.680  1.00  0.00     0.360 A 
BRANCH  20  21
HETATM   21  N3  UNL     1      24.459   6.858  51.854  1.00  0.00     0.106 N 
HETATM   22  H16 UNL     1      25.320   6.599  52.375  1.00  0.00     0.316 HD
HETATM   23  H17 UNL     1      23.594   6.892  52.432  1.00  0.00     0.316 HD
ENDBRANCH  20  21
ENDBRANCH   1  13
TORSDOF 6
ENDMDL
MODEL 5
REMARK VINA RESULT:      -7.1      2.532      3.340
REMARK  6 active torsions:
REMARK  status: ('A' for Active; 'I' for Inactive)
REMARK    1  A    between atoms: C2_2  and  C3_3 
REMARK       I    between atoms: C3_3  and  N1_5 
REMARK    2  A    between atoms: N1_5  and  C4_6 
REMARK    3  A    between atoms: C5_7  and  C6_8 
REMARK    4  A    between atoms: C7_9  and  C8_10 
REMARK    5  A    between atoms: C8_10  and  N2_12 
REMARK    6  A    between atoms: C16_19  and  N3_20 
ROOT
HETATM    1  C8  UNL     1      23.666   3.980  51.513  1.00  0.00     0.027 C 
HETATM    2  C9  UNL     1      23.303   4.407  52.712  1.00  0.00     0.043 C 
ENDROOT
BRANCH   1   3
HETATM    3  C7  UNL     1      23.338   2.638  51.071  1.00  0.00     0.029 C 
HETATM    4  C6  UNL     1      23.995   1.535  51.324  1.00  0.00     0.003 C 
BRANCH   4   5
HETATM    5  C5  UNL     1      25.189   1.136  52.050  1.00  0.00     0.017 C 
HETATM    6  C4  UNL     1      25.403   0.382  53.142  1.00  0.00     0.091 C 
BRANCH   6   7
HETATM    7  N1  UNL     1      24.255  -0.173  53.768  1.00  0.00    -0.334 N 
HETATM    8  C3  UNL     1      24.173  -0.990  54.949  1.00  0.00     0.244 C 
HETATM    9  O1  UNL     1      25.173  -1.341  55.625  1.00  0.00    -0.268 OA
HETATM   10  H4  UNL     1      23.400   0.101  53.227  1.00  0.00     0.168 HD
BRANCH   8  11
HETATM   11  C2  UNL     1      22.823  -1.394  55.320  1.00  0.00     0.064 C 
HETATM   12  C1  UNL     1      21.720  -1.309  54.592  1.00  0.00     0.017 C 
ENDBRANCH   8  11
ENDBRANCH   6   7
ENDBRANCH   4   5
ENDBRANCH   1   3
BRANCH   1  13
HETATM   13  N2  UNL     1      24.368   4.999  50.816  1.00  0.00    -0.313 N 
HETATM   14  C10 UNL     1      25.568   4.794  50.040  1.00  0.00     0.047 A 
HETATM   15  C11 UNL     1      26.605   4.072  49.486  1.00  0.00     0.030 A 
HETATM   16  C15 UNL     1      25.566   6.158  49.749  1.00  0.00     0.021 A 
HETATM   17  C12 UNL     1      27.580   4.646  48.696  1.00  0.00     0.002 A 
HETATM   18  C13 UNL     1      27.556   5.998  48.423  1.00  0.00     0.001 A 
HETATM   19  C14 UNL     1      26.535   6.758  48.958  1.00  0.00     0.013 A 
HETATM   20  C16 UNL     1      24.344   6.442  50.527  1.00  0.00     0.360 A 
BRANCH  20  21
HETATM   21  N3  UNL     1      24.580   7.286  51.665  1.00  0.00     0.106 N 
HETATM   22  H16 UNL     1      24.421   8.289  51.444  1.00  0.00     0.316 HD
HETATM   23  H17 UNL     1      25.496   7.079  52.113  1.00  0.00     0.316 HD
ENDBRANCH  20  21
ENDBRANCH   1  13
TORSDOF 6
ENDMDL
MODEL 6
REMARK VINA RESULT:      -7.1      2.020      2.563
REMARK  6 active torsions:
REMARK  status: ('A' for Active; 'I' for Inactive)
REMARK    1  A    between atoms: C2_2  and  C3_3 
REMARK       I    between atoms: C3_3  and  N1_5 
REMARK    2  A    between atoms: N1_5  and  C4_6 
REMARK    3  A    between atoms: C5_7  and  C6_8 
REMARK    4  A    between atoms: C7_9  and  C8_10 
REMARK    5  A    between atoms: C8_10  and  N2_12 
REMARK    6  A    between atoms: C16_19  and  N3_20 
ROOT
HETATM    1  C8  UNL     1      24.046   2.961  51.749  1.00  0.00     0.027 C 
HETATM    2  C9  UNL     1      24.462   2.935  53.006  1.00  0.00     0.043 C 
ENDROOT
BRANCH   1   3
HETATM    3  C7  UNL     1      23.269   1.866  51.200  1.00  0.00     0.029 C 
HETATM    4  C6  UNL     1      22.725   0.872  51.853  1.00  0.00     0.003 C 
BRANCH   4   5
HETATM    5  C5  UNL     1      22.625   0.414  53.229  1.00  0.00     0.017 C 
HETATM    6  C4  UNL     1      23.432  -0.305  54.029  1.00  0.00     0.091 C 
BRANCH   6   7
HETATM    7  N1  UNL     1      24.663  -0.739  53.468  1.00  0.00    -0.334 N 
HETATM    8  C3  UNL     1      26.005  -0.390  53.849  1.00  0.00     0.244 C 
HETATM    9  O1  UNL     1      26.280   0.396  54.791  1.00  0.00    -0.268 OA
HETATM   10  H4  UNL     1      24.469  -1.398  52.676  1.00  0.00     0.168 HD
BRANCH   8  11
HETATM   11  C2  UNL     1      27.050  -1.021  53.054  1.00  0.00     0.064 C 
HETATM   12  C1  UNL     1      26.970  -2.137  52.346  1.00  0.00     0.017 C 
ENDBRANCH   8  11
ENDBRANCH   6   7
ENDBRANCH   4   5
ENDBRANCH   1   3
BRANCH   1  13
HETATM   13  N2  UNL     1      24.471   4.157  51.112  1.00  0.00    -0.313 N 
HETATM   14  C10 UNL     1      25.606   4.265  50.227  1.00  0.00     0.047 A 
HETATM   15  C11 UNL     1      26.703   3.816  49.520  1.00  0.00     0.030 A 
HETATM   16  C15 UNL     1      25.316   5.622  50.084  1.00  0.00     0.021 A 
HETATM   17  C12 UNL     1      27.469   4.641  48.722  1.00  0.00     0.002 A 
HETATM   18  C13 UNL     1      27.161   5.980  48.597  1.00  0.00     0.001 A 
HETATM   19  C14 UNL     1      26.072   6.471  49.288  1.00  0.00     0.013 A 
HETATM   20  C16 UNL     1      24.144   5.587  50.981  1.00  0.00     0.360 A 
BRANCH  20  21
HETATM   21  N3  UNL     1      24.325   6.356  52.180  1.00  0.00     0.106 N 
HETATM   22  H16 UNL     1      24.885   5.842  52.889  1.00  0.00     0.316 HD
HETATM   23  H17 UNL     1      23.423   6.739  52.532  1.00  0.00     0.316 HD
ENDBRANCH  20  21
ENDBRANCH   1  13
TORSDOF 6
ENDMDL
MODEL 7
REMARK VINA RESULT:      -7.1      3.025      5.486
REMARK  6 active torsions:
REMARK  status: ('A' for Active; 'I' for Inactive)
REMARK    1  A    between atoms: C2_2  and  C3_3 
REMARK       I    between atoms: C3_3  and  N1_5 
REMARK    2  A    between atoms: N1_5  and  C4_6 
REMARK    3  A    between atoms: C5_7  and  C6_8 
REMARK    4  A    between atoms: C7_9  and  C8_10 
REMARK    5  A    between atoms: C8_10  and  N2_12 
REMARK    6  A    between atoms: C16_19  and  N3_20 
ROOT
HETATM    1  C8  UNL     1      23.499   2.081  51.964  1.00  0.00     0.027 C 
HETATM    2  C9  UNL     1      23.404   3.401  51.955  1.00  0.00     0.043 C 
ENDROOT
BRANCH   1   3
HETATM    3  C7  UNL     1      24.781   1.426  51.781  1.00  0.00     0.029 C 
HETATM    4  C6  UNL     1      25.548   0.908  52.705  1.00  0.00     0.003 C 
BRANCH   4   5
HETATM    5  C5  UNL     1      25.533   0.743  54.149  1.00  0.00     0.017 C 
HETATM    6  C4  UNL     1      26.384   0.185  55.028  1.00  0.00     0.091 C 
BRANCH   6   7
HETATM    7  N1  UNL     1      27.571  -0.382  54.494  1.00  0.00    -0.334 N 
HETATM    8  C3  UNL     1      28.889   0.188  54.412  1.00  0.00     0.244 C 
HETATM    9  O1  UNL     1      29.179   1.338  54.830  1.00  0.00    -0.268 OA
HETATM   10  H4  UNL     1      27.364  -1.344  54.135  1.00  0.00     0.168 HD
BRANCH   8  11
HETATM   11  C2  UNL     1      29.891  -0.674  53.797  1.00  0.00     0.064 C 
HETATM   12  C1  UNL     1      29.733  -1.907  53.344  1.00  0.00     0.017 C 
ENDBRANCH   8  11
ENDBRANCH   6   7
ENDBRANCH   4   5
ENDBRANCH   1   3
BRANCH   1  13
HETATM   13  N2  UNL     1      22.222   1.494  52.171  1.00  0.00    -0.313 N 
HETATM   14  C10 UNL     1      21.968   0.332  52.989  1.00  0.00     0.047 A 
HETATM   15  C11 UNL     1      22.289  -0.717  53.825  1.00  0.00     0.030 A 
HETATM   16  C15 UNL     1      20.617   0.446  52.663  1.00  0.00     0.021 A 
HETATM   17  C12 UNL     1      21.348  -1.600  54.315  1.00  0.00     0.002 A 
HETATM   18  C13 UNL     1      20.017  -1.465  53.978  1.00  0.00     0.001 A 
HETATM   19  C14 UNL     1      19.653  -0.429  53.142  1.00  0.00     0.013 A 
HETATM   20  C16 UNL     1      20.802   1.636  51.809  1.00  0.00     0.360 A 
BRANCH  20  21
HETATM   21  N3  UNL     1      20.509   1.391  50.425  1.00  0.00     0.106 N 
HETATM   22  H16 UNL     1      20.423   2.274  49.884  1.00  0.00     0.316 HD
HETATM   23  H17 UNL     1      19.711   0.731  50.312  1.00  0.00     0.316 HD
ENDBRANCH  20  21
ENDBRANCH   1  13
TORSDOF 6
ENDMDL
MODEL 8
REMARK VINA RESULT:      -7.0      2.844      6.779
REMARK  6 active torsions:
REMARK  status: ('A' for Active; 'I' for Inactive)
REMARK    1  A    between atoms: C2_2  and  C3_3 
REMARK       I    between atoms: C3_3  and  N1_5 
REMARK    2  A    between atoms: N1_5  and  C4_6 
REMARK    3  A    between atoms: C5_7  and  C6_8 
REMARK    4  A    between atoms: C7_9  and  C8_10 
REMARK    5  A    between atoms: C8_10  and  N2_12 
REMARK    6  A    between atoms: C16_19  and  N3_20 
ROOT
HETATM    1  C8  UNL     1      24.850   1.011  52.299  1.00  0.00     0.027 C 
HETATM    2  C9  UNL     1      24.166   0.309  53.189  1.00  0.00     0.043 C 
ENDROOT
BRANCH   1   3
HETATM    3  C7  UNL     1      24.182   1.648  51.180  1.00  0.00     0.029 C 
HETATM    4  C6  UNL     1      23.470   2.745  51.199  1.00  0.00     0.003 C 
BRANCH   4   5
HETATM    5  C5  UNL     1      23.043   3.735  52.175  1.00  0.00     0.017 C 
HETATM    6  C4  UNL     1      23.409   5.003  52.431  1.00  0.00     0.091 C 
BRANCH   6   7
HETATM    7  N1  UNL     1      24.427   5.552  51.607  1.00  0.00    -0.334 N 
HETATM    8  C3  UNL     1      24.470   6.832  50.953  1.00  0.00     0.244 C 
HETATM    9  O1  UNL     1      23.552   7.687  51.032  1.00  0.00    -0.268 OA
HETATM   10  H4  UNL     1      25.211   4.862  51.520  1.00  0.00     0.168 HD
BRANCH   8  11
HETATM   11  C2  UNL     1      25.676   7.080  50.174  1.00  0.00     0.064 C 
HETATM   12  C1  UNL     1      26.364   8.208  50.078  1.00  0.00     0.017 C 
ENDBRANCH   8  11
ENDBRANCH   6   7
ENDBRANCH   4   5
ENDBRANCH   1   3
BRANCH   1  13
HETATM   13  N2  UNL     1      26.231   1.016  52.630  1.00  0.00    -0.313 N 
HETATM   14  C10 UNL     1      27.044  -0.164  52.807  1.00  0.00     0.047 A 
HETATM   15  C11 UNL     1      27.312  -1.517  52.852  1.00  0.00     0.030 A 
HETATM   16  C15 UNL     1      28.128   0.670  53.077  1.00  0.00     0.021 A 
HETATM   17  C12 UNL     1      28.562  -2.024  53.142  1.00  0.00     0.002 A 
HETATM   18  C13 UNL     1      29.619  -1.177  53.405  1.00  0.00     0.001 A 
HETATM   19  C14 UNL     1      29.394   0.184  53.371  1.00  0.00     0.013 A 
HETATM   20  C16 UNL     1      27.359   1.920  52.913  1.00  0.00     0.360 A 
BRANCH  20  21
HETATM   21  N3  UNL     1      27.233   2.671  54.131  1.00  0.00     0.106 N 
HETATM   22  H16 UNL     1      28.110   2.656  54.688  1.00  0.00     0.316 HD
HETATM   23  H17 UNL     1      26.377   2.405  54.660  1.00  0.00     0.316 HD
ENDBRANCH  20  21
ENDBRANCH   1  13
TORSDOF 6
ENDMDL
MODEL 9
REMARK VINA RESULT:      -7.0      4.470      7.530
REMARK  6 active torsions:
REMARK  status: ('A' for Active; 'I' for Inactive)
REMARK    1  A    between atoms: C2_2  and  C3_3 
REMARK       I    between atoms: C3_3  and  N1_5 
REMARK    2  A    between atoms: N1_5  and  C4_6 
REMARK    3  A    between atoms: C5_7  and  C6_8 
REMARK    4  A    between atoms: C7_9  and  C8_10 
REMARK    5  A    between atoms: C8_10  and  N2_12 
REMARK    6  A    between atoms: C16_19  and  N3_20 
ROOT
HETATM    1  C8  UNL     1      24.768   0.551  52.530  1.00  0.00     0.027 C 
HETATM    2  C9  UNL     1      24.253   1.524  51.795  1.00  0.00     0.043 C 
ENDROOT
BRANCH   1   3
HETATM    3  C7  UNL     1      23.941  -0.548  52.993  1.00  0.00     0.029 C 
HETATM    4  C6  UNL     1      22.722  -0.482  53.462  1.00  0.00     0.003 C 
BRANCH   4   5
HETATM    5  C5  UNL     1      21.723   0.540  53.726  1.00  0.00     0.017 C 
HETATM    6  C4  UNL     1      20.399   0.506  53.958  1.00  0.00     0.091 C 
BRANCH   6   7
HETATM    7  N1  UNL     1      19.785  -0.774  53.960  1.00  0.00    -0.334 N 
HETATM    8  C3  UNL     1      18.560  -1.192  53.334  1.00  0.00     0.244 C 
HETATM    9  O1  UNL     1      17.825  -0.427  52.659  1.00  0.00    -0.268 OA
HETATM   10  H4  UNL     1      20.374  -1.439  54.516  1.00  0.00     0.168 HD
BRANCH   8  11
HETATM   11  C2  UNL     1      18.216  -2.594  53.537  1.00  0.00     0.064 C 
HETATM   12  C1  UNL     1      17.009  -3.138  53.566  1.00  0.00     0.017 C 
ENDBRANCH   8  11
ENDBRANCH   6   7
ENDBRANCH   4   5
ENDBRANCH   1   3
BRANCH   1  13
HETATM   13  N2  UNL     1      26.152   0.776  52.751  1.00  0.00    -0.313 N 
HETATM   14  C10 UNL     1      27.136  -0.259  52.962  1.00  0.00     0.047 A 
HETATM   15  C11 UNL     1      27.598  -1.552  53.098  1.00  0.00     0.030 A 
HETATM   16  C15 UNL     1      28.104   0.738  53.076  1.00  0.00     0.021 A 
HETATM   17  C12 UNL     1      28.924  -1.853  53.331  1.00  0.00     0.002 A 
HETATM   18  C13 UNL     1      29.863  -0.848  53.440  1.00  0.00     0.001 A 
HETATM   19  C14 UNL     1      29.444   0.460  53.310  1.00  0.00     0.013 A 
HETATM   20  C16 UNL     1      27.154   1.849  52.869  1.00  0.00     0.360 A 
BRANCH  20  21
HETATM   21  N3  UNL     1      27.002   2.686  54.025  1.00  0.00     0.106 N 
HETATM   22  H16 UNL     1      26.012   2.963  54.176  1.00  0.00     0.316 HD
HETATM   23  H17 UNL     1      27.679   3.477  54.020  1.00  0.00     0.316 HD
ENDBRANCH  20  21
ENDBRANCH   1  13
TORSDOF 6
ENDMDL
