MODEL 1
REMARK VINA RESULT:      -8.1      0.000      0.000
REMARK  6 active torsions:
REMARK  status: ('A' for Active; 'I' for Inactive)
REMARK    1  A    between atoms: C5_5  and  C6_6 
REMARK    2  A    between atoms: C7_7  and  C8_8 
REMARK    3  A    between atoms: C8_8  and  C10_14 
REMARK    4  A    between atoms: N1_9  and  N2_10 
REMARK    5  A    between atoms: N2_10  and  C9_11 
REMARK    6  A    between atoms: C9_11  and  N3_12 
ROOT
HETATM    1  C8  UNL     1      26.413   1.002  52.919  1.00  0.00     0.087 C 
HETATM    2  N1  UNL     1      26.058   2.056  52.305  1.00  0.00    -0.172 NA
ENDROOT
BRANCH   1   3
HETATM    3  C7  UNL     1      25.138   0.578  53.488  1.00  0.00     0.035 C 
HETATM    4  C6  UNL     1      24.135   0.343  52.658  1.00  0.00     0.017 C 
BRANCH   4   5
HETATM    5  C5  UNL     1      22.820  -0.086  53.152  1.00  0.00     0.003 A 
HETATM    6  C4  UNL     1      22.599  -0.720  54.455  1.00  0.00     0.015 A 
HETATM    7  C3  UNL     1      21.325  -1.010  54.658  1.00  0.00     0.014 A 
HETATM    8  C2  UNL     1      20.637  -0.557  53.445  1.00  0.00    -0.006 A 
HETATM    9  C1  UNL     1      19.340  -0.651  53.217  1.00  0.00     0.026 C 
HETATM   10  C16 UNL     1      21.639   0.005  52.559  1.00  0.00     0.136 A 
HETATM   11  F1  UNL     1      21.463   0.549  51.319  1.00  0.00    -0.204 F 
ENDBRANCH   4   5
ENDBRANCH   1   3
BRANCH   1  12
HETATM   12  C10 UNL     1      27.642   0.247  53.135  1.00  0.00    -0.006 A 
HETATM   13  C11 UNL     1      28.816   0.848  53.511  1.00  0.00     0.014 A 
HETATM   14  C12 UNL     1      29.878   0.005  53.672  1.00  0.00     0.001 A 
HETATM   15  C13 UNL     1      29.870  -1.352  53.494  1.00  0.00     0.000 A 
HETATM   16  C14 UNL     1      28.659  -1.926  53.113  1.00  0.00     0.001 A 
HETATM   17  C15 UNL     1      27.543  -1.107  52.935  1.00  0.00     0.014 A 
ENDBRANCH   1  12
BRANCH   2  18
HETATM   18  N2  UNL     1      26.844   2.912  51.562  1.00  0.00    -0.253 N 
HETATM   19  H7  UNL     1      27.742   3.349  51.266  1.00  0.00     0.191 HD
BRANCH  18  20
HETATM   20  C9  UNL     1      25.955   3.627  50.683  1.00  0.00     0.185 C 
HETATM   21  S1  UNL     1      24.531   3.353  49.918  1.00  0.00    -0.040 SA
BRANCH  20  22
HETATM   22  N3  UNL     1      26.017   4.935  50.131  1.00  0.00    -0.375 N 
HETATM   23  H8  UNL     1      25.767   5.317  49.175  1.00  0.00     0.158 HD
HETATM   24  H9  UNL     1      26.340   5.844  50.572  1.00  0.00     0.158 HD
ENDBRANCH  20  22
ENDBRANCH  18  20
ENDBRANCH   2  18
TORSDOF 6
ENDMDL
MODEL 2
REMARK VINA RESULT:      -7.8      2.004      2.775
REMARK  6 active torsions:
REMARK  status: ('A' for Active; 'I' for Inactive)
REMARK    1  A    between atoms: C5_5  and  C6_6 
REMARK    2  A    between atoms: C7_7  and  C8_8 
REMARK    3  A    between atoms: C8_8  and  C10_14 
REMARK    4  A    between atoms: N1_9  and  N2_10 
REMARK    5  A    between atoms: N2_10  and  C9_11 
REMARK    6  A    between atoms: C9_11  and  N3_12 
ROOT
HETATM    1  C8  UNL     1      24.371   1.064  53.011  1.00  0.00     0.087 C 
HETATM    2  N1  UNL     1      23.916   2.242  52.873  1.00  0.00    -0.172 NA
ENDROOT
BRANCH   1   3
HETATM    3  C7  UNL     1      23.146   0.284  52.881  1.00  0.00     0.035 C 
HETATM    4  C6  UNL     1      21.993   0.897  53.093  1.00  0.00     0.017 C 
BRANCH   4   5
HETATM    5  C5  UNL     1      20.715   0.181  52.983  1.00  0.00     0.003 A 
HETATM    6  C4  UNL     1      19.697   0.470  51.971  1.00  0.00     0.015 A 
HETATM    7  C3  UNL     1      18.639  -0.315  52.089  1.00  0.00     0.014 A 
HETATM    8  C2  UNL     1      18.941  -1.184  53.232  1.00  0.00    -0.006 A 
HETATM    9  C1  UNL     1      18.152  -2.129  53.707  1.00  0.00     0.026 C 
HETATM   10  C16 UNL     1      20.251  -0.809  53.731  1.00  0.00     0.136 A 
HETATM   11  F1  UNL     1      20.941  -1.343  54.782  1.00  0.00    -0.204 F 
ENDBRANCH   4   5
ENDBRANCH   1   3
BRANCH   1  12
HETATM   12  C10 UNL     1      25.667   0.433  53.236  1.00  0.00    -0.006 A 
HETATM   13  C11 UNL     1      26.223  -0.443  52.339  1.00  0.00     0.014 A 
HETATM   14  C12 UNL     1      27.440  -0.949  52.694  1.00  0.00     0.001 A 
HETATM   15  C13 UNL     1      28.133  -0.665  53.840  1.00  0.00     0.000 A 
HETATM   16  C14 UNL     1      27.536   0.229  54.726  1.00  0.00     0.001 A 
HETATM   17  C15 UNL     1      26.292   0.775  54.409  1.00  0.00     0.014 A 
ENDBRANCH   1  12
BRANCH   2  18
HETATM   18  N2  UNL     1      24.614   3.431  52.902  1.00  0.00    -0.253 N 
HETATM   19  H7  UNL     1      25.461   4.025  53.031  1.00  0.00     0.191 HD
BRANCH  18  20
HETATM   20  C9  UNL     1      23.671   4.469  52.571  1.00  0.00     0.185 C 
HETATM   21  S1  UNL     1      22.128   4.572  52.028  1.00  0.00    -0.040 SA
BRANCH  20  22
HETATM   22  N3  UNL     1      23.769   5.885  52.608  1.00  0.00    -0.375 N 
HETATM   23  H8  UNL     1      24.599   6.542  52.669  1.00  0.00     0.158 HD
HETATM   24  H9  UNL     1      23.004   6.620  52.583  1.00  0.00     0.158 HD
ENDBRANCH  20  22
ENDBRANCH  18  20
ENDBRANCH   2  18
TORSDOF 6
ENDMDL
MODEL 3
REMARK VINA RESULT:      -7.7      3.722      6.495
REMARK  6 active torsions:
REMARK  status: ('A' for Active; 'I' for Inactive)
REMARK    1  A    between atoms: C5_5  and  C6_6 
REMARK    2  A    between atoms: C7_7  and  C8_8 
REMARK    3  A    between atoms: C8_8  and  C10_14 
REMARK    4  A    between atoms: N1_9  and  N2_10 
REMARK    5  A    between atoms: N2_10  and  C9_11 
REMARK    6  A    between atoms: C9_11  and  N3_12 
ROOT
HETATM    1  C8  UNL     1      25.817   3.926  49.770  1.00  0.00     0.087 C 
HETATM    2  N1  UNL     1      24.637   3.550  50.048  1.00  0.00    -0.172 NA
ENDROOT
BRANCH   1   3
HETATM    3  C7  UNL     1      26.594   2.853  50.380  1.00  0.00     0.035 C 
HETATM    4  C6  UNL     1      26.165   2.350  51.527  1.00  0.00     0.017 C 
BRANCH   4   5
HETATM    5  C5  UNL     1      26.891   1.268  52.206  1.00  0.00     0.003 A 
HETATM    6  C4  UNL     1      26.534  -0.149  52.105  1.00  0.00     0.015 A 
HETATM    7  C3  UNL     1      27.345  -0.919  52.812  1.00  0.00     0.014 A 
HETATM    8  C2  UNL     1      28.302   0.007  53.426  1.00  0.00    -0.006 A 
HETATM    9  C1  UNL     1      29.298  -0.334  54.222  1.00  0.00     0.026 C 
HETATM   10  C16 UNL     1      27.949   1.348  52.999  1.00  0.00     0.136 A 
HETATM   11  F1  UNL     1      28.558   2.527  53.320  1.00  0.00    -0.204 F 
ENDBRANCH   4   5
ENDBRANCH   1   3
BRANCH   1  12
HETATM   12  C10 UNL     1      26.454   5.037  49.073  1.00  0.00    -0.006 A 
HETATM   13  C11 UNL     1      25.770   6.172  48.720  1.00  0.00     0.014 A 
HETATM   14  C12 UNL     1      26.507   7.121  48.072  1.00  0.00     0.001 A 
HETATM   15  C13 UNL     1      27.836   7.039  47.754  1.00  0.00     0.000 A 
HETATM   16  C14 UNL     1      28.497   5.871  48.129  1.00  0.00     0.001 A 
HETATM   17  C15 UNL     1      27.788   4.870  48.794  1.00  0.00     0.014 A 
ENDBRANCH   1  12
BRANCH   2  18
HETATM   18  N2  UNL     1      23.449   4.172  49.726  1.00  0.00    -0.253 N 
HETATM   19  H7  UNL     1      22.684   4.470  49.083  1.00  0.00     0.191 HD
BRANCH  18  20
HETATM   20  C9  UNL     1      22.947   4.754  50.944  1.00  0.00     0.185 C 
HETATM   21  S1  UNL     1      21.751   4.456  52.024  1.00  0.00    -0.040 SA
BRANCH  20  22
HETATM   22  N3  UNL     1      23.358   5.891  51.691  1.00  0.00    -0.375 N 
HETATM   23  H8  UNL     1      23.865   6.780  51.415  1.00  0.00     0.158 HD
HETATM   24  H9  UNL     1      23.242   6.103  52.723  1.00  0.00     0.158 HD
ENDBRANCH  20  22
ENDBRANCH  18  20
ENDBRANCH   2  18
TORSDOF 6
ENDMDL
MODEL 4
REMARK VINA RESULT:      -7.6      2.334      4.306
REMARK  6 active torsions:
REMARK  status: ('A' for Active; 'I' for Inactive)
REMARK    1  A    between atoms: C5_5  and  C6_6 
REMARK    2  A    between atoms: C7_7  and  C8_8 
REMARK    3  A    between atoms: C8_8  and  C10_14 
REMARK    4  A    between atoms: N1_9  and  N2_10 
REMARK    5  A    between atoms: N2_10  and  C9_11 
REMARK    6  A    between atoms: C9_11  and  N3_12 
ROOT
HETATM    1  C8  UNL     1      25.323   2.253  52.212  1.00  0.00     0.087 C 
HETATM    2  N1  UNL     1      25.916   1.937  53.289  1.00  0.00    -0.172 NA
ENDROOT
BRANCH   1   3
HETATM    3  C7  UNL     1      24.171   1.360  52.266  1.00  0.00     0.035 C 
HETATM    4  C6  UNL     1      23.548   1.219  53.426  1.00  0.00     0.017 C 
BRANCH   4   5
HETATM    5  C5  UNL     1      22.381   0.338  53.564  1.00  0.00     0.003 A 
HETATM    6  C4  UNL     1      22.408  -0.960  54.243  1.00  0.00     0.015 A 
HETATM    7  C3  UNL     1      21.227  -1.555  54.227  1.00  0.00     0.014 A 
HETATM    8  C2  UNL     1      20.347  -0.629  53.507  1.00  0.00    -0.006 A 
HETATM    9  C1  UNL     1      19.066  -0.823  53.258  1.00  0.00     0.026 C 
HETATM   10  C16 UNL     1      21.144   0.524  53.128  1.00  0.00     0.136 A 
HETATM   11  F1  UNL     1      20.748   1.637  52.444  1.00  0.00    -0.204 F 
ENDBRANCH   4   5
ENDBRANCH   1   3
BRANCH   1  12
HETATM   12  C10 UNL     1      25.526   3.181  51.106  1.00  0.00    -0.006 A 
HETATM   13  C11 UNL     1      26.655   3.160  50.327  1.00  0.00     0.014 A 
HETATM   14  C12 UNL     1      26.695   4.094  49.332  1.00  0.00     0.001 A 
HETATM   15  C13 UNL     1      25.731   5.024  49.053  1.00  0.00     0.000 A 
HETATM   16  C14 UNL     1      24.598   5.014  49.865  1.00  0.00     0.001 A 
HETATM   17  C15 UNL     1      24.508   4.078  50.897  1.00  0.00     0.014 A 
ENDBRANCH   1  12
BRANCH   2  18
HETATM   18  N2  UNL     1      27.091   2.454  53.795  1.00  0.00    -0.253 N 
HETATM   19  H7  UNL     1      27.689   3.194  54.222  1.00  0.00     0.191 HD
BRANCH  18  20
HETATM   20  C9  UNL     1      28.078   1.411  53.691  1.00  0.00     0.185 C 
HETATM   21  S1  UNL     1      28.101  -0.222  53.547  1.00  0.00    -0.040 SA
BRANCH  20  22
HETATM   22  N3  UNL     1      29.498   1.447  53.676  1.00  0.00    -0.375 N 
HETATM   23  H8  UNL     1      30.230   0.685  53.594  1.00  0.00     0.158 HD
HETATM   24  H9  UNL     1      30.157   2.275  53.747  1.00  0.00     0.158 HD
ENDBRANCH  20  22
ENDBRANCH  18  20
ENDBRANCH   2  18
TORSDOF 6
ENDMDL
MODEL 5
REMARK VINA RESULT:      -7.5      2.543      6.174
REMARK  6 active torsions:
REMARK  status: ('A' for Active; 'I' for Inactive)
REMARK    1  A    between atoms: C5_5  and  C6_6 
REMARK    2  A    between atoms: C7_7  and  C8_8 
REMARK    3  A    between atoms: C8_8  and  C10_14 
REMARK    4  A    between atoms: N1_9  and  N2_10 
REMARK    5  A    between atoms: N2_10  and  C9_11 
REMARK    6  A    between atoms: C9_11  and  N3_12 
ROOT
HETATM    1  C8  UNL     1      23.801   2.972  52.639  1.00  0.00     0.087 C 
HETATM    2  N1  UNL     1      23.876   4.230  52.801  1.00  0.00    -0.172 NA
ENDROOT
BRANCH   1   3
HETATM    3  C7  UNL     1      25.081   2.551  53.197  1.00  0.00     0.035 C 
HETATM    4  C6  UNL     1      25.823   1.714  52.488  1.00  0.00     0.017 C 
BRANCH   4   5
HETATM    5  C5  UNL     1      27.124   1.241  52.980  1.00  0.00     0.003 A 
HETATM    6  C4  UNL     1      28.104   2.094  53.656  1.00  0.00     0.015 A 
HETATM    7  C3  UNL     1      29.194   1.426  53.998  1.00  0.00     0.014 A 
HETATM    8  C2  UNL     1      28.954   0.054  53.540  1.00  0.00    -0.006 A 
HETATM    9  C1  UNL     1      29.789  -0.958  53.676  1.00  0.00     0.026 C 
HETATM   10  C16 UNL     1      27.643   0.025  52.916  1.00  0.00     0.136 A 
HETATM   11  F1  UNL     1      27.001  -1.037  52.347  1.00  0.00    -0.204 F 
ENDBRANCH   4   5
ENDBRANCH   1   3
BRANCH   1  12
HETATM   12  C10 UNL     1      22.846   2.015  52.095  1.00  0.00    -0.006 A 
HETATM   13  C11 UNL     1      22.131   1.157  52.892  1.00  0.00     0.014 A 
HETATM   14  C12 UNL     1      21.277   0.321  52.231  1.00  0.00     0.001 A 
HETATM   15  C13 UNL     1      21.079   0.267  50.878  1.00  0.00     0.000 A 
HETATM   16  C14 UNL     1      21.823   1.154  50.102  1.00  0.00     0.001 A 
HETATM   17  C15 UNL     1      22.710   2.030  50.729  1.00  0.00     0.014 A 
ENDBRANCH   1  12
BRANCH   2  18
HETATM   18  N2  UNL     1      22.944   5.187  52.460  1.00  0.00    -0.253 N 
HETATM   19  H7  UNL     1      22.048   5.710  52.564  1.00  0.00     0.191 HD
BRANCH  18  20
HETATM   20  C9  UNL     1      23.469   5.883  51.313  1.00  0.00     0.185 C 
HETATM   21  S1  UNL     1      23.847   7.424  50.901  1.00  0.00    -0.040 SA
BRANCH  20  22
HETATM   22  N3  UNL     1      23.875   5.425  50.031  1.00  0.00    -0.375 N 
HETATM   23  H8  UNL     1      24.134   5.937  49.140  1.00  0.00     0.158 HD
HETATM   24  H9  UNL     1      24.010   4.435  49.675  1.00  0.00     0.158 HD
ENDBRANCH  20  22
ENDBRANCH  18  20
ENDBRANCH   2  18
TORSDOF 6
ENDMDL
MODEL 6
REMARK VINA RESULT:      -7.4      2.629      5.210
REMARK  6 active torsions:
REMARK  status: ('A' for Active; 'I' for Inactive)
REMARK    1  A    between atoms: C5_5  and  C6_6 
REMARK    2  A    between atoms: C7_7  and  C8_8 
REMARK    3  A    between atoms: C8_8  and  C10_14 
REMARK    4  A    between atoms: N1_9  and  N2_10 
REMARK    5  A    between atoms: N2_10  and  C9_11 
REMARK    6  A    between atoms: C9_11  and  N3_12 
ROOT
HETATM    1  C8  UNL     1      26.273   0.163  52.474  1.00  0.00     0.087 C 
HETATM    2  N1  UNL     1      25.062   0.298  52.832  1.00  0.00    -0.172 NA
ENDROOT
BRANCH   1   3
HETATM    3  C7  UNL     1      26.383   1.227  51.482  1.00  0.00     0.035 C 
HETATM    4  C6  UNL     1      25.559   2.258  51.583  1.00  0.00     0.017 C 
BRANCH   4   5
HETATM    5  C5  UNL     1      25.605   3.369  50.623  1.00  0.00     0.003 A 
HETATM    6  C4  UNL     1      26.754   3.663  49.763  1.00  0.00     0.015 A 
HETATM    7  C3  UNL     1      26.542   4.716  48.991  1.00  0.00     0.014 A 
HETATM    8  C2  UNL     1      25.189   5.167  49.332  1.00  0.00    -0.006 A 
HETATM    9  C1  UNL     1      24.565   6.199  48.796  1.00  0.00     0.026 C 
HETATM   10  C16 UNL     1      24.677   4.275  50.356  1.00  0.00     0.136 A 
HETATM   11  F1  UNL     1      23.461   4.308  50.976  1.00  0.00    -0.204 F 
ENDBRANCH   4   5
ENDBRANCH   1   3
BRANCH   1  12
HETATM   12  C10 UNL     1      27.400  -0.702  52.803  1.00  0.00    -0.006 A 
HETATM   13  C11 UNL     1      27.364  -2.060  52.610  1.00  0.00     0.014 A 
HETATM   14  C12 UNL     1      28.498  -2.731  52.968  1.00  0.00     0.001 A 
HETATM   15  C13 UNL     1      29.636  -2.178  53.490  1.00  0.00     0.000 A 
HETATM   16  C14 UNL     1      29.634  -0.797  53.672  1.00  0.00     0.001 A 
HETATM   17  C15 UNL     1      28.499  -0.065  53.321  1.00  0.00     0.014 A 
ENDBRANCH   1  12
BRANCH   2  18
HETATM   18  N2  UNL     1      24.364  -0.439  53.765  1.00  0.00    -0.253 N 
HETATM   19  H7  UNL     1      24.265  -1.137  54.534  1.00  0.00     0.191 HD
BRANCH  18  20
HETATM   20  C9  UNL     1      22.981  -0.057  53.640  1.00  0.00     0.185 C 
HETATM   21  S1  UNL     1      21.522  -0.616  54.137  1.00  0.00    -0.040 SA
BRANCH  20  22
HETATM   22  N3  UNL     1      22.355   1.035  52.983  1.00  0.00    -0.375 N 
HETATM   23  H8  UNL     1      22.416   2.084  53.126  1.00  0.00     0.158 HD
HETATM   24  H9  UNL     1      21.665   1.038  52.177  1.00  0.00     0.158 HD
ENDBRANCH  20  22
ENDBRANCH  18  20
ENDBRANCH   2  18
TORSDOF 6
ENDMDL
MODEL 7
REMARK VINA RESULT:      -7.2      3.021      5.765
REMARK  6 active torsions:
REMARK  status: ('A' for Active; 'I' for Inactive)
REMARK    1  A    between atoms: C5_5  and  C6_6 
REMARK    2  A    between atoms: C7_7  and  C8_8 
REMARK    3  A    between atoms: C8_8  and  C10_14 
REMARK    4  A    between atoms: N1_9  and  N2_10 
REMARK    5  A    between atoms: N2_10  and  C9_11 
REMARK    6  A    between atoms: C9_11  and  N3_12 
ROOT
HETATM    1  C8  UNL     1      24.984   1.057  52.967  1.00  0.00     0.087 C 
HETATM    2  N1  UNL     1      23.748   0.828  53.151  1.00  0.00    -0.172 NA
ENDROOT
BRANCH   1   3
HETATM    3  C7  UNL     1      24.926   2.386  52.370  1.00  0.00     0.035 C 
HETATM    4  C6  UNL     1      25.469   2.554  51.174  1.00  0.00     0.017 C 
BRANCH   4   5
HETATM    5  C5  UNL     1      25.453   3.862  50.505  1.00  0.00     0.003 A 
HETATM    6  C4  UNL     1      24.504   4.933  50.819  1.00  0.00     0.015 A 
HETATM    7  C3  UNL     1      24.702   6.008  50.073  1.00  0.00     0.014 A 
HETATM    8  C2  UNL     1      25.836   5.664  49.210  1.00  0.00    -0.006 A 
HETATM    9  C1  UNL     1      26.375   6.454  48.300  1.00  0.00     0.026 C 
HETATM   10  C16 UNL     1      26.243   4.311  49.542  1.00  0.00     0.136 A 
HETATM   11  F1  UNL     1      27.255   3.575  48.996  1.00  0.00    -0.204 F 
ENDBRANCH   4   5
ENDBRANCH   1   3
BRANCH   1  12
HETATM   12  C10 UNL     1      26.249   0.370  53.196  1.00  0.00    -0.006 A 
HETATM   13  C11 UNL     1      26.611  -0.756  52.500  1.00  0.00     0.014 A 
HETATM   14  C12 UNL     1      27.826  -1.282  52.831  1.00  0.00     0.001 A 
HETATM   15  C13 UNL     1      28.691  -0.795  53.774  1.00  0.00     0.000 A 
HETATM   16  C14 UNL     1      28.289   0.349  54.459  1.00  0.00     0.001 A 
HETATM   17  C15 UNL     1      27.055   0.926  54.158  1.00  0.00     0.014 A 
ENDBRANCH   1  12
BRANCH   2  18
HETATM   18  N2  UNL     1      23.165  -0.296  53.697  1.00  0.00    -0.253 N 
HETATM   19  H7  UNL     1      23.160  -1.269  54.072  1.00  0.00     0.191 HD
BRANCH  18  20
HETATM   20  C9  UNL     1      21.765   0.003  53.855  1.00  0.00     0.185 C 
HETATM   21  S1  UNL     1      20.631   0.916  53.101  1.00  0.00    -0.040 SA
BRANCH  20  22
HETATM   22  N3  UNL     1      20.803  -0.433  54.805  1.00  0.00    -0.375 N 
HETATM   23  H8  UNL     1      19.930  -1.027  54.715  1.00  0.00     0.158 HD
HETATM   24  H9  UNL     1      20.749  -0.251  55.849  1.00  0.00     0.158 HD
ENDBRANCH  20  22
ENDBRANCH  18  20
ENDBRANCH   2  18
TORSDOF 6
ENDMDL
MODEL 8
REMARK VINA RESULT:      -7.1      1.370      1.921
REMARK  6 active torsions:
REMARK  status: ('A' for Active; 'I' for Inactive)
REMARK    1  A    between atoms: C5_5  and  C6_6 
REMARK    2  A    between atoms: C7_7  and  C8_8 
REMARK    3  A    between atoms: C8_8  and  C10_14 
REMARK    4  A    between atoms: N1_9  and  N2_10 
REMARK    5  A    between atoms: N2_10  and  C9_11 
REMARK    6  A    between atoms: C9_11  and  N3_12 
ROOT
HETATM    1  C8  UNL     1      25.645   1.779  51.990  1.00  0.00     0.087 C 
HETATM    2  N1  UNL     1      25.292   2.564  51.057  1.00  0.00    -0.172 NA
ENDROOT
BRANCH   1   3
HETATM    3  C7  UNL     1      24.344   1.354  52.493  1.00  0.00     0.035 C 
HETATM    4  C6  UNL     1      23.349   1.242  51.627  1.00  0.00     0.017 C 
BRANCH   4   5
HETATM    5  C5  UNL     1      22.008   0.821  52.054  1.00  0.00     0.003 A 
HETATM    6  C4  UNL     1      21.619   0.614  53.451  1.00  0.00     0.015 A 
HETATM    7  C3  UNL     1      20.357   0.235  53.566  1.00  0.00     0.014 A 
HETATM    8  C2  UNL     1      19.854   0.179  52.189  1.00  0.00    -0.006 A 
HETATM    9  C1  UNL     1      18.628  -0.157  51.833  1.00  0.00     0.026 C 
HETATM   10  C16 UNL     1      20.945   0.557  51.310  1.00  0.00     0.136 A 
HETATM   11  F1  UNL     1      20.941   0.646  49.947  1.00  0.00    -0.204 F 
ENDBRANCH   4   5
ENDBRANCH   1   3
BRANCH   1  12
HETATM   12  C10 UNL     1      26.891   1.292  52.570  1.00  0.00    -0.006 A 
HETATM   13  C11 UNL     1      27.199  -0.043  52.635  1.00  0.00     0.014 A 
HETATM   14  C12 UNL     1      28.403  -0.338  53.208  1.00  0.00     0.001 A 
HETATM   15  C13 UNL     1      29.305   0.561  53.709  1.00  0.00     0.000 A 
HETATM   16  C14 UNL     1      28.957   1.908  53.624  1.00  0.00     0.001 A 
HETATM   17  C15 UNL     1      27.737   2.262  53.048  1.00  0.00     0.014 A 
ENDBRANCH   1  12
BRANCH   2  18
HETATM   18  N2  UNL     1      26.099   3.285  50.201  1.00  0.00    -0.253 N 
HETATM   19  H7  UNL     1      26.955   3.453  49.629  1.00  0.00     0.191 HD
BRANCH  18  20
HETATM   20  C9  UNL     1      25.399   4.508  49.908  1.00  0.00     0.185 C 
HETATM   21  S1  UNL     1      24.193   5.004  48.916  1.00  0.00    -0.040 SA
BRANCH  20  22
HETATM   22  N3  UNL     1      25.529   5.823  50.430  1.00  0.00    -0.375 N 
HETATM   23  H8  UNL     1      25.490   6.779  49.974  1.00  0.00     0.158 HD
HETATM   24  H9  UNL     1      25.701   6.145  51.426  1.00  0.00     0.158 HD
ENDBRANCH  20  22
ENDBRANCH  18  20
ENDBRANCH   2  18
TORSDOF 6
ENDMDL
MODEL 9
REMARK VINA RESULT:      -6.9      3.136      6.453
REMARK  6 active torsions:
REMARK  status: ('A' for Active; 'I' for Inactive)
REMARK    1  A    between atoms: C5_5  and  C6_6 
REMARK    2  A    between atoms: C7_7  and  C8_8 
REMARK    3  A    between atoms: C8_8  and  C10_14 
REMARK    4  A    between atoms: N1_9  and  N2_10 
REMARK    5  A    between atoms: N2_10  and  C9_11 
REMARK    6  A    between atoms: C9_11  and  N3_12 
ROOT
HETATM    1  C8  UNL     1      24.884   2.207  51.403  1.00  0.00     0.087 C 
HETATM    2  N1  UNL     1      23.739   2.166  50.855  1.00  0.00    -0.172 NA
ENDROOT
BRANCH   1   3
HETATM    3  C7  UNL     1      25.398   3.460  50.862  1.00  0.00     0.035 C 
HETATM    4  C6  UNL     1      26.008   3.426  49.688  1.00  0.00     0.017 C 
BRANCH   4   5
HETATM    5  C5  UNL     1      26.555   4.645  49.076  1.00  0.00     0.003 A 
HETATM    6  C4  UNL     1      27.954   4.805  48.675  1.00  0.00     0.015 A 
HETATM    7  C3  UNL     1      28.190   5.997  48.151  1.00  0.00     0.014 A 
HETATM    8  C2  UNL     1      26.897   6.688  48.191  1.00  0.00    -0.006 A 
HETATM    9  C1  UNL     1      26.668   7.915  47.764  1.00  0.00     0.026 C 
HETATM   10  C16 UNL     1      25.933   5.777  48.782  1.00  0.00     0.136 A 
HETATM   11  F1  UNL     1      24.606   5.988  49.020  1.00  0.00    -0.204 F 
ENDBRANCH   4   5
ENDBRANCH   1   3
BRANCH   1  12
HETATM   12  C10 UNL     1      25.666   1.385  52.320  1.00  0.00    -0.006 A 
HETATM   13  C11 UNL     1      25.717   1.634  53.668  1.00  0.00     0.014 A 
HETATM   14  C12 UNL     1      26.494   0.776  54.391  1.00  0.00     0.001 A 
HETATM   15  C13 UNL     1      27.206  -0.285  53.899  1.00  0.00     0.000 A 
HETATM   16  C14 UNL     1      27.128  -0.506  52.525  1.00  0.00     0.001 A 
HETATM   17  C15 UNL     1      26.347   0.344  51.741  1.00  0.00     0.014 A 
ENDBRANCH   1  12
BRANCH   2  18
HETATM   18  N2  UNL     1      22.768   1.196  50.986  1.00  0.00    -0.253 N 
HETATM   19  H7  UNL     1      22.308   0.285  50.768  1.00  0.00     0.191 HD
BRANCH  18  20
HETATM   20  C9  UNL     1      21.843   1.672  51.982  1.00  0.00     0.185 C 
HETATM   21  S1  UNL     1      20.826   2.942  52.178  1.00  0.00    -0.040 SA
BRANCH  20  22
HETATM   22  N3  UNL     1      21.463   1.153  53.249  1.00  0.00    -0.375 N 
HETATM   23  H8  UNL     1      20.546   0.769  53.616  1.00  0.00     0.158 HD
HETATM   24  H9  UNL     1      22.036   1.035  54.134  1.00  0.00     0.158 HD
ENDBRANCH  20  22
ENDBRANCH  18  20
ENDBRANCH   2  18
TORSDOF 6
ENDMDL
