MODEL 1
REMARK VINA RESULT:      -8.9      0.000      0.000
REMARK  8 active torsions:
REMARK  status: ('A' for Active; 'I' for Inactive)
REMARK    1  A    between atoms: N1_1  and  C1_2 
REMARK    2  A    between atoms: C1_2  and  C2_3 
REMARK    3  A    between atoms: O1_6  and  C4_7 
REMARK    4  A    between atoms: C6_9  and  N2_10 
REMARK    5  A    between atoms: N2_10  and  C7_11 
REMARK    6  A    between atoms: C10_14  and  O2_15 
REMARK    7  A    between atoms: O2_15  and  C11_16 
REMARK    8  A    between atoms: C11_16  and  C12_17 
ROOT
HETATM    1  N2  UNL     1      23.428   0.468  52.493  1.00  0.00    -0.341 N 
HETATM    2  H7  UNL     1      22.825  -0.209  51.968  1.00  0.00     0.167 HD
ENDROOT
BRANCH   1   3
HETATM    3  C6  UNL     1      24.102  -0.026  53.639  1.00  0.00     0.131 A 
HETATM    4  C5  UNL     1      25.432   0.358  53.861  1.00  0.00     0.084 A 
HETATM    5  C4  UNL     1      26.172  -0.064  54.937  1.00  0.00     0.090 A 
HETATM    6  N4  UNL     1      25.567  -0.889  55.808  1.00  0.00    -0.240 NA
HETATM    7  C20 UNL     1      24.294  -1.276  55.623  1.00  0.00     0.236 A 
HETATM    8  N3  UNL     1      23.595  -0.848  54.565  1.00  0.00    -0.224 NA
BRANCH   5   9
HETATM    9  O1  UNL     1      27.482   0.445  54.961  1.00  0.00     0.000 OA
HETATM   10  C3  UNL     1      28.435  -0.274  54.284  1.00  0.00     0.152 A 
HETATM   11  C2  UNL     1      29.421  -0.833  53.627  1.00  0.00     0.048 C 
HETATM   12  F1  UNL     1      28.611   1.057  54.496  1.00  0.00    -0.203 F 
BRANCH  11  13
HETATM   13  C1  UNL     1      29.453  -2.272  53.278  1.00  0.00     0.297 C 
BRANCH  13  14
HETATM   14  N1  UNL     1      28.122  -2.830  53.201  1.00  0.00     0.081 N 
HETATM   15  H1  UNL     1      28.213  -3.871  53.345  1.00  0.00     0.313 HD
HETATM   16  H2  UNL     1      27.634  -2.574  52.323  1.00  0.00     0.313 HD
ENDBRANCH  13  14
ENDBRANCH  11  13
ENDBRANCH   5   9
ENDBRANCH   1   3
BRANCH   1  17
HETATM   17  C7  UNL     1      23.482   1.784  51.974  1.00  0.00     0.035 A 
HETATM   18  C8  UNL     1      23.766   2.934  52.670  1.00  0.00     0.032 A 
HETATM   19  C9  UNL     1      23.806   4.187  52.131  1.00  0.00     0.041 A 
HETATM   20  C10 UNL     1      23.544   4.339  50.791  1.00  0.00     0.091 A 
HETATM   21  C18 UNL     1      23.253   3.229  50.037  1.00  0.00     0.069 A 
HETATM   22 CL1  UNL     1      22.918   3.411  48.328  1.00  0.00    -0.081 Cl
HETATM   23  C19 UNL     1      23.228   2.005  50.625  1.00  0.00     0.056 A 
BRANCH  20  24
HETATM   24  O2  UNL     1      23.562   5.572  50.156  1.00  0.00    -0.345 OA
BRANCH  24  25
HETATM   25  C11 UNL     1      24.578   6.484  50.533  1.00  0.00     0.214 C 
BRANCH  25  26
HETATM   26  C12 UNL     1      25.806   6.206  49.732  1.00  0.00    -0.034 A 
HETATM   27  C13 UNL     1      26.491   7.295  49.213  1.00  0.00     0.009 A 
HETATM   28  C14 UNL     1      27.623   7.141  48.469  1.00  0.00     0.001 A 
HETATM   29  C15 UNL     1      28.087   5.852  48.235  1.00  0.00     0.000 A 
HETATM   30  C16 UNL     1      27.430   4.736  48.736  1.00  0.00     0.001 A 
HETATM   31  C17 UNL     1      26.275   4.930  49.493  1.00  0.00     0.009 A 
ENDBRANCH  25  26
ENDBRANCH  24  25
ENDBRANCH  20  24
ENDBRANCH   1  17
TORSDOF 8
ENDMDL
MODEL 2
REMARK VINA RESULT:      -8.5      2.348      3.497
REMARK  8 active torsions:
REMARK  status: ('A' for Active; 'I' for Inactive)
REMARK    1  A    between atoms: N1_1  and  C1_2 
REMARK    2  A    between atoms: C1_2  and  C2_3 
REMARK    3  A    between atoms: O1_6  and  C4_7 
REMARK    4  A    between atoms: C6_9  and  N2_10 
REMARK    5  A    between atoms: N2_10  and  C7_11 
REMARK    6  A    between atoms: C10_14  and  O2_15 
REMARK    7  A    between atoms: O2_15  and  C11_16 
REMARK    8  A    between atoms: C11_16  and  C12_17 
ROOT
HETATM    1  N2  UNL     1      24.469   2.649  50.633  1.00  0.00    -0.341 N 
HETATM    2  H7  UNL     1      23.609   2.383  50.097  1.00  0.00     0.167 HD
ENDROOT
BRANCH   1   3
HETATM    3  C6  UNL     1      24.773   1.881  51.786  1.00  0.00     0.131 A 
HETATM    4  C5  UNL     1      25.963   2.139  52.478  1.00  0.00     0.084 A 
HETATM    5  C4  UNL     1      26.350   1.453  53.603  1.00  0.00     0.090 A 
HETATM    6  N4  UNL     1      25.525   0.487  54.041  1.00  0.00    -0.240 NA
HETATM    7  C20 UNL     1      24.378   0.214  53.400  1.00  0.00     0.236 A 
HETATM    8  N3  UNL     1      24.024   0.900  52.306  1.00  0.00    -0.224 NA
BRANCH   5   9
HETATM    9  O1  UNL     1      27.580   1.878  54.134  1.00  0.00     0.000 OA
HETATM   10  C3  UNL     1      28.651   1.040  53.954  1.00  0.00     0.152 A 
HETATM   11  C2  UNL     1      29.761   0.361  53.796  1.00  0.00     0.048 C 
HETATM   12  F1  UNL     1      28.853   2.372  54.140  1.00  0.00    -0.203 F 
BRANCH  11  13
HETATM   13  C1  UNL     1      29.793  -1.103  53.578  1.00  0.00     0.297 C 
BRANCH  13  14
HETATM   14  N1  UNL     1      28.463  -1.649  53.435  1.00  0.00     0.081 N 
HETATM   15  H1  UNL     1      28.565  -2.694  53.339  1.00  0.00     0.313 HD
HETATM   16  H2  UNL     1      27.935  -1.211  52.659  1.00  0.00     0.313 HD
ENDBRANCH  13  14
ENDBRANCH  11  13
ENDBRANCH   5   9
ENDBRANCH   1   3
BRANCH   1  17
HETATM   17  C7  UNL     1      25.206   3.743  50.120  1.00  0.00     0.035 A 
HETATM   18  C8  UNL     1      26.346   3.684  49.353  1.00  0.00     0.032 A 
HETATM   19  C9  UNL     1      27.029   4.765  48.880  1.00  0.00     0.041 A 
HETATM   20  C10 UNL     1      26.565   6.024  49.177  1.00  0.00     0.091 A 
HETATM   21  C18 UNL     1      25.430   6.154  49.941  1.00  0.00     0.069 A 
HETATM   22 CL1  UNL     1      24.829   7.753  50.326  1.00  0.00    -0.081 Cl
HETATM   23  C19 UNL     1      24.789   5.042  50.386  1.00  0.00     0.056 A 
BRANCH  20  24
HETATM   24  O2  UNL     1      27.191   7.181  48.740  1.00  0.00    -0.345 OA
BRANCH  24  25
HETATM   25  C11 UNL     1      28.198   7.042  47.753  1.00  0.00     0.214 C 
BRANCH  25  26
HETATM   26  C12 UNL     1      29.525   7.346  48.363  1.00  0.00    -0.034 A 
HETATM   27  C13 UNL     1      30.427   6.299  48.483  1.00  0.00     0.009 A 
HETATM   28  C14 UNL     1      31.665   6.478  49.027  1.00  0.00     0.001 A 
HETATM   29  C15 UNL     1      32.012   7.750  49.467  1.00  0.00     0.000 A 
HETATM   30  C16 UNL     1      31.138   8.824  49.365  1.00  0.00     0.001 A 
HETATM   31  C17 UNL     1      29.881   8.604  48.803  1.00  0.00     0.009 A 
ENDBRANCH  25  26
ENDBRANCH  24  25
ENDBRANCH  20  24
ENDBRANCH   1  17
TORSDOF 8
ENDMDL
MODEL 3
REMARK VINA RESULT:      -8.5      1.651      2.244
REMARK  8 active torsions:
REMARK  status: ('A' for Active; 'I' for Inactive)
REMARK    1  A    between atoms: N1_1  and  C1_2 
REMARK    2  A    between atoms: C1_2  and  C2_3 
REMARK    3  A    between atoms: O1_6  and  C4_7 
REMARK    4  A    between atoms: C6_9  and  N2_10 
REMARK    5  A    between atoms: N2_10  and  C7_11 
REMARK    6  A    between atoms: C10_14  and  O2_15 
REMARK    7  A    between atoms: O2_15  and  C11_16 
REMARK    8  A    between atoms: C11_16  and  C12_17 
ROOT
HETATM    1  N2  UNL     1      24.009   1.605  51.553  1.00  0.00    -0.341 N 
HETATM    2  H7  UNL     1      23.142   1.256  51.080  1.00  0.00     0.167 HD
ENDROOT
BRANCH   1   3
HETATM    3  C6  UNL     1      24.479   0.862  52.666  1.00  0.00     0.131 A 
HETATM    4  C5  UNL     1      25.751   1.146  53.182  1.00  0.00     0.084 A 
HETATM    5  C4  UNL     1      26.298   0.485  54.254  1.00  0.00     0.090 A 
HETATM    6  N4  UNL     1      25.553  -0.481  54.819  1.00  0.00    -0.240 NA
HETATM    7  C20 UNL     1      24.331  -0.777  54.348  1.00  0.00     0.236 A 
HETATM    8  N3  UNL     1      23.822  -0.115  53.302  1.00  0.00    -0.224 NA
BRANCH   5   9
HETATM    9  O1  UNL     1      27.584   0.932  54.601  1.00  0.00     0.000 OA
HETATM   10  C3  UNL     1      28.639   0.173  54.163  1.00  0.00     0.152 A 
HETATM   11  C2  UNL     1      29.730  -0.428  53.755  1.00  0.00     0.048 C 
HETATM   12  F1  UNL     1      28.817   1.493  54.433  1.00  0.00    -0.203 F 
BRANCH  11  13
HETATM   13  C1  UNL     1      29.782  -1.865  53.401  1.00  0.00     0.297 C 
BRANCH  13  14
HETATM   14  N1  UNL     1      28.458  -2.423  53.249  1.00  0.00     0.081 N 
HETATM   15  H1  UNL     1      28.218  -2.906  54.155  1.00  0.00     0.313 HD
HETATM   16  H2  UNL     1      28.380  -3.039  52.418  1.00  0.00     0.313 HD
ENDBRANCH  13  14
ENDBRANCH  11  13
ENDBRANCH   5   9
ENDBRANCH   1   3
BRANCH   1  17
HETATM   17  C7  UNL     1      24.587   2.775  51.005  1.00  0.00     0.035 A 
HETATM   18  C8  UNL     1      25.689   2.845  50.185  1.00  0.00     0.032 A 
HETATM   19  C9  UNL     1      26.217   3.997  49.678  1.00  0.00     0.041 A 
HETATM   20  C10 UNL     1      25.621   5.194  49.995  1.00  0.00     0.091 A 
HETATM   21  C18 UNL     1      24.516   5.194  50.811  1.00  0.00     0.069 A 
HETATM   22 CL1  UNL     1      23.749   6.714  51.222  1.00  0.00    -0.081 Cl
HETATM   23  C19 UNL     1      24.032   4.018  51.287  1.00  0.00     0.056 A 
BRANCH  20  24
HETATM   24  O2  UNL     1      26.086   6.413  49.527  1.00  0.00    -0.345 OA
BRANCH  24  25
HETATM   25  C11 UNL     1      26.651   6.440  48.229  1.00  0.00     0.214 C 
BRANCH  25  26
HETATM   26  C12 UNL     1      28.122   6.667  48.341  1.00  0.00    -0.034 A 
HETATM   27  C13 UNL     1      28.549   7.954  48.633  1.00  0.00     0.009 A 
HETATM   28  C14 UNL     1      29.873   8.259  48.755  1.00  0.00     0.001 A 
HETATM   29  C15 UNL     1      30.802   7.241  48.580  1.00  0.00     0.000 A 
HETATM   30  C16 UNL     1      30.415   5.940  48.287  1.00  0.00     0.001 A 
HETATM   31  C17 UNL     1      29.054   5.663  48.169  1.00  0.00     0.009 A 
ENDBRANCH  25  26
ENDBRANCH  24  25
ENDBRANCH  20  24
ENDBRANCH   1  17
TORSDOF 8
ENDMDL
MODEL 4
REMARK VINA RESULT:      -8.5      3.171      4.460
REMARK  8 active torsions:
REMARK  status: ('A' for Active; 'I' for Inactive)
REMARK    1  A    between atoms: N1_1  and  C1_2 
REMARK    2  A    between atoms: C1_2  and  C2_3 
REMARK    3  A    between atoms: O1_6  and  C4_7 
REMARK    4  A    between atoms: C6_9  and  N2_10 
REMARK    5  A    between atoms: N2_10  and  C7_11 
REMARK    6  A    between atoms: C10_14  and  O2_15 
REMARK    7  A    between atoms: O2_15  and  C11_16 
REMARK    8  A    between atoms: C11_16  and  C12_17 
ROOT
HETATM    1  N2  UNL     1      26.191   3.039  49.706  1.00  0.00    -0.341 N 
HETATM    2  H7  UNL     1      26.224   2.338  48.928  1.00  0.00     0.167 HD
ENDROOT
BRANCH   1   3
HETATM    3  C6  UNL     1      25.937   2.543  51.010  1.00  0.00     0.131 A 
HETATM    4  C5  UNL     1      26.984   2.517  51.941  1.00  0.00     0.084 A 
HETATM    5  C4  UNL     1      26.843   2.056  53.227  1.00  0.00     0.090 A 
HETATM    6  N4  UNL     1      25.626   1.611  53.585  1.00  0.00    -0.240 NA
HETATM    7  C20 UNL     1      24.603   1.622  52.716  1.00  0.00     0.236 A 
HETATM    8  N3  UNL     1      24.768   2.079  51.468  1.00  0.00    -0.224 NA
BRANCH   5   9
HETATM    9  O1  UNL     1      28.023   2.121  53.987  1.00  0.00     0.000 OA
HETATM   10  C3  UNL     1      28.877   1.052  53.892  1.00  0.00     0.152 A 
HETATM   11  C2  UNL     1      29.802   0.125  53.842  1.00  0.00     0.048 C 
HETATM   12  F1  UNL     1      29.355   2.274  54.246  1.00  0.00    -0.203 F 
BRANCH  11  13
HETATM   13  C1  UNL     1      29.522  -1.283  53.480  1.00  0.00     0.297 C 
BRANCH  13  14
HETATM   14  N1  UNL     1      28.102  -1.543  53.414  1.00  0.00     0.081 N 
HETATM   15  H1  UNL     1      27.983  -2.541  53.096  1.00  0.00     0.313 HD
HETATM   16  H2  UNL     1      27.599  -0.856  52.823  1.00  0.00     0.313 HD
ENDBRANCH  13  14
ENDBRANCH  11  13
ENDBRANCH   5   9
ENDBRANCH   1   3
BRANCH   1  17
HETATM   17  C7  UNL     1      26.409   4.388  49.335  1.00  0.00     0.035 A 
HETATM   18  C8  UNL     1      25.541   5.441  49.503  1.00  0.00     0.032 A 
HETATM   19  C9  UNL     1      25.790   6.729  49.129  1.00  0.00     0.041 A 
HETATM   20  C10 UNL     1      26.993   7.025  48.536  1.00  0.00     0.091 A 
HETATM   21  C18 UNL     1      27.906   6.018  48.338  1.00  0.00     0.069 A 
HETATM   22 CL1  UNL     1      29.443   6.385  47.583  1.00  0.00    -0.081 Cl
HETATM   23  C19 UNL     1      27.607   4.753  48.731  1.00  0.00     0.056 A 
BRANCH  20  24
HETATM   24  O2  UNL     1      27.334   8.304  48.123  1.00  0.00    -0.345 OA
BRANCH  24  25
HETATM   25  C11 UNL     1      27.174   9.355  49.059  1.00  0.00     0.214 C 
BRANCH  25  26
HETATM   26  C12 UNL     1      28.414  10.184  49.080  1.00  0.00    -0.034 A 
HETATM   27  C13 UNL     1      28.276  11.545  48.851  1.00  0.00     0.009 A 
HETATM   28  C14 UNL     1      29.351  12.385  48.850  1.00  0.00     0.001 A 
HETATM   29  C15 UNL     1      30.609  11.842  49.087  1.00  0.00     0.000 A 
HETATM   30  C16 UNL     1      30.789  10.486  49.320  1.00  0.00     0.001 A 
HETATM   31  C17 UNL     1      29.668   9.657  49.313  1.00  0.00     0.009 A 
ENDBRANCH  25  26
ENDBRANCH  24  25
ENDBRANCH  20  24
ENDBRANCH   1  17
TORSDOF 8
ENDMDL
MODEL 5
REMARK VINA RESULT:      -8.4      1.621      2.171
REMARK  8 active torsions:
REMARK  status: ('A' for Active; 'I' for Inactive)
REMARK    1  A    between atoms: N1_1  and  C1_2 
REMARK    2  A    between atoms: C1_2  and  C2_3 
REMARK    3  A    between atoms: O1_6  and  C4_7 
REMARK    4  A    between atoms: C6_9  and  N2_10 
REMARK    5  A    between atoms: N2_10  and  C7_11 
REMARK    6  A    between atoms: C10_14  and  O2_15 
REMARK    7  A    between atoms: O2_15  and  C11_16 
REMARK    8  A    between atoms: C11_16  and  C12_17 
ROOT
HETATM    1  N2  UNL     1      22.327  -0.420  52.940  1.00  0.00    -0.341 N 
HETATM    2  H7  UNL     1      21.597  -1.171  52.925  1.00  0.00     0.167 HD
ENDROOT
BRANCH   1   3
HETATM    3  C6  UNL     1      23.407  -0.590  53.844  1.00  0.00     0.131 A 
HETATM    4  C5  UNL     1      24.650  -0.025  53.530  1.00  0.00     0.084 A 
HETATM    5  C4  UNL     1      25.756  -0.132  54.335  1.00  0.00     0.090 A 
HETATM    6  N4  UNL     1      25.613  -0.821  55.480  1.00  0.00    -0.240 NA
HETATM    7  C20 UNL     1      24.435  -1.375  55.810  1.00  0.00     0.236 A 
HETATM    8  N3  UNL     1      23.371  -1.254  55.006  1.00  0.00    -0.224 NA
BRANCH   5   9
HETATM    9  O1  UNL     1      26.897   0.512  53.824  1.00  0.00     0.000 OA
HETATM   10  C3  UNL     1      27.959  -0.289  53.491  1.00  0.00     0.152 A 
HETATM   11  C2  UNL     1      29.015  -0.947  53.079  1.00  0.00     0.048 C 
HETATM   12  F1  UNL     1      27.808   0.922  52.894  1.00  0.00    -0.203 F 
BRANCH  11  13
HETATM   13  C1  UNL     1      29.386  -2.288  53.584  1.00  0.00     0.297 C 
BRANCH  13  14
HETATM   14  N1  UNL     1      28.491  -3.309  53.091  1.00  0.00     0.081 N 
HETATM   15  H1  UNL     1      27.802  -2.834  52.449  1.00  0.00     0.313 HD
HETATM   16  H2  UNL     1      28.043  -3.848  53.855  1.00  0.00     0.313 HD
ENDBRANCH  13  14
ENDBRANCH  11  13
ENDBRANCH   5   9
ENDBRANCH   1   3
BRANCH   1  17
HETATM   17  C7  UNL     1      22.126   0.659  52.047  1.00  0.00     0.035 A 
HETATM   18  C8  UNL     1      21.764   0.578  50.723  1.00  0.00     0.032 A 
HETATM   19  C9  UNL     1      21.582   1.646  49.893  1.00  0.00     0.041 A 
HETATM   20  C10 UNL     1      21.769   2.912  50.393  1.00  0.00     0.091 A 
HETATM   21  C18 UNL     1      22.133   3.063  51.709  1.00  0.00     0.069 A 
HETATM   22 CL1  UNL     1      22.374   4.672  52.358  1.00  0.00    -0.081 Cl
HETATM   23  C19 UNL     1      22.300   1.965  52.491  1.00  0.00     0.056 A 
BRANCH  20  24
HETATM   24  O2  UNL     1      21.606   4.056  49.627  1.00  0.00    -0.345 OA
BRANCH  24  25
HETATM   25  C11 UNL     1      22.323   4.130  48.408  1.00  0.00     0.214 C 
BRANCH  25  26
HETATM   26  C12 UNL     1      23.710   4.605  48.684  1.00  0.00    -0.034 A 
HETATM   27  C13 UNL     1      23.992   5.938  48.423  1.00  0.00     0.009 A 
HETATM   28  C14 UNL     1      25.231   6.464  48.644  1.00  0.00     0.001 A 
HETATM   29  C15 UNL     1      26.222   5.627  49.144  1.00  0.00     0.000 A 
HETATM   30  C16 UNL     1      25.980   4.288  49.418  1.00  0.00     0.001 A 
HETATM   31  C17 UNL     1      24.702   3.783  49.180  1.00  0.00     0.009 A 
ENDBRANCH  25  26
ENDBRANCH  24  25
ENDBRANCH  20  24
ENDBRANCH   1  17
TORSDOF 8
ENDMDL
MODEL 6
REMARK VINA RESULT:      -8.3      4.833      8.890
REMARK  8 active torsions:
REMARK  status: ('A' for Active; 'I' for Inactive)
REMARK    1  A    between atoms: N1_1  and  C1_2 
REMARK    2  A    between atoms: C1_2  and  C2_3 
REMARK    3  A    between atoms: O1_6  and  C4_7 
REMARK    4  A    between atoms: C6_9  and  N2_10 
REMARK    5  A    between atoms: N2_10  and  C7_11 
REMARK    6  A    between atoms: C10_14  and  O2_15 
REMARK    7  A    between atoms: O2_15  and  C11_16 
REMARK    8  A    between atoms: C11_16  and  C12_17 
ROOT
HETATM    1  N2  UNL     1      25.604   5.492  49.019  1.00  0.00    -0.341 N 
HETATM    2  H7  UNL     1      25.006   5.438  48.161  1.00  0.00     0.167 HD
ENDROOT
BRANCH   1   3
HETATM    3  C6  UNL     1      26.303   6.705  49.242  1.00  0.00     0.131 A 
HETATM    4  C5  UNL     1      27.499   6.935  48.549  1.00  0.00     0.084 A 
HETATM    5  C4  UNL     1      28.252   8.074  48.693  1.00  0.00     0.090 A 
HETATM    6  N4  UNL     1      27.794   9.003  49.551  1.00  0.00    -0.240 NA
HETATM    7  C20 UNL     1      26.652   8.812  50.230  1.00  0.00     0.236 A 
HETATM    8  N3  UNL     1      25.937   7.692  50.069  1.00  0.00    -0.224 NA
BRANCH   5   9
HETATM    9  O1  UNL     1      29.413   8.093  47.902  1.00  0.00     0.000 OA
HETATM   10  C3  UNL     1      30.257   9.161  48.072  1.00  0.00     0.152 A 
HETATM   11  C2  UNL     1      31.172  10.092  48.183  1.00  0.00     0.048 C 
HETATM   12  F1  UNL     1      30.740   7.981  47.598  1.00  0.00    -0.203 F 
BRANCH  11  13
HETATM   13  C1  UNL     1      30.886  11.458  48.677  1.00  0.00     0.297 C 
BRANCH  13  14
HETATM   14  N1  UNL     1      29.598  11.529  49.328  1.00  0.00     0.081 N 
HETATM   15  H1  UNL     1      29.777  11.690  50.355  1.00  0.00     0.313 HD
HETATM   16  H2  UNL     1      29.009  10.698  49.135  1.00  0.00     0.313 HD
ENDBRANCH  13  14
ENDBRANCH  11  13
ENDBRANCH   5   9
ENDBRANCH   1   3
BRANCH   1  17
HETATM   17  C7  UNL     1      25.622   4.336  49.837  1.00  0.00     0.035 A 
HETATM   18  C8  UNL     1      26.601   3.371  49.879  1.00  0.00     0.032 A 
HETATM   19  C9  UNL     1      26.580   2.268  50.682  1.00  0.00     0.041 A 
HETATM   20  C10 UNL     1      25.509   2.082  51.522  1.00  0.00     0.091 A 
HETATM   21  C18 UNL     1      24.496   3.009  51.529  1.00  0.00     0.069 A 
HETATM   22 CL1  UNL     1      23.126   2.783  52.597  1.00  0.00    -0.081 Cl
HETATM   23  C19 UNL     1      24.569   4.090  50.709  1.00  0.00     0.056 A 
BRANCH  20  24
HETATM   24  O2  UNL     1      25.401   0.993  52.374  1.00  0.00    -0.345 OA
BRANCH  24  25
HETATM   25  C11 UNL     1      26.259   0.959  53.500  1.00  0.00     0.214 C 
BRANCH  25  26
HETATM   26  C12 UNL     1      27.219  -0.174  53.349  1.00  0.00    -0.034 A 
HETATM   27  C13 UNL     1      26.726  -1.364  52.834  1.00  0.00     0.009 A 
HETATM   28  C14 UNL     1      27.526  -2.455  52.659  1.00  0.00     0.001 A 
HETATM   29  C15 UNL     1      28.867  -2.350  53.011  1.00  0.00     0.000 A 
HETATM   30  C16 UNL     1      29.398  -1.177  53.530  1.00  0.00     0.001 A 
HETATM   31  C17 UNL     1      28.552  -0.082  53.695  1.00  0.00     0.009 A 
ENDBRANCH  25  26
ENDBRANCH  24  25
ENDBRANCH  20  24
ENDBRANCH   1  17
TORSDOF 8
ENDMDL
MODEL 7
REMARK VINA RESULT:      -8.3      4.496      8.181
REMARK  8 active torsions:
REMARK  status: ('A' for Active; 'I' for Inactive)
REMARK    1  A    between atoms: N1_1  and  C1_2 
REMARK    2  A    between atoms: C1_2  and  C2_3 
REMARK    3  A    between atoms: O1_6  and  C4_7 
REMARK    4  A    between atoms: C6_9  and  N2_10 
REMARK    5  A    between atoms: N2_10  and  C7_11 
REMARK    6  A    between atoms: C10_14  and  O2_15 
REMARK    7  A    between atoms: O2_15  and  C11_16 
REMARK    8  A    between atoms: C11_16  and  C12_17 
ROOT
HETATM    1  N2  UNL     1      25.278   5.561  49.227  1.00  0.00    -0.341 N 
HETATM    2  H7  UNL     1      24.470   5.629  48.563  1.00  0.00     0.167 HD
ENDROOT
BRANCH   1   3
HETATM    3  C6  UNL     1      26.158   6.672  49.286  1.00  0.00     0.131 A 
HETATM    4  C5  UNL     1      27.203   6.760  48.357  1.00  0.00     0.084 A 
HETATM    5  C4  UNL     1      28.108   7.792  48.329  1.00  0.00     0.090 A 
HETATM    6  N4  UNL     1      27.961   8.756  49.254  1.00  0.00    -0.240 NA
HETATM    7  C20 UNL     1      26.971   8.701  50.159  1.00  0.00     0.236 A 
HETATM    8  N3  UNL     1      26.101   7.683  50.162  1.00  0.00    -0.224 NA
BRANCH   5   9
HETATM    9  O1  UNL     1      29.072   7.677  47.313  1.00  0.00     0.000 OA
HETATM   10  C3  UNL     1      30.231   7.019  47.635  1.00  0.00     0.152 A 
HETATM   11  C2  UNL     1      31.353   6.362  47.798  1.00  0.00     0.048 C 
HETATM   12  F1  UNL     1      29.821   7.078  46.341  1.00  0.00    -0.203 F 
BRANCH  11  13
HETATM   13  C1  UNL     1      31.997   6.165  49.117  1.00  0.00     0.297 C 
BRANCH  13  14
HETATM   14  N1  UNL     1      31.525   7.126  50.087  1.00  0.00     0.081 N 
HETATM   15  H1  UNL     1      32.372   7.630  50.462  1.00  0.00     0.313 HD
HETATM   16  H2  UNL     1      30.940   6.692  50.824  1.00  0.00     0.313 HD
ENDBRANCH  13  14
ENDBRANCH  11  13
ENDBRANCH   5   9
ENDBRANCH   1   3
BRANCH   1  17
HETATM   17  C7  UNL     1      25.371   4.361  49.972  1.00  0.00     0.035 A 
HETATM   18  C8  UNL     1      26.433   3.489  50.003  1.00  0.00     0.032 A 
HETATM   19  C9  UNL     1      26.481   2.339  50.735  1.00  0.00     0.041 A 
HETATM   20  C10 UNL     1      25.398   2.002  51.511  1.00  0.00     0.091 A 
HETATM   21  C18 UNL     1      24.303   2.831  51.524  1.00  0.00     0.069 A 
HETATM   22 CL1  UNL     1      22.916   2.411  52.509  1.00  0.00    -0.081 Cl
HETATM   23  C19 UNL     1      24.309   3.964  50.777  1.00  0.00     0.056 A 
BRANCH  20  24
HETATM   24  O2  UNL     1      25.356   0.854  52.288  1.00  0.00    -0.345 OA
BRANCH  24  25
HETATM   25  C11 UNL     1      26.134   0.841  53.471  1.00  0.00     0.214 C 
BRANCH  25  26
HETATM   26  C12 UNL     1      27.194  -0.202  53.348  1.00  0.00    -0.034 A 
HETATM   27  C13 UNL     1      28.492   0.166  53.668  1.00  0.00     0.009 A 
HETATM   28  C14 UNL     1      29.528  -0.717  53.587  1.00  0.00     0.001 A 
HETATM   29  C15 UNL     1      29.255  -2.015  53.171  1.00  0.00     0.000 A 
HETATM   30  C16 UNL     1      27.969  -2.423  52.842  1.00  0.00     0.001 A 
HETATM   31  C17 UNL     1      26.934  -1.493  52.937  1.00  0.00     0.009 A 
ENDBRANCH  25  26
ENDBRANCH  24  25
ENDBRANCH  20  24
ENDBRANCH   1  17
TORSDOF 8
ENDMDL
MODEL 8
REMARK VINA RESULT:      -8.3      5.568      8.579
REMARK  8 active torsions:
REMARK  status: ('A' for Active; 'I' for Inactive)
REMARK    1  A    between atoms: N1_1  and  C1_2 
REMARK    2  A    between atoms: C1_2  and  C2_3 
REMARK    3  A    between atoms: O1_6  and  C4_7 
REMARK    4  A    between atoms: C6_9  and  N2_10 
REMARK    5  A    between atoms: N2_10  and  C7_11 
REMARK    6  A    between atoms: C10_14  and  O2_15 
REMARK    7  A    between atoms: O2_15  and  C11_16 
REMARK    8  A    between atoms: C11_16  and  C12_17 
ROOT
HETATM    1  N2  UNL     1      27.886   6.543  47.936  1.00  0.00    -0.341 N 
HETATM    2  H7  UNL     1      27.477   6.893  47.037  1.00  0.00     0.167 HD
ENDROOT
BRANCH   1   3
HETATM    3  C6  UNL     1      29.227   6.909  48.219  1.00  0.00     0.131 A 
HETATM    4  C5  UNL     1      30.249   5.983  47.972  1.00  0.00     0.084 A 
HETATM    5  C4  UNL     1      31.577   6.238  48.212  1.00  0.00     0.090 A 
HETATM    6  N4  UNL     1      31.885   7.447  48.710  1.00  0.00    -0.240 NA
HETATM    7  C20 UNL     1      30.929   8.356  48.959  1.00  0.00     0.236 A 
HETATM    8  N3  UNL     1      29.641   8.082  48.715  1.00  0.00    -0.224 NA
BRANCH   5   9
HETATM    9  O1  UNL     1      32.429   5.167  47.891  1.00  0.00     0.000 OA
HETATM   10  C3  UNL     1      33.745   5.295  48.257  1.00  0.00     0.152 A 
HETATM   11  C2  UNL     1      35.007   5.269  48.606  1.00  0.00     0.048 C 
HETATM   12  F1  UNL     1      33.202   4.060  48.094  1.00  0.00    -0.203 F 
BRANCH  11  13
HETATM   13  C1  UNL     1      35.811   6.489  48.841  1.00  0.00     0.297 C 
BRANCH  13  14
HETATM   14  N1  UNL     1      35.012   7.686  48.709  1.00  0.00     0.081 N 
HETATM   15  H1  UNL     1      34.036   7.381  48.455  1.00  0.00     0.313 HD
HETATM   16  H2  UNL     1      35.422   8.366  48.042  1.00  0.00     0.313 HD
ENDBRANCH  13  14
ENDBRANCH  11  13
ENDBRANCH   5   9
ENDBRANCH   1   3
BRANCH   1  17
HETATM   17  C7  UNL     1      27.032   5.753  48.741  1.00  0.00     0.035 A 
HETATM   18  C8  UNL     1      27.123   4.398  48.960  1.00  0.00     0.032 A 
HETATM   19  C9  UNL     1      26.275   3.672  49.743  1.00  0.00     0.041 A 
HETATM   20  C10 UNL     1      25.240   4.318  50.375  1.00  0.00     0.091 A 
HETATM   21  C18 UNL     1      25.092   5.673  50.199  1.00  0.00     0.069 A 
HETATM   22 CL1  UNL     1      23.777   6.507  51.000  1.00  0.00    -0.081 Cl
HETATM   23  C19 UNL     1      25.966   6.347  49.408  1.00  0.00     0.056 A 
BRANCH  20  24
HETATM   24  O2  UNL     1      24.330   3.664  51.191  1.00  0.00    -0.345 OA
BRANCH  24  25
HETATM   25  C11 UNL     1      23.670   2.533  50.653  1.00  0.00     0.214 C 
BRANCH  25  26
HETATM   26  C12 UNL     1      23.636   1.452  51.681  1.00  0.00    -0.034 A 
HETATM   27  C13 UNL     1      24.849   1.034  52.209  1.00  0.00     0.009 A 
HETATM   28  C14 UNL     1      24.920   0.053  53.154  1.00  0.00     0.001 A 
HETATM   29  C15 UNL     1      23.735  -0.531  53.586  1.00  0.00     0.000 A 
HETATM   30  C16 UNL     1      22.501  -0.141  53.083  1.00  0.00     0.001 A 
HETATM   31  C17 UNL     1      22.466   0.865  52.118  1.00  0.00     0.009 A 
ENDBRANCH  25  26
ENDBRANCH  24  25
ENDBRANCH  20  24
ENDBRANCH   1  17
TORSDOF 8
ENDMDL
MODEL 9
REMARK VINA RESULT:      -8.3      4.951      8.462
REMARK  8 active torsions:
REMARK  status: ('A' for Active; 'I' for Inactive)
REMARK    1  A    between atoms: N1_1  and  C1_2 
REMARK    2  A    between atoms: C1_2  and  C2_3 
REMARK    3  A    between atoms: O1_6  and  C4_7 
REMARK    4  A    between atoms: C6_9  and  N2_10 
REMARK    5  A    between atoms: N2_10  and  C7_11 
REMARK    6  A    between atoms: C10_14  and  O2_15 
REMARK    7  A    between atoms: O2_15  and  C11_16 
REMARK    8  A    between atoms: C11_16  and  C12_17 
ROOT
HETATM    1  N2  UNL     1      26.247   5.167  48.706  1.00  0.00    -0.341 N 
HETATM    2  H7  UNL     1      25.584   5.205  47.895  1.00  0.00     0.167 HD
ENDROOT
BRANCH   1   3
HETATM    3  C6  UNL     1      27.441   5.924  48.597  1.00  0.00     0.131 A 
HETATM    4  C5  UNL     1      28.646   5.257  48.338  1.00  0.00     0.084 A 
HETATM    5  C4  UNL     1      29.855   5.896  48.216  1.00  0.00     0.090 A 
HETATM    6  N4  UNL     1      29.855   7.232  48.358  1.00  0.00    -0.240 NA
HETATM    7  C20 UNL     1      28.718   7.901  48.607  1.00  0.00     0.236 A 
HETATM    8  N3  UNL     1      27.552   7.253  48.720  1.00  0.00    -0.224 NA
BRANCH   5   9
HETATM    9  O1  UNL     1      30.932   5.030  47.957  1.00  0.00     0.000 OA
HETATM   10  C3  UNL     1      32.187   5.510  48.230  1.00  0.00     0.152 A 
HETATM   11  C2  UNL     1      33.429   5.826  48.505  1.00  0.00     0.048 C 
HETATM   12  F1  UNL     1      31.958   4.170  48.226  1.00  0.00    -0.203 F 
BRANCH  11  13
HETATM   13  C1  UNL     1      33.918   7.222  48.567  1.00  0.00     0.297 C 
BRANCH  13  14
HETATM   14  N1  UNL     1      32.826   8.169  48.560  1.00  0.00     0.081 N 
HETATM   15  H1  UNL     1      32.441   8.207  49.541  1.00  0.00     0.313 HD
HETATM   16  H2  UNL     1      32.111   7.945  47.842  1.00  0.00     0.313 HD
ENDBRANCH  13  14
ENDBRANCH  11  13
ENDBRANCH   5   9
ENDBRANCH   1   3
BRANCH   1  17
HETATM   17  C7  UNL     1      25.846   4.360  49.798  1.00  0.00     0.035 A 
HETATM   18  C8  UNL     1      26.459   3.213  50.244  1.00  0.00     0.032 A 
HETATM   19  C9  UNL     1      26.038   2.461  51.302  1.00  0.00     0.041 A 
HETATM   20  C10 UNL     1      24.918   2.857  51.992  1.00  0.00     0.091 A 
HETATM   21  C18 UNL     1      24.259   3.996  51.597  1.00  0.00     0.069 A 
HETATM   22 CL1  UNL     1      22.830   4.511  52.470  1.00  0.00    -0.081 Cl
HETATM   23  C19 UNL     1      24.721   4.707  50.537  1.00  0.00     0.056 A 
BRANCH  20  24
HETATM   24  O2  UNL     1      24.417   2.158  53.080  1.00  0.00    -0.345 OA
BRANCH  24  25
HETATM   25  C11 UNL     1      24.442   0.744  53.012  1.00  0.00     0.214 C 
BRANCH  25  26
HETATM   26  C12 UNL     1      23.097   0.213  53.380  1.00  0.00    -0.034 A 
HETATM   27  C13 UNL     1      23.054  -0.951  54.133  1.00  0.00     0.009 A 
HETATM   28  C14 UNL     1      21.871  -1.512  54.518  1.00  0.00     0.001 A 
HETATM   29  C15 UNL     1      20.691  -0.885  54.136  1.00  0.00     0.000 A 
HETATM   30  C16 UNL     1      20.692   0.281  53.383  1.00  0.00     0.001 A 
HETATM   31  C17 UNL     1      21.918   0.827  53.007  1.00  0.00     0.009 A 
ENDBRANCH  25  26
ENDBRANCH  24  25
ENDBRANCH  20  24
ENDBRANCH   1  17
TORSDOF 8
ENDMDL
