MODEL 1
REMARK VINA RESULT:      -8.6      0.000      0.000
REMARK  8 active torsions:
REMARK  status: ('A' for Active; 'I' for Inactive)
REMARK    1  A    between atoms: C2_2  and  C3_3 
REMARK    2  A    between atoms: C3_3  and  C4_4 
REMARK    3  A    between atoms: C4_4  and  C5_5 
REMARK    4  A    between atoms: C5_5  and  C6_6 
REMARK       I    between atoms: C6_6  and  N1_8 
REMARK    5  A    between atoms: N1_8  and  C7_9 
REMARK    6  A    between atoms: C11_13  and  N2_14 
REMARK    7  A    between atoms: N2_14  and  C12_15 
REMARK    8  A    between atoms: C15_19  and  C16_20 
ROOT
HETATM    1  C7  UNL     1      28.454   5.883  48.243  1.00  0.00     0.036 A 
HETATM    2  C8  UNL     1      27.828   7.068  48.524  1.00  0.00     0.029 A 
HETATM    3  C9  UNL     1      26.594   7.174  49.128  1.00  0.00     0.004 A 
HETATM    4  C10 UNL     1      25.970   5.995  49.464  1.00  0.00     0.030 A 
HETATM    5  C11 UNL     1      26.531   4.763  49.216  1.00  0.00     0.051 A 
HETATM    6  C21 UNL     1      27.765   4.756  48.609  1.00  0.00     0.059 A 
ENDROOT
BRANCH   5   7
HETATM    7  N2  UNL     1      25.927   3.524  49.543  1.00  0.00    -0.188 N 
HETATM    8  H16 UNL     1      25.590   2.915  48.750  1.00  0.00     0.184 HD
BRANCH   7   9
HETATM    9  C12 UNL     1      25.723   3.006  50.845  1.00  0.00     0.727 A 
HETATM   10  N3  UNL     1      24.749   3.281  51.705  1.00  0.00    -0.075 NA
HETATM   11  C13 UNL     1      24.578   2.779  52.929  1.00  0.00     0.139 A 
HETATM   12  C14 UNL     1      25.500   1.867  53.387  1.00  0.00     0.053 A 
HETATM   13  C15 UNL     1      26.532   1.543  52.541  1.00  0.00     0.089 A 
HETATM   14  N5  UNL     1      26.588   2.119  51.336  1.00  0.00    -0.062 NA
BRANCH  13  15
HETATM   15  C16 UNL     1      27.571   0.591  52.909  1.00  0.00     0.011 A 
HETATM   16  C17 UNL     1      28.841   0.949  53.294  1.00  0.00     0.017 A 
HETATM   17  C18 UNL     1      29.832   0.057  53.644  1.00  0.00     0.020 A 
HETATM   18  C19 UNL     1      29.531  -1.297  53.608  1.00  0.00     0.116 A 
HETATM   19  N4  UNL     1      28.276  -1.654  53.229  1.00  0.00    -0.272 NA
HETATM   20  C20 UNL     1      27.342  -0.756  52.895  1.00  0.00     0.130 A 
ENDBRANCH  13  15
ENDBRANCH   7   9
ENDBRANCH   5   7
BRANCH   1  21
HETATM   21  N1  UNL     1      29.715   5.716  47.627  1.00  0.00    -0.327 N 
HETATM   22  C6  UNL     1      30.967   5.471  48.232  1.00  0.00     0.222 C 
HETATM   23  O1  UNL     1      31.027   5.382  49.470  1.00  0.00    -0.273 OA
HETATM   24  H12 UNL     1      29.820   5.766  46.592  1.00  0.00     0.169 HD
BRANCH  22  25
HETATM   25  C5  UNL     1      32.252   5.307  47.519  1.00  0.00     0.103 C 
BRANCH  25  26
HETATM   26  C4  UNL     1      32.731   3.900  47.814  1.00  0.00     0.009 C 
BRANCH  26  27
HETATM   27  C3  UNL     1      32.323   2.965  46.696  1.00  0.00     0.000 C 
BRANCH  27  28
HETATM   28  C2  UNL     1      32.608   1.555  47.190  1.00  0.00    -0.005 C 
HETATM   29  C1  UNL     1      31.736   0.575  46.432  1.00  0.00     0.005 C 
ENDBRANCH  27  28
ENDBRANCH  26  27
ENDBRANCH  25  26
ENDBRANCH  22  25
ENDBRANCH   1  21
TORSDOF 8
ENDMDL
MODEL 2
REMARK VINA RESULT:      -8.4      1.004      1.427
REMARK  8 active torsions:
REMARK  status: ('A' for Active; 'I' for Inactive)
REMARK    1  A    between atoms: C2_2  and  C3_3 
REMARK    2  A    between atoms: C3_3  and  C4_4 
REMARK    3  A    between atoms: C4_4  and  C5_5 
REMARK    4  A    between atoms: C5_5  and  C6_6 
REMARK       I    between atoms: C6_6  and  N1_8 
REMARK    5  A    between atoms: N1_8  and  C7_9 
REMARK    6  A    between atoms: C11_13  and  N2_14 
REMARK    7  A    between atoms: N2_14  and  C12_15 
REMARK    8  A    between atoms: C15_19  and  C16_20 
ROOT
HETATM    1  C7  UNL     1      28.743   5.878  48.185  1.00  0.00     0.036 A 
HETATM    2  C8  UNL     1      28.156   7.107  48.332  1.00  0.00     0.029 A 
HETATM    3  C9  UNL     1      26.873   7.307  48.798  1.00  0.00     0.004 A 
HETATM    4  C10 UNL     1      26.157   6.181  49.132  1.00  0.00     0.030 A 
HETATM    5  C11 UNL     1      26.673   4.912  49.013  1.00  0.00     0.051 A 
HETATM    6  C21 UNL     1      27.960   4.810  48.538  1.00  0.00     0.059 A 
ENDROOT
BRANCH   5   7
HETATM    7  N2  UNL     1      25.974   3.724  49.343  1.00  0.00    -0.188 N 
HETATM    8  H16 UNL     1      25.612   3.129  48.551  1.00  0.00     0.184 HD
BRANCH   7   9
HETATM    9  C12 UNL     1      25.706   3.243  50.647  1.00  0.00     0.727 A 
HETATM   10  N3  UNL     1      24.669   3.509  51.434  1.00  0.00    -0.075 NA
HETATM   11  C13 UNL     1      24.437   3.042  52.661  1.00  0.00     0.139 A 
HETATM   12  C14 UNL     1      25.359   2.181  53.209  1.00  0.00     0.053 A 
HETATM   13  C15 UNL     1      26.455   1.868  52.441  1.00  0.00     0.089 A 
HETATM   14  N5  UNL     1      26.567   2.405  51.223  1.00  0.00    -0.062 NA
BRANCH  13  15
HETATM   15  C16 UNL     1      27.501   0.969  52.908  1.00  0.00     0.011 A 
HETATM   16  C17 UNL     1      27.438  -0.401  52.809  1.00  0.00     0.017 A 
HETATM   17  C18 UNL     1      28.422  -1.261  53.247  1.00  0.00     0.020 A 
HETATM   18  C19 UNL     1      29.555  -0.712  53.829  1.00  0.00     0.116 A 
HETATM   19  N4  UNL     1      29.621   0.641  53.928  1.00  0.00    -0.272 NA
HETATM   20  C20 UNL     1      28.643   1.443  53.489  1.00  0.00     0.130 A 
ENDBRANCH  13  15
ENDBRANCH   7   9
ENDBRANCH   5   7
BRANCH   1  21
HETATM   21  N1  UNL     1      30.049   5.615  47.713  1.00  0.00    -0.327 N 
HETATM   22  C6  UNL     1      31.237   5.443  48.456  1.00  0.00     0.222 C 
HETATM   23  O1  UNL     1      31.186   5.524  49.695  1.00  0.00    -0.273 OA
HETATM   24  H12 UNL     1      30.245   5.520  46.695  1.00  0.00     0.169 HD
BRANCH  22  25
HETATM   25  C5  UNL     1      32.575   5.168  47.891  1.00  0.00     0.103 C 
BRANCH  25  26
HETATM   26  C4  UNL     1      32.465   3.857  47.141  1.00  0.00     0.009 C 
BRANCH  26  27
HETATM   27  C3  UNL     1      33.403   2.831  47.740  1.00  0.00     0.000 C 
BRANCH  27  28
HETATM   28  C2  UNL     1      34.814   3.333  47.474  1.00  0.00    -0.005 C 
HETATM   29  C1  UNL     1      35.066   3.343  45.980  1.00  0.00     0.005 C 
ENDBRANCH  27  28
ENDBRANCH  26  27
ENDBRANCH  25  26
ENDBRANCH  22  25
ENDBRANCH   1  21
TORSDOF 8
ENDMDL
MODEL 3
REMARK VINA RESULT:      -8.2      3.243      5.238
REMARK  8 active torsions:
REMARK  status: ('A' for Active; 'I' for Inactive)
REMARK    1  A    between atoms: C2_2  and  C3_3 
REMARK    2  A    between atoms: C3_3  and  C4_4 
REMARK    3  A    between atoms: C4_4  and  C5_5 
REMARK    4  A    between atoms: C5_5  and  C6_6 
REMARK       I    between atoms: C6_6  and  N1_8 
REMARK    5  A    between atoms: N1_8  and  C7_9 
REMARK    6  A    between atoms: C11_13  and  N2_14 
REMARK    7  A    between atoms: N2_14  and  C12_15 
REMARK    8  A    between atoms: C15_19  and  C16_20 
ROOT
HETATM    1  C7  UNL     1      23.038   3.095  49.256  1.00  0.00     0.036 A 
HETATM    2  C8  UNL     1      22.614   2.283  48.239  1.00  0.00     0.029 A 
HETATM    3  C9  UNL     1      21.743   1.225  48.396  1.00  0.00     0.004 A 
HETATM    4  C10 UNL     1      21.284   0.991  49.672  1.00  0.00     0.030 A 
HETATM    5  C11 UNL     1      21.662   1.760  50.748  1.00  0.00     0.051 A 
HETATM    6  C21 UNL     1      22.534   2.793  50.495  1.00  0.00     0.059 A 
ENDROOT
BRANCH   5   7
HETATM    7  N2  UNL     1      21.217   1.557  52.078  1.00  0.00    -0.188 N 
HETATM    8  H16 UNL     1      20.403   2.135  52.419  1.00  0.00     0.184 HD
BRANCH   7   9
HETATM    9  C12 UNL     1      21.758   0.644  53.015  1.00  0.00     0.727 A 
HETATM   10  N3  UNL     1      21.119  -0.128  53.887  1.00  0.00    -0.075 NA
HETATM   11  C13 UNL     1      21.652  -0.983  54.761  1.00  0.00     0.139 A 
HETATM   12  C14 UNL     1      23.021  -1.107  54.790  1.00  0.00     0.053 A 
HETATM   13  C15 UNL     1      23.737  -0.332  53.910  1.00  0.00     0.089 A 
HETATM   14  N5  UNL     1      23.080   0.486  53.083  1.00  0.00    -0.062 NA
BRANCH  13  15
HETATM   15  C16 UNL     1      25.191  -0.372  53.843  1.00  0.00     0.011 A 
HETATM   16  C17 UNL     1      25.903  -0.598  52.689  1.00  0.00     0.017 A 
HETATM   17  C18 UNL     1      27.279  -0.637  52.615  1.00  0.00     0.020 A 
HETATM   18  C19 UNL     1      28.000  -0.436  53.782  1.00  0.00     0.116 A 
HETATM   19  N4  UNL     1      27.300  -0.211  54.925  1.00  0.00    -0.272 NA
HETATM   20  C20 UNL     1      25.962  -0.181  54.955  1.00  0.00     0.130 A 
ENDBRANCH  13  15
ENDBRANCH   7   9
ENDBRANCH   5   7
BRANCH   1  21
HETATM   21  N1  UNL     1      23.927   4.189  49.152  1.00  0.00    -0.327 N 
HETATM   22  C6  UNL     1      25.322   4.217  49.369  1.00  0.00     0.222 C 
HETATM   23  O1  UNL     1      25.897   3.167  49.698  1.00  0.00    -0.273 OA
HETATM   24  H12 UNL     1      23.586   5.137  48.885  1.00  0.00     0.169 HD
BRANCH  22  25
HETATM   25  C5  UNL     1      26.190   5.406  49.241  1.00  0.00     0.103 C 
BRANCH  25  26
HETATM   26  C4  UNL     1      27.500   4.921  48.655  1.00  0.00     0.009 C 
BRANCH  26  27
HETATM   27  C3  UNL     1      28.302   6.091  48.127  1.00  0.00     0.000 C 
BRANCH  27  28
HETATM   28  C2  UNL     1      29.758   5.655  48.141  1.00  0.00    -0.005 C 
HETATM   29  C1  UNL     1      30.631   6.841  48.497  1.00  0.00     0.005 C 
ENDBRANCH  27  28
ENDBRANCH  26  27
ENDBRANCH  25  26
ENDBRANCH  22  25
ENDBRANCH   1  21
TORSDOF 8
ENDMDL
MODEL 4
REMARK VINA RESULT:      -8.0      3.112      6.508
REMARK  8 active torsions:
REMARK  status: ('A' for Active; 'I' for Inactive)
REMARK    1  A    between atoms: C2_2  and  C3_3 
REMARK    2  A    between atoms: C3_3  and  C4_4 
REMARK    3  A    between atoms: C4_4  and  C5_5 
REMARK    4  A    between atoms: C5_5  and  C6_6 
REMARK       I    between atoms: C6_6  and  N1_8 
REMARK    5  A    between atoms: N1_8  and  C7_9 
REMARK    6  A    between atoms: C11_13  and  N2_14 
REMARK    7  A    between atoms: N2_14  and  C12_15 
REMARK    8  A    between atoms: C15_19  and  C16_20 
ROOT
HETATM    1  C7  UNL     1      27.060   2.117  52.914  1.00  0.00     0.036 A 
HETATM    2  C8  UNL     1      28.353   2.028  53.358  1.00  0.00     0.029 A 
HETATM    3  C9  UNL     1      28.822   1.041  54.199  1.00  0.00     0.004 A 
HETATM    4  C10 UNL     1      27.910   0.093  54.603  1.00  0.00     0.030 A 
HETATM    5  C11 UNL     1      26.595   0.112  54.202  1.00  0.00     0.051 A 
HETATM    6  C21 UNL     1      26.218   1.135  53.364  1.00  0.00     0.059 A 
ENDROOT
BRANCH   5   7
HETATM    7  N2  UNL     1      25.621  -0.842  54.592  1.00  0.00    -0.188 N 
HETATM    8  H16 UNL     1      25.952  -1.701  55.107  1.00  0.00     0.184 HD
BRANCH   7   9
HETATM    9  C12 UNL     1      24.227  -0.761  54.360  1.00  0.00     0.727 A 
HETATM   10  N3  UNL     1      23.232  -1.206  55.118  1.00  0.00    -0.075 NA
HETATM   11  C13 UNL     1      21.923  -1.118  54.878  1.00  0.00     0.139 A 
HETATM   12  C14 UNL     1      21.519  -0.499  53.718  1.00  0.00     0.053 A 
HETATM   13  C15 UNL     1      22.506  -0.018  52.892  1.00  0.00     0.089 A 
HETATM   14  N5  UNL     1      23.784  -0.170  53.251  1.00  0.00    -0.062 NA
BRANCH  13  15
HETATM   15  C16 UNL     1      22.208   0.657  51.636  1.00  0.00     0.011 A 
HETATM   16  C17 UNL     1      22.996   1.640  51.085  1.00  0.00     0.017 A 
HETATM   17  C18 UNL     1      22.724   2.284  49.897  1.00  0.00     0.020 A 
HETATM   18  C19 UNL     1      21.578   1.920  49.207  1.00  0.00     0.116 A 
HETATM   19  N4  UNL     1      20.797   0.948  49.748  1.00  0.00    -0.272 NA
HETATM   20  C20 UNL     1      21.096   0.346  50.905  1.00  0.00     0.130 A 
ENDBRANCH  13  15
ENDBRANCH   7   9
ENDBRANCH   5   7
BRANCH   1  21
HETATM   21  N1  UNL     1      26.526   3.104  52.054  1.00  0.00    -0.327 N 
HETATM   22  C6  UNL     1      26.482   3.115  50.643  1.00  0.00     0.222 C 
HETATM   23  O1  UNL     1      26.963   2.152  50.022  1.00  0.00    -0.273 OA
HETATM   24  H12 UNL     1      26.089   3.970  52.434  1.00  0.00     0.169 HD
BRANCH  22  25
HETATM   25  C5  UNL     1      25.904   4.188  49.806  1.00  0.00     0.103 C 
BRANCH  25  26
HETATM   26  C4  UNL     1      27.005   4.642  48.869  1.00  0.00     0.009 C 
BRANCH  26  27
HETATM   27  C3  UNL     1      27.041   6.154  48.801  1.00  0.00     0.000 C 
BRANCH  27  28
HETATM   28  C2  UNL     1      28.223   6.515  47.915  1.00  0.00    -0.005 C 
HETATM   29  C1  UNL     1      29.354   5.541  48.171  1.00  0.00     0.005 C 
ENDBRANCH  27  28
ENDBRANCH  26  27
ENDBRANCH  25  26
ENDBRANCH  22  25
ENDBRANCH   1  21
TORSDOF 8
ENDMDL
MODEL 5
REMARK VINA RESULT:      -7.8      3.172      7.398
REMARK  8 active torsions:
REMARK  status: ('A' for Active; 'I' for Inactive)
REMARK    1  A    between atoms: C2_2  and  C3_3 
REMARK    2  A    between atoms: C3_3  and  C4_4 
REMARK    3  A    between atoms: C4_4  and  C5_5 
REMARK    4  A    between atoms: C5_5  and  C6_6 
REMARK       I    between atoms: C6_6  and  N1_8 
REMARK    5  A    between atoms: N1_8  and  C7_9 
REMARK    6  A    between atoms: C11_13  and  N2_14 
REMARK    7  A    between atoms: N2_14  and  C12_15 
REMARK    8  A    between atoms: C15_19  and  C16_20 
ROOT
HETATM    1  C7  UNL     1      23.982   0.727  52.816  1.00  0.00     0.036 A 
HETATM    2  C8  UNL     1      22.775   0.163  53.134  1.00  0.00     0.029 A 
HETATM    3  C9  UNL     1      21.632   0.286  52.372  1.00  0.00     0.004 A 
HETATM    4  C10 UNL     1      21.738   1.028  51.219  1.00  0.00     0.030 A 
HETATM    5  C11 UNL     1      22.914   1.627  50.829  1.00  0.00     0.051 A 
HETATM    6  C21 UNL     1      24.001   1.451  51.652  1.00  0.00     0.059 A 
ENDROOT
BRANCH   5   7
HETATM    7  N2  UNL     1      23.071   2.401  49.652  1.00  0.00    -0.188 N 
HETATM    8  H16 UNL     1      22.957   1.913  48.723  1.00  0.00     0.184 HD
BRANCH   7   9
HETATM    9  C12 UNL     1      23.368   3.783  49.589  1.00  0.00     0.727 A 
HETATM   10  N3  UNL     1      22.568   4.817  49.824  1.00  0.00    -0.075 NA
HETATM   11  C13 UNL     1      22.873   6.114  49.759  1.00  0.00     0.139 A 
HETATM   12  C14 UNL     1      24.158   6.459  49.411  1.00  0.00     0.053 A 
HETATM   13  C15 UNL     1      25.032   5.430  49.155  1.00  0.00     0.089 A 
HETATM   14  N5  UNL     1      24.600   4.170  49.257  1.00  0.00    -0.062 NA
BRANCH  13  15
HETATM   15  C16 UNL     1      26.419   5.665  48.777  1.00  0.00     0.011 A 
HETATM   16  C17 UNL     1      26.908   6.880  48.358  1.00  0.00     0.017 A 
HETATM   17  C18 UNL     1      28.218   7.113  47.998  1.00  0.00     0.020 A 
HETATM   18  C19 UNL     1      29.109   6.051  48.061  1.00  0.00     0.116 A 
HETATM   19  N4  UNL     1      28.629   4.849  48.474  1.00  0.00    -0.272 NA
HETATM   20  C20 UNL     1      27.349   4.663  48.816  1.00  0.00     0.130 A 
ENDBRANCH  13  15
ENDBRANCH   7   9
ENDBRANCH   5   7
BRANCH   1  21
HETATM   21  N1  UNL     1      25.181   0.634  53.558  1.00  0.00    -0.327 N 
HETATM   22  C6  UNL     1      26.183  -0.358  53.494  1.00  0.00     0.222 C 
HETATM   23  O1  UNL     1      26.043  -1.300  52.697  1.00  0.00    -0.273 OA
HETATM   24  H12 UNL     1      25.433   1.355  54.267  1.00  0.00     0.169 HD
BRANCH  22  25
HETATM   25  C5  UNL     1      27.419  -0.390  54.306  1.00  0.00     0.103 C 
BRANCH  25  26
HETATM   26  C4  UNL     1      28.557  -0.667  53.346  1.00  0.00     0.009 C 
BRANCH  26  27
HETATM   27  C3  UNL     1      29.729   0.242  53.648  1.00  0.00     0.000 C 
BRANCH  27  28
HETATM   28  C2  UNL     1      29.181   1.382  54.491  1.00  0.00    -0.005 C 
HETATM   29  C1  UNL     1      28.799   2.534  53.586  1.00  0.00     0.005 C 
ENDBRANCH  27  28
ENDBRANCH  26  27
ENDBRANCH  25  26
ENDBRANCH  22  25
ENDBRANCH   1  21
TORSDOF 8
ENDMDL
MODEL 6
REMARK VINA RESULT:      -7.6      3.756      7.388
REMARK  8 active torsions:
REMARK  status: ('A' for Active; 'I' for Inactive)
REMARK    1  A    between atoms: C2_2  and  C3_3 
REMARK    2  A    between atoms: C3_3  and  C4_4 
REMARK    3  A    between atoms: C4_4  and  C5_5 
REMARK    4  A    between atoms: C5_5  and  C6_6 
REMARK       I    between atoms: C6_6  and  N1_8 
REMARK    5  A    between atoms: N1_8  and  C7_9 
REMARK    6  A    between atoms: C11_13  and  N2_14 
REMARK    7  A    between atoms: N2_14  and  C12_15 
REMARK    8  A    between atoms: C15_19  and  C16_20 
ROOT
HETATM    1  C7  UNL     1      26.675   2.335  52.136  1.00  0.00     0.036 A 
HETATM    2  C8  UNL     1      27.882   2.142  52.754  1.00  0.00     0.029 A 
HETATM    3  C9  UNL     1      28.216   1.018  53.480  1.00  0.00     0.004 A 
HETATM    4  C10 UNL     1      27.255   0.039  53.574  1.00  0.00     0.030 A 
HETATM    5  C11 UNL     1      26.017   0.155  52.984  1.00  0.00     0.051 A 
HETATM    6  C21 UNL     1      25.774   1.311  52.281  1.00  0.00     0.059 A 
ENDROOT
BRANCH   5   7
HETATM    7  N2  UNL     1      24.997  -0.826  53.054  1.00  0.00    -0.188 N 
HETATM    8  H16 UNL     1      25.234  -1.807  52.746  1.00  0.00     0.184 HD
BRANCH   7   9
HETATM    9  C12 UNL     1      23.669  -0.625  53.502  1.00  0.00     0.727 A 
HETATM   10  N3  UNL     1      23.117  -0.988  54.653  1.00  0.00    -0.075 NA
HETATM   11  C13 UNL     1      21.861  -0.787  55.054  1.00  0.00     0.139 A 
HETATM   12  C14 UNL     1      21.008  -0.129  54.199  1.00  0.00     0.053 A 
HETATM   13  C15 UNL     1      21.523   0.271  52.990  1.00  0.00     0.089 A 
HETATM   14  N5  UNL     1      22.803   0.008  52.710  1.00  0.00    -0.062 NA
BRANCH  13  15
HETATM   15  C16 UNL     1      20.723   0.976  51.998  1.00  0.00     0.011 A 
HETATM   16  C17 UNL     1      20.657   0.623  50.670  1.00  0.00     0.017 A 
HETATM   17  C18 UNL     1      19.903   1.283  49.724  1.00  0.00     0.020 A 
HETATM   18  C19 UNL     1      19.156   2.378  50.134  1.00  0.00     0.116 A 
HETATM   19  N4  UNL     1      19.218   2.729  51.445  1.00  0.00    -0.272 NA
HETATM   20  C20 UNL     1      19.964   2.062  52.334  1.00  0.00     0.130 A 
ENDBRANCH  13  15
ENDBRANCH   7   9
ENDBRANCH   5   7
BRANCH   1  21
HETATM   21  N1  UNL     1      26.280   3.463  51.382  1.00  0.00    -0.327 N 
HETATM   22  C6  UNL     1      26.442   3.701  50.000  1.00  0.00     0.222 C 
HETATM   23  O1  UNL     1      27.002   2.836  49.305  1.00  0.00    -0.273 OA
HETATM   24  H12 UNL     1      25.799   4.270  51.831  1.00  0.00     0.169 HD
BRANCH  22  25
HETATM   25  C5  UNL     1      26.001   4.912  49.276  1.00  0.00     0.103 C 
BRANCH  25  26
HETATM   26  C4  UNL     1      24.565   5.161  49.689  1.00  0.00     0.009 C 
BRANCH  26  27
HETATM   27  C3  UNL     1      23.618   4.491  48.718  1.00  0.00     0.000 C 
BRANCH  27  28
HETATM   28  C2  UNL     1      22.572   3.779  49.562  1.00  0.00    -0.005 C 
HETATM   29  C1  UNL     1      22.800   4.107  51.022  1.00  0.00     0.005 C 
ENDBRANCH  27  28
ENDBRANCH  26  27
ENDBRANCH  25  26
ENDBRANCH  22  25
ENDBRANCH   1  21
TORSDOF 8
ENDMDL
MODEL 7
REMARK VINA RESULT:      -7.5      4.227      6.303
REMARK  8 active torsions:
REMARK  status: ('A' for Active; 'I' for Inactive)
REMARK    1  A    between atoms: C2_2  and  C3_3 
REMARK    2  A    between atoms: C3_3  and  C4_4 
REMARK    3  A    between atoms: C4_4  and  C5_5 
REMARK    4  A    between atoms: C5_5  and  C6_6 
REMARK       I    between atoms: C6_6  and  N1_8 
REMARK    5  A    between atoms: N1_8  and  C7_9 
REMARK    6  A    between atoms: C11_13  and  N2_14 
REMARK    7  A    between atoms: N2_14  and  C12_15 
REMARK    8  A    between atoms: C15_19  and  C16_20 
ROOT
HETATM    1  C7  UNL     1      25.294   4.272  50.524  1.00  0.00     0.036 A 
HETATM    2  C8  UNL     1      25.433   4.943  49.339  1.00  0.00     0.029 A 
HETATM    3  C9  UNL     1      24.459   5.739  48.773  1.00  0.00     0.004 A 
HETATM    4  C10 UNL     1      23.276   5.850  49.468  1.00  0.00     0.030 A 
HETATM    5  C11 UNL     1      23.057   5.208  50.665  1.00  0.00     0.051 A 
HETATM    6  C21 UNL     1      24.086   4.436  51.151  1.00  0.00     0.059 A 
ENDROOT
BRANCH   5   7
HETATM    7  N2  UNL     1      21.857   5.293  51.414  1.00  0.00    -0.188 N 
HETATM    8  H16 UNL     1      21.661   6.191  51.931  1.00  0.00     0.184 HD
BRANCH   7   9
HETATM    9  C12 UNL     1      20.875   4.281  51.544  1.00  0.00     0.727 A 
HETATM   10  N3  UNL     1      19.609   4.296  51.146  1.00  0.00    -0.075 NA
HETATM   11  C13 UNL     1      18.701   3.328  51.280  1.00  0.00     0.139 A 
HETATM   12  C14 UNL     1      19.087   2.162  51.898  1.00  0.00     0.053 A 
HETATM   13  C15 UNL     1      20.388   2.088  52.333  1.00  0.00     0.089 A 
HETATM   14  N5  UNL     1      21.199   3.131  52.136  1.00  0.00    -0.062 NA
BRANCH  13  15
HETATM   15  C16 UNL     1      20.918   0.908  53.003  1.00  0.00     0.011 A 
HETATM   16  C17 UNL     1      22.252   0.713  53.278  1.00  0.00     0.017 A 
HETATM   17  C18 UNL     1      22.764  -0.400  53.910  1.00  0.00     0.020 A 
HETATM   18  C19 UNL     1      21.877  -1.394  54.299  1.00  0.00     0.116 A 
HETATM   19  N4  UNL     1      20.559  -1.204  54.029  1.00  0.00    -0.272 NA
HETATM   20  C20 UNL     1      20.101  -0.108  53.412  1.00  0.00     0.130 A 
ENDBRANCH  13  15
ENDBRANCH   7   9
ENDBRANCH   5   7
BRANCH   1  21
HETATM   21  N1  UNL     1      26.256   3.446  51.148  1.00  0.00    -0.327 N 
HETATM   22  C6  UNL     1      26.126   2.105  51.571  1.00  0.00     0.222 C 
HETATM   23  O1  UNL     1      25.042   1.525  51.397  1.00  0.00    -0.273 OA
HETATM   24  H12 UNL     1      27.213   3.798  51.359  1.00  0.00     0.169 HD
BRANCH  22  25
HETATM   25  C5  UNL     1      27.182   1.300  52.221  1.00  0.00     0.103 C 
BRANCH  25  26
HETATM   26  C4  UNL     1      26.708  -0.139  52.186  1.00  0.00     0.009 C 
BRANCH  26  27
HETATM   27  C3  UNL     1      27.603  -1.005  53.046  1.00  0.00     0.000 C 
BRANCH  27  28
HETATM   28  C2  UNL     1      28.708  -0.097  53.566  1.00  0.00    -0.005 C 
HETATM   29  C1  UNL     1      30.014  -0.863  53.584  1.00  0.00     0.005 C 
ENDBRANCH  27  28
ENDBRANCH  26  27
ENDBRANCH  25  26
ENDBRANCH  22  25
ENDBRANCH   1  21
TORSDOF 8
ENDMDL
MODEL 8
REMARK VINA RESULT:      -7.5      2.262      4.123
REMARK  8 active torsions:
REMARK  status: ('A' for Active; 'I' for Inactive)
REMARK    1  A    between atoms: C2_2  and  C3_3 
REMARK    2  A    between atoms: C3_3  and  C4_4 
REMARK    3  A    between atoms: C4_4  and  C5_5 
REMARK    4  A    between atoms: C5_5  and  C6_6 
REMARK       I    between atoms: C6_6  and  N1_8 
REMARK    5  A    between atoms: N1_8  and  C7_9 
REMARK    6  A    between atoms: C11_13  and  N2_14 
REMARK    7  A    between atoms: N2_14  and  C12_15 
REMARK    8  A    between atoms: C15_19  and  C16_20 
ROOT
HETATM    1  C7  UNL     1      28.258   6.015  48.260  1.00  0.00     0.036 A 
HETATM    2  C8  UNL     1      27.357   7.004  48.555  1.00  0.00     0.029 A 
HETATM    3  C9  UNL     1      26.142   6.793  49.172  1.00  0.00     0.004 A 
HETATM    4  C10 UNL     1      25.838   5.493  49.504  1.00  0.00     0.030 A 
HETATM    5  C11 UNL     1      26.688   4.443  49.242  1.00  0.00     0.051 A 
HETATM    6  C21 UNL     1      27.877   4.750  48.624  1.00  0.00     0.059 A 
ENDROOT
BRANCH   5   7
HETATM    7  N2  UNL     1      26.417   3.090  49.565  1.00  0.00    -0.188 N 
HETATM    8  H16 UNL     1      26.195   2.429  48.773  1.00  0.00     0.184 HD
BRANCH   7   9
HETATM    9  C12 UNL     1      26.414   2.521  50.861  1.00  0.00     0.727 A 
HETATM   10  N3  UNL     1      27.384   2.515  51.769  1.00  0.00    -0.075 NA
HETATM   11  C13 UNL     1      27.357   1.972  52.986  1.00  0.00     0.139 A 
HETATM   12  C14 UNL     1      26.206   1.332  53.382  1.00  0.00     0.053 A 
HETATM   13  C15 UNL     1      25.167   1.304  52.484  1.00  0.00     0.089 A 
HETATM   14  N5  UNL     1      25.323   1.890  51.294  1.00  0.00    -0.062 NA
BRANCH  13  15
HETATM   15  C16 UNL     1      23.896   0.659  52.784  1.00  0.00     0.011 A 
HETATM   16  C17 UNL     1      22.724   0.918  52.115  1.00  0.00     0.017 A 
HETATM   17  C18 UNL     1      21.517   0.313  52.390  1.00  0.00     0.020 A 
HETATM   18  C19 UNL     1      21.476  -0.624  53.413  1.00  0.00     0.116 A 
HETATM   19  N4  UNL     1      22.633  -0.883  54.076  1.00  0.00    -0.272 NA
HETATM   20  C20 UNL     1      23.787  -0.273  53.778  1.00  0.00     0.130 A 
ENDBRANCH  13  15
ENDBRANCH   7   9
ENDBRANCH   5   7
BRANCH   1  21
HETATM   21  N1  UNL     1      29.514   6.173  47.631  1.00  0.00    -0.327 N 
HETATM   22  C6  UNL     1      30.800   5.917  48.153  1.00  0.00     0.222 C 
HETATM   23  O1  UNL     1      30.901   5.495  49.317  1.00  0.00    -0.273 OA
HETATM   24  H12 UNL     1      29.586   6.521  46.652  1.00  0.00     0.169 HD
BRANCH  22  25
HETATM   25  C5  UNL     1      32.077   6.107  47.432  1.00  0.00     0.103 C 
BRANCH  25  26
HETATM   26  C4  UNL     1      32.051   7.516  46.876  1.00  0.00     0.009 C 
BRANCH  26  27
HETATM   27  C3  UNL     1      32.319   8.518  47.978  1.00  0.00     0.000 C 
BRANCH  27  28
HETATM   28  C2  UNL     1      31.125   9.460  48.002  1.00  0.00    -0.005 C 
HETATM   29  C1  UNL     1      30.457   9.384  49.359  1.00  0.00     0.005 C 
ENDBRANCH  27  28
ENDBRANCH  26  27
ENDBRANCH  25  26
ENDBRANCH  22  25
ENDBRANCH   1  21
TORSDOF 8
ENDMDL
MODEL 9
REMARK VINA RESULT:      -7.5      2.767      3.860
REMARK  8 active torsions:
REMARK  status: ('A' for Active; 'I' for Inactive)
REMARK    1  A    between atoms: C2_2  and  C3_3 
REMARK    2  A    between atoms: C3_3  and  C4_4 
REMARK    3  A    between atoms: C4_4  and  C5_5 
REMARK    4  A    between atoms: C5_5  and  C6_6 
REMARK       I    between atoms: C6_6  and  N1_8 
REMARK    5  A    between atoms: N1_8  and  C7_9 
REMARK    6  A    between atoms: C11_13  and  N2_14 
REMARK    7  A    between atoms: N2_14  and  C12_15 
REMARK    8  A    between atoms: C15_19  and  C16_20 
ROOT
HETATM    1  C7  UNL     1      25.171   5.856  50.407  1.00  0.00     0.036 A 
HETATM    2  C8  UNL     1      24.121   6.556  50.939  1.00  0.00     0.029 A 
HETATM    3  C9  UNL     1      22.938   5.986  51.361  1.00  0.00     0.004 A 
HETATM    4  C10 UNL     1      22.832   4.620  51.228  1.00  0.00     0.030 A 
HETATM    5  C11 UNL     1      23.840   3.846  50.703  1.00  0.00     0.051 A 
HETATM    6  C21 UNL     1      24.983   4.502  50.309  1.00  0.00     0.059 A 
ENDROOT
BRANCH   5   7
HETATM    7  N2  UNL     1      23.776   2.439  50.546  1.00  0.00    -0.188 N 
HETATM    8  H16 UNL     1      23.622   2.057  49.575  1.00  0.00     0.184 HD
BRANCH   7   9
HETATM    9  C12 UNL     1      23.897   1.473  51.575  1.00  0.00     0.727 A 
HETATM   10  N3  UNL     1      22.937   0.813  52.212  1.00  0.00    -0.075 NA
HETATM   11  C13 UNL     1      23.077  -0.095  53.179  1.00  0.00     0.139 A 
HETATM   12  C14 UNL     1      24.351  -0.409  53.591  1.00  0.00     0.053 A 
HETATM   13  C15 UNL     1      25.387   0.244  52.967  1.00  0.00     0.089 A 
HETATM   14  N5  UNL     1      25.110   1.134  52.009  1.00  0.00    -0.062 NA
BRANCH  13  15
HETATM   15  C16 UNL     1      26.781   0.001  53.313  1.00  0.00     0.011 A 
HETATM   16  C17 UNL     1      27.485  -1.117  52.931  1.00  0.00     0.017 A 
HETATM   17  C18 UNL     1      28.803  -1.357  53.253  1.00  0.00     0.020 A 
HETATM   18  C19 UNL     1      29.470  -0.410  54.015  1.00  0.00     0.116 A 
HETATM   19  N4  UNL     1      28.778   0.696  54.394  1.00  0.00    -0.272 NA
HETATM   20  C20 UNL     1      27.497   0.893  54.061  1.00  0.00     0.130 A 
ENDBRANCH  13  15
ENDBRANCH   7   9
ENDBRANCH   5   7
BRANCH   1  21
HETATM   21  N1  UNL     1      26.403   6.387  49.960  1.00  0.00    -0.327 N 
HETATM   22  C6  UNL     1      26.720   6.938  48.699  1.00  0.00     0.222 C 
HETATM   23  O1  UNL     1      25.836   6.988  47.828  1.00  0.00    -0.273 OA
HETATM   24  H12 UNL     1      27.237   6.411  50.583  1.00  0.00     0.169 HD
BRANCH  22  25
HETATM   25  C5  UNL     1      28.038   7.477  48.301  1.00  0.00     0.103 C 
BRANCH  25  26
HETATM   26  C4  UNL     1      28.867   6.294  47.847  1.00  0.00     0.009 C 
BRANCH  26  27
HETATM   27  C3  UNL     1      30.244   6.350  48.472  1.00  0.00     0.000 C 
BRANCH  27  28
HETATM   28  C2  UNL     1      30.472   7.798  48.880  1.00  0.00    -0.005 C 
HETATM   29  C1  UNL     1      31.852   7.933  49.489  1.00  0.00     0.005 C 
ENDBRANCH  27  28
ENDBRANCH  26  27
ENDBRANCH  25  26
ENDBRANCH  22  25
ENDBRANCH   1  21
TORSDOF 8
ENDMDL
