MODEL 1
REMARK VINA RESULT:      -8.5      0.000      0.000
REMARK  5 active torsions:
REMARK  status: ('A' for Active; 'I' for Inactive)
REMARK    1  A    between atoms: S1_2  and  N1_4 
REMARK    2  A    between atoms: S1_2  and  C8_14 
REMARK    3  A    between atoms: N1_4  and  P1_5 
REMARK    4  A    between atoms: P1_5  and  C1_6 
REMARK    5  A    between atoms: C13_19  and  O3_20 
ROOT
HETATM    1  N1  UNL     1      26.037   2.074  54.163  1.00  0.00    -0.192 NA
HETATM    2  H1  UNL     1      25.814   1.224  54.717  1.00  0.00     0.145 HD
ENDROOT
BRANCH   1   3
HETATM    3  S1  UNL     1      27.522   1.870  53.313  1.00  0.00     0.247 S 
HETATM    4  O1  UNL     1      28.572   2.609  54.129  1.00  0.00    -0.205 OA
HETATM    5  O2  UNL     1      27.485   2.532  51.966  1.00  0.00    -0.205 OA
BRANCH   3   6
HETATM    6  C8  UNL     1      27.867   0.170  53.199  1.00  0.00     0.107 A 
HETATM    7  C9  UNL     1      27.042  -0.908  52.949  1.00  0.00     0.028 A 
HETATM    8  C10 UNL     1      27.573  -2.177  52.907  1.00  0.00     0.002 A 
HETATM    9  C11 UNL     1      28.909  -2.451  53.102  1.00  0.00     0.003 A 
HETATM   10  C12 UNL     1      29.738  -1.377  53.353  1.00  0.00     0.038 A 
HETATM   11  C13 UNL     1      29.226  -0.078  53.402  1.00  0.00     0.088 A 
BRANCH  11  12
HETATM   12  O3  UNL     1      30.226   0.875  53.669  1.00  0.00    -0.359 OA
HETATM   13  H11 UNL     1      31.080   0.538  54.092  1.00  0.00     0.217 HD
ENDBRANCH  11  12
ENDBRANCH   3   6
ENDBRANCH   1   3
BRANCH   1  14
HETATM   14  P1  UNL     1      24.769   2.491  52.963  1.00  0.00    -0.027 P 
HETATM   15  H2  UNL     1      23.741   3.246  53.655  1.00  0.00     0.076 HD
BRANCH  14  16
HETATM   16  C1  UNL     1      24.014   0.911  52.356  1.00  0.00     0.094 A 
HETATM   17  C2  UNL     1      23.434  -0.015  53.375  1.00  0.00    -0.037 A 
HETATM   18  C3  UNL     1      22.887  -0.874  54.320  1.00  0.00     0.012 A 
HETATM   19  C7  UNL     1      22.567   0.728  52.511  1.00  0.00    -0.034 A 
HETATM   20  C4  UNL     1      21.510  -1.000  54.411  1.00  0.00     0.043 A 
HETATM   21  C5  UNL     1      20.687  -0.277  53.570  1.00  0.00     0.117 A 
HETATM   22  F1  UNL     1      19.364  -0.484  53.756  1.00  0.00    -0.206 F 
HETATM   23  C6  UNL     1      21.217   0.587  52.620  1.00  0.00     0.051 A 
ENDBRANCH  14  16
ENDBRANCH   1  14
TORSDOF 5
ENDMDL
MODEL 2
REMARK VINA RESULT:      -8.4      4.814      5.935
REMARK  5 active torsions:
REMARK  status: ('A' for Active; 'I' for Inactive)
REMARK    1  A    between atoms: S1_2  and  N1_4 
REMARK    2  A    between atoms: S1_2  and  C8_14 
REMARK    3  A    between atoms: N1_4  and  P1_5 
REMARK    4  A    between atoms: P1_5  and  C1_6 
REMARK    5  A    between atoms: C13_19  and  O3_20 
ROOT
HETATM    1  N1  UNL     1      27.527   2.738  51.898  1.00  0.00    -0.192 NA
HETATM    2  H1  UNL     1      27.945   3.688  51.937  1.00  0.00     0.145 HD
ENDROOT
BRANCH   1   3
HETATM    3  S1  UNL     1      27.578   1.990  53.450  1.00  0.00     0.247 S 
HETATM    4  O1  UNL     1      26.252   2.324  54.116  1.00  0.00    -0.205 OA
HETATM    5  O2  UNL     1      28.651   2.584  54.316  1.00  0.00    -0.205 OA
BRANCH   3   6
HETATM    6  C8  UNL     1      27.783   0.277  53.233  1.00  0.00     0.107 A 
HETATM    7  C9  UNL     1      26.874  -0.712  52.918  1.00  0.00     0.028 A 
HETATM    8  C10 UNL     1      27.299  -2.015  52.800  1.00  0.00     0.002 A 
HETATM    9  C11 UNL     1      28.607  -2.410  52.979  1.00  0.00     0.003 A 
HETATM   10  C12 UNL     1      29.519  -1.424  53.295  1.00  0.00     0.038 A 
HETATM   11  C13 UNL     1      29.115  -0.093  53.422  1.00  0.00     0.088 A 
BRANCH  11  12
HETATM   12  O3  UNL     1      30.188   0.757  53.747  1.00  0.00    -0.359 OA
HETATM   13  H11 UNL     1      30.814   0.447  54.479  1.00  0.00     0.217 HD
ENDBRANCH  11  12
ENDBRANCH   3   6
ENDBRANCH   1   3
BRANCH   1  14
HETATM   14  P1  UNL     1      25.820   2.738  51.343  1.00  0.00    -0.027 P 
HETATM   15  H2  UNL     1      25.335   1.372  51.414  1.00  0.00     0.076 HD
BRANCH  14  16
HETATM   16  C1  UNL     1      25.796   3.265  49.567  1.00  0.00     0.094 A 
HETATM   17  C2  UNL     1      25.574   4.715  49.277  1.00  0.00    -0.037 A 
HETATM   18  C3  UNL     1      25.376   6.063  49.006  1.00  0.00     0.012 A 
HETATM   19  C7  UNL     1      26.871   4.139  49.085  1.00  0.00    -0.034 A 
HETATM   20  C4  UNL     1      26.436   6.830  48.553  1.00  0.00     0.043 A 
HETATM   21  C5  UNL     1      27.682   6.261  48.373  1.00  0.00     0.117 A 
HETATM   22  F1  UNL     1      28.634   7.110  47.928  1.00  0.00    -0.206 F 
HETATM   23  C6  UNL     1      27.898   4.914  48.639  1.00  0.00     0.051 A 
ENDBRANCH  14  16
ENDBRANCH   1  14
TORSDOF 5
ENDMDL
MODEL 3
REMARK VINA RESULT:      -8.0      4.653      6.438
REMARK  5 active torsions:
REMARK  status: ('A' for Active; 'I' for Inactive)
REMARK    1  A    between atoms: S1_2  and  N1_4 
REMARK    2  A    between atoms: S1_2  and  C8_14 
REMARK    3  A    between atoms: N1_4  and  P1_5 
REMARK    4  A    between atoms: P1_5  and  C1_6 
REMARK    5  A    between atoms: C13_19  and  O3_20 
ROOT
HETATM    1  N1  UNL     1      26.413   0.611  52.121  1.00  0.00    -0.192 NA
HETATM    2  H1  UNL     1      27.377   0.420  51.782  1.00  0.00     0.145 HD
ENDROOT
BRANCH   1   3
HETATM    3  S1  UNL     1      26.189  -0.040  53.701  1.00  0.00     0.247 S 
HETATM    4  O1  UNL     1      26.613   1.057  54.665  1.00  0.00    -0.205 OA
HETATM    5  O2  UNL     1      27.100  -1.205  53.955  1.00  0.00    -0.205 OA
BRANCH   3   6
HETATM    6  C8  UNL     1      24.514  -0.463  53.894  1.00  0.00     0.107 A 
HETATM    7  C9  UNL     1      23.436  -0.309  53.046  1.00  0.00     0.028 A 
HETATM    8  C10 UNL     1      22.190  -0.738  53.442  1.00  0.00     0.002 A 
HETATM    9  C11 UNL     1      21.940  -1.328  54.662  1.00  0.00     0.003 A 
HETATM   10  C12 UNL     1      23.014  -1.484  55.514  1.00  0.00     0.038 A 
HETATM   11  C13 UNL     1      24.290  -1.056  55.137  1.00  0.00     0.088 A 
BRANCH  11  12
HETATM   12  O3  UNL     1      25.247  -1.302  56.139  1.00  0.00    -0.359 OA
HETATM   13  H11 UNL     1      24.906  -1.396  57.087  1.00  0.00     0.217 HD
ENDBRANCH  11  12
ENDBRANCH   3   6
ENDBRANCH   1   3
BRANCH   1  14
HETATM   14  P1  UNL     1      26.017   2.360  52.184  1.00  0.00    -0.027 P 
HETATM   15  H2  UNL     1      24.892   2.523  53.087  1.00  0.00     0.076 HD
BRANCH  14  16
HETATM   16  C1  UNL     1      25.477   2.886  50.492  1.00  0.00     0.094 A 
HETATM   17  C2  UNL     1      25.332   4.352  50.235  1.00  0.00    -0.037 A 
HETATM   18  C3  UNL     1      25.204   5.713  49.993  1.00  0.00     0.012 A 
HETATM   19  C7  UNL     1      26.427   3.632  49.658  1.00  0.00    -0.034 A 
HETATM   20  C4  UNL     1      26.137   6.354  49.196  1.00  0.00     0.043 A 
HETATM   21  C5  UNL     1      27.188   5.647  48.646  1.00  0.00     0.117 A 
HETATM   22  F1  UNL     1      28.032   6.382  47.888  1.00  0.00    -0.206 F 
HETATM   23  C6  UNL     1      27.332   4.285  48.878  1.00  0.00     0.051 A 
ENDBRANCH  14  16
ENDBRANCH   1  14
TORSDOF 5
ENDMDL
MODEL 4
REMARK VINA RESULT:      -7.7      3.771      6.726
REMARK  5 active torsions:
REMARK  status: ('A' for Active; 'I' for Inactive)
REMARK    1  A    between atoms: S1_2  and  N1_4 
REMARK    2  A    between atoms: S1_2  and  C8_14 
REMARK    3  A    between atoms: N1_4  and  P1_5 
REMARK    4  A    between atoms: P1_5  and  C1_6 
REMARK    5  A    between atoms: C13_19  and  O3_20 
ROOT
HETATM    1  N1  UNL     1      24.783   1.538  51.568  1.00  0.00    -0.192 NA
HETATM    2  H1  UNL     1      24.881   0.514  51.420  1.00  0.00     0.145 HD
ENDROOT
BRANCH   1   3
HETATM    3  S1  UNL     1      23.146   1.945  51.920  1.00  0.00     0.247 S 
HETATM    4  O1  UNL     1      22.468   2.141  50.573  1.00  0.00    -0.205 OA
HETATM    5  O2  UNL     1      23.044   3.257  52.642  1.00  0.00    -0.205 OA
BRANCH   3   6
HETATM    6  C8  UNL     1      22.432   0.642  52.823  1.00  0.00     0.107 A 
HETATM    7  C9  UNL     1      22.964  -0.552  53.266  1.00  0.00     0.028 A 
HETATM    8  C10 UNL     1      22.176  -1.427  53.977  1.00  0.00     0.002 A 
HETATM    9  C11 UNL     1      20.854  -1.185  54.285  1.00  0.00     0.003 A 
HETATM   10  C12 UNL     1      20.318   0.007  53.844  1.00  0.00     0.038 A 
HETATM   11  C13 UNL     1      21.096   0.914  53.120  1.00  0.00     0.088 A 
BRANCH  11  12
HETATM   12  O3  UNL     1      20.371   2.065  52.762  1.00  0.00    -0.359 OA
HETATM   13  H11 UNL     1      19.671   2.389  53.417  1.00  0.00     0.217 HD
ENDBRANCH  11  12
ENDBRANCH   3   6
ENDBRANCH   1   3
BRANCH   1  14
HETATM   14  P1  UNL     1      25.805   2.163  52.904  1.00  0.00    -0.027 P 
HETATM   15  H2  UNL     1      27.044   2.645  52.322  1.00  0.00     0.076 HD
BRANCH  14  16
HETATM   16  C1  UNL     1      26.209   0.745  54.027  1.00  0.00     0.094 A 
HETATM   17  C2  UNL     1      26.842  -0.463  53.416  1.00  0.00    -0.037 A 
HETATM   18  C3  UNL     1      27.438  -1.584  52.852  1.00  0.00     0.012 A 
HETATM   19  C7  UNL     1      27.621   0.409  54.243  1.00  0.00    -0.034 A 
HETATM   20  C4  UNL     1      28.776  -1.841  53.098  1.00  0.00     0.043 A 
HETATM   21  C5  UNL     1      29.514  -0.991  53.897  1.00  0.00     0.117 A 
HETATM   22  F1  UNL     1      30.808  -1.348  54.062  1.00  0.00    -0.206 F 
HETATM   23  C6  UNL     1      28.935   0.135  54.470  1.00  0.00     0.051 A 
ENDBRANCH  14  16
ENDBRANCH   1  14
TORSDOF 5
ENDMDL
MODEL 5
REMARK VINA RESULT:      -7.6      4.425      6.734
REMARK  5 active torsions:
REMARK  status: ('A' for Active; 'I' for Inactive)
REMARK    1  A    between atoms: S1_2  and  N1_4 
REMARK    2  A    between atoms: S1_2  and  C8_14 
REMARK    3  A    between atoms: N1_4  and  P1_5 
REMARK    4  A    between atoms: P1_5  and  C1_6 
REMARK    5  A    between atoms: C13_19  and  O3_20 
ROOT
HETATM    1  N1  UNL     1      23.369   1.833  51.743  1.00  0.00    -0.192 NA
HETATM    2  H1  UNL     1      22.374   1.553  51.845  1.00  0.00     0.145 HD
ENDROOT
BRANCH   1   3
HETATM    3  S1  UNL     1      23.564   3.510  52.089  1.00  0.00     0.247 S 
HETATM    4  O1  UNL     1      24.174   3.579  53.480  1.00  0.00    -0.205 OA
HETATM    5  O2  UNL     1      22.241   4.217  52.170  1.00  0.00    -0.205 OA
BRANCH   3   6
HETATM    6  C8  UNL     1      24.607   4.207  50.886  1.00  0.00     0.107 A 
HETATM    7  C9  UNL     1      25.339   3.623  49.873  1.00  0.00     0.028 A 
HETATM    8  C10 UNL     1      26.097   4.412  49.037  1.00  0.00     0.002 A 
HETATM    9  C11 UNL     1      26.176   5.783  49.148  1.00  0.00     0.003 A 
HETATM   10  C12 UNL     1      25.446   6.372  50.160  1.00  0.00     0.038 A 
HETATM   11  C13 UNL     1      24.668   5.595  51.023  1.00  0.00     0.088 A 
BRANCH  11  12
HETATM   12  O3  UNL     1      24.002   6.377  51.984  1.00  0.00    -0.359 OA
HETATM   13  H11 UNL     1      23.047   6.640  51.781  1.00  0.00     0.217 HD
ENDBRANCH  11  12
ENDBRANCH   3   6
ENDBRANCH   1   3
BRANCH   1  14
HETATM   14  P1  UNL     1      24.477   0.918  52.818  1.00  0.00    -0.027 P 
HETATM   15  H2  UNL     1      24.683   1.712  54.016  1.00  0.00     0.076 HD
BRANCH  14  16
HETATM   16  C1  UNL     1      26.106   0.750  51.952  1.00  0.00     0.094 A 
HETATM   17  C2  UNL     1      27.320   1.269  52.652  1.00  0.00    -0.037 A 
HETATM   18  C3  UNL     1      28.451   1.743  53.305  1.00  0.00     0.012 A 
HETATM   19  C7  UNL     1      27.115  -0.143  52.532  1.00  0.00    -0.034 A 
HETATM   20  C4  UNL     1      29.363   0.842  53.830  1.00  0.00     0.043 A 
HETATM   21  C5  UNL     1      29.151  -0.517  53.706  1.00  0.00     0.117 A 
HETATM   22  F1  UNL     1      30.110  -1.293  54.258  1.00  0.00    -0.206 F 
HETATM   23  C6  UNL     1      28.026  -1.009  53.056  1.00  0.00     0.051 A 
ENDBRANCH  14  16
ENDBRANCH   1  14
TORSDOF 5
ENDMDL
MODEL 6
REMARK VINA RESULT:      -7.5      3.932      6.140
REMARK  5 active torsions:
REMARK  status: ('A' for Active; 'I' for Inactive)
REMARK    1  A    between atoms: S1_2  and  N1_4 
REMARK    2  A    between atoms: S1_2  and  C8_14 
REMARK    3  A    between atoms: N1_4  and  P1_5 
REMARK    4  A    between atoms: P1_5  and  C1_6 
REMARK    5  A    between atoms: C13_19  and  O3_20 
ROOT
HETATM    1  N1  UNL     1      23.523   1.928  50.730  1.00  0.00    -0.192 NA
HETATM    2  H1  UNL     1      24.021   1.020  50.642  1.00  0.00     0.145 HD
ENDROOT
BRANCH   1   3
HETATM    3  S1  UNL     1      22.166   1.774  51.781  1.00  0.00     0.247 S 
HETATM    4  O1  UNL     1      21.014   1.305  50.906  1.00  0.00    -0.205 OA
HETATM    5  O2  UNL     1      21.754   3.101  52.351  1.00  0.00    -0.205 OA
BRANCH   3   6
HETATM    6  C8  UNL     1      22.553   0.619  53.021  1.00  0.00     0.107 A 
HETATM    7  C9  UNL     1      23.754   0.045  53.382  1.00  0.00     0.028 A 
HETATM    8  C10 UNL     1      23.794  -0.856  54.421  1.00  0.00     0.002 A 
HETATM    9  C11 UNL     1      22.684  -1.234  55.145  1.00  0.00     0.003 A 
HETATM   10  C12 UNL     1      21.480  -0.663  54.788  1.00  0.00     0.038 A 
HETATM   11  C13 UNL     1      21.411   0.255  53.736  1.00  0.00     0.088 A 
BRANCH  11  12
HETATM   12  O3  UNL     1      20.100   0.722  53.527  1.00  0.00    -0.359 OA
HETATM   13  H11 UNL     1      19.464   0.102  53.042  1.00  0.00     0.217 HD
ENDBRANCH  11  12
ENDBRANCH   3   6
ENDBRANCH   1   3
BRANCH   1  14
HETATM   14  P1  UNL     1      24.562   3.248  51.362  1.00  0.00    -0.027 P 
HETATM   15  H2  UNL     1      24.438   4.376  50.457  1.00  0.00     0.076 HD
BRANCH  14  16
HETATM   16  C1  UNL     1      26.320   2.665  51.316  1.00  0.00     0.094 A 
HETATM   17  C2  UNL     1      26.920   2.171  52.593  1.00  0.00    -0.037 A 
HETATM   18  C3  UNL     1      27.477   1.705  53.777  1.00  0.00     0.012 A 
HETATM   19  C7  UNL     1      26.588   1.242  51.555  1.00  0.00    -0.034 A 
HETATM   20  C4  UNL     1      27.703   0.348  53.936  1.00  0.00     0.043 A 
HETATM   21  C5  UNL     1      27.378  -0.536  52.925  1.00  0.00     0.117 A 
HETATM   22  F1  UNL     1      27.646  -1.832  53.199  1.00  0.00    -0.206 F 
HETATM   23  C6  UNL     1      26.821  -0.087  51.734  1.00  0.00     0.051 A 
ENDBRANCH  14  16
ENDBRANCH   1  14
TORSDOF 5
ENDMDL
MODEL 7
REMARK VINA RESULT:      -7.5      5.093      7.263
REMARK  5 active torsions:
REMARK  status: ('A' for Active; 'I' for Inactive)
REMARK    1  A    between atoms: S1_2  and  N1_4 
REMARK    2  A    between atoms: S1_2  and  C8_14 
REMARK    3  A    between atoms: N1_4  and  P1_5 
REMARK    4  A    between atoms: P1_5  and  C1_6 
REMARK    5  A    between atoms: C13_19  and  O3_20 
ROOT
HETATM    1  N1  UNL     1      25.003   3.648  52.069  1.00  0.00    -0.192 NA
HETATM    2  H1  UNL     1      25.513   4.413  52.554  1.00  0.00     0.145 HD
ENDROOT
BRANCH   1   3
HETATM    3  S1  UNL     1      24.260   4.235  50.628  1.00  0.00     0.247 S 
HETATM    4  O1  UNL     1      22.915   4.800  51.056  1.00  0.00    -0.205 OA
HETATM    5  O2  UNL     1      23.966   3.122  49.664  1.00  0.00    -0.205 OA
BRANCH   3   6
HETATM    6  C8  UNL     1      25.285   5.453  49.931  1.00  0.00     0.107 A 
HETATM    7  C9  UNL     1      26.100   5.424  48.818  1.00  0.00     0.028 A 
HETATM    8  C10 UNL     1      26.820   6.544  48.471  1.00  0.00     0.002 A 
HETATM    9  C11 UNL     1      26.780   7.726  49.179  1.00  0.00     0.003 A 
HETATM   10  C12 UNL     1      25.967   7.760  50.293  1.00  0.00     0.038 A 
HETATM   11  C13 UNL     1      25.225   6.636  50.669  1.00  0.00     0.088 A 
BRANCH  11  12
HETATM   12  O3  UNL     1      24.461   6.870  51.827  1.00  0.00    -0.359 OA
HETATM   13  H11 UNL     1      24.393   7.828  52.147  1.00  0.00     0.217 HD
ENDBRANCH  11  12
ENDBRANCH   3   6
ENDBRANCH   1   3
BRANCH   1  14
HETATM   14  P1  UNL     1      26.057   2.267  51.621  1.00  0.00    -0.027 P 
HETATM   15  H2  UNL     1      25.346   1.474  50.634  1.00  0.00     0.076 HD
BRANCH  14  16
HETATM   16  C1  UNL     1      26.302   1.221  53.131  1.00  0.00     0.094 A 
HETATM   17  C2  UNL     1      26.807  -0.172  52.934  1.00  0.00    -0.037 A 
HETATM   18  C3  UNL     1      27.283  -1.465  52.754  1.00  0.00     0.012 A 
HETATM   19  C7  UNL     1      27.669   0.827  53.490  1.00  0.00    -0.034 A 
HETATM   20  C4  UNL     1      28.585  -1.768  53.116  1.00  0.00     0.043 A 
HETATM   21  C5  UNL     1      29.405  -0.793  53.651  1.00  0.00     0.117 A 
HETATM   22  F1  UNL     1      30.652  -1.211  53.964  1.00  0.00    -0.206 F 
HETATM   23  C6  UNL     1      28.945   0.504  53.838  1.00  0.00     0.051 A 
ENDBRANCH  14  16
ENDBRANCH   1  14
TORSDOF 5
ENDMDL
MODEL 8
REMARK VINA RESULT:      -7.4      4.047      5.150
REMARK  5 active torsions:
REMARK  status: ('A' for Active; 'I' for Inactive)
REMARK    1  A    between atoms: S1_2  and  N1_4 
REMARK    2  A    between atoms: S1_2  and  C8_14 
REMARK    3  A    between atoms: N1_4  and  P1_5 
REMARK    4  A    between atoms: P1_5  and  C1_6 
REMARK    5  A    between atoms: C13_19  and  O3_20 
ROOT
HETATM    1  N1  UNL     1      25.597   3.079  51.863  1.00  0.00    -0.192 NA
HETATM    2  H1  UNL     1      26.162   2.336  51.408  1.00  0.00     0.145 HD
ENDROOT
BRANCH   1   3
HETATM    3  S1  UNL     1      24.682   3.949  50.690  1.00  0.00     0.247 S 
HETATM    4  O1  UNL     1      23.624   4.712  51.471  1.00  0.00    -0.205 OA
HETATM    5  O2  UNL     1      23.943   3.023  49.766  1.00  0.00    -0.205 OA
BRANCH   3   6
HETATM    6  C8  UNL     1      25.752   5.016  49.831  1.00  0.00     0.107 A 
HETATM    7  C9  UNL     1      25.714   6.383  49.648  1.00  0.00     0.028 A 
HETATM    8  C10 UNL     1      26.702   7.000  48.915  1.00  0.00     0.002 A 
HETATM    9  C11 UNL     1      27.756   6.326  48.337  1.00  0.00     0.003 A 
HETATM   10  C12 UNL     1      27.798   4.958  48.517  1.00  0.00     0.038 A 
HETATM   11  C13 UNL     1      26.807   4.306  49.256  1.00  0.00     0.088 A 
BRANCH  11  12
HETATM   12  O3  UNL     1      27.026   2.918  49.324  1.00  0.00    -0.359 OA
HETATM   13  H11 UNL     1      27.942   2.584  49.053  1.00  0.00     0.217 HD
ENDBRANCH  11  12
ENDBRANCH   3   6
ENDBRANCH   1   3
BRANCH   1  14
HETATM   14  P1  UNL     1      24.454   2.448  53.094  1.00  0.00    -0.027 P 
HETATM   15  H2  UNL     1      25.182   2.315  54.343  1.00  0.00     0.076 HD
BRANCH  14  16
HETATM   16  C1  UNL     1      23.915   0.757  52.560  1.00  0.00     0.094 A 
HETATM   17  C2  UNL     1      23.324  -0.142  53.598  1.00  0.00    -0.037 A 
HETATM   18  C3  UNL     1      22.768  -0.976  54.560  1.00  0.00     0.012 A 
HETATM   19  C7  UNL     1      22.483   0.439  52.596  1.00  0.00    -0.034 A 
HETATM   20  C4  UNL     1      21.407  -1.233  54.534  1.00  0.00     0.043 A 
HETATM   21  C5  UNL     1      20.609  -0.665  53.561  1.00  0.00     0.117 A 
HETATM   22  F1  UNL     1      19.299  -0.992  53.641  1.00  0.00    -0.206 F 
HETATM   23  C6  UNL     1      21.148   0.171  52.591  1.00  0.00     0.051 A 
ENDBRANCH  14  16
ENDBRANCH   1  14
TORSDOF 5
ENDMDL
MODEL 9
REMARK VINA RESULT:      -7.2      4.922      7.621
REMARK  5 active torsions:
REMARK  status: ('A' for Active; 'I' for Inactive)
REMARK    1  A    between atoms: S1_2  and  N1_4 
REMARK    2  A    between atoms: S1_2  and  C8_14 
REMARK    3  A    between atoms: N1_4  and  P1_5 
REMARK    4  A    between atoms: P1_5  and  C1_6 
REMARK    5  A    between atoms: C13_19  and  O3_20 
ROOT
HETATM    1  N1  UNL     1      25.685   4.211  51.125  1.00  0.00    -0.192 NA
HETATM    2  H1  UNL     1      25.924   4.864  50.354  1.00  0.00     0.145 HD
ENDROOT
BRANCH   1   3
HETATM    3  S1  UNL     1      23.975   4.042  51.267  1.00  0.00     0.247 S 
HETATM    4  O1  UNL     1      23.686   3.988  52.759  1.00  0.00    -0.205 OA
HETATM    5  O2  UNL     1      23.497   2.739  50.693  1.00  0.00    -0.205 OA
BRANCH   3   6
HETATM    6  C8  UNL     1      23.218   5.410  50.507  1.00  0.00     0.107 A 
HETATM    7  C9  UNL     1      22.308   5.484  49.473  1.00  0.00     0.028 A 
HETATM    8  C10 UNL     1      21.852   6.713  49.053  1.00  0.00     0.002 A 
HETATM    9  C11 UNL     1      22.254   7.907  49.611  1.00  0.00     0.003 A 
HETATM   10  C12 UNL     1      23.165   7.838  50.645  1.00  0.00     0.038 A 
HETATM   11  C13 UNL     1      23.644   6.604  51.092  1.00  0.00     0.088 A 
BRANCH  11  12
HETATM   12  O3  UNL     1      24.561   6.744  52.150  1.00  0.00    -0.359 OA
HETATM   13  H11 UNL     1      25.226   5.994  52.285  1.00  0.00     0.217 HD
ENDBRANCH  11  12
ENDBRANCH   3   6
ENDBRANCH   1   3
BRANCH   1  14
HETATM   14  P1  UNL     1      26.382   2.572  50.908  1.00  0.00    -0.027 P 
HETATM   15  H2  UNL     1      25.482   1.821  50.051  1.00  0.00     0.076 HD
BRANCH  14  16
HETATM   16  C1  UNL     1      26.424   1.743  52.565  1.00  0.00     0.094 A 
HETATM   17  C2  UNL     1      26.737   0.282  52.602  1.00  0.00    -0.037 A 
HETATM   18  C3  UNL     1      27.036  -1.074  52.639  1.00  0.00     0.012 A 
HETATM   19  C7  UNL     1      27.708   1.232  53.056  1.00  0.00    -0.034 A 
HETATM   20  C4  UNL     1      28.269  -1.488  53.115  1.00  0.00     0.043 A 
HETATM   21  C5  UNL     1      29.195  -0.560  53.549  1.00  0.00     0.117 A 
HETATM   22  F1  UNL     1      30.360  -1.086  53.990  1.00  0.00    -0.206 F 
HETATM   23  C6  UNL     1      28.914   0.800  53.520  1.00  0.00     0.051 A 
ENDBRANCH  14  16
ENDBRANCH   1  14
TORSDOF 5
ENDMDL
