MODEL 1
REMARK VINA RESULT:      -7.2      0.000      0.000
REMARK  4 active torsions:
REMARK  status: ('A' for Active; 'I' for Inactive)
REMARK    1  A    between atoms: C2_2  and  C3_3 
REMARK    2  A    between atoms: C3_3  and  N1_4 
REMARK    3  A    between atoms: N1_4  and  O1_5 
REMARK    4  A    between atoms: N1_4  and  C4_6 
ROOT
HETATM    1  C4  UNL     1      25.633   2.766  51.756  1.00  0.00     0.054 C 
HETATM    2  C5  UNL     1      26.890   2.614  52.146  1.00  0.00     0.045 C 
HETATM    3  C6  UNL     1      27.314   1.591  53.098  1.00  0.00     0.029 A 
HETATM    4  C7  UNL     1      28.672   1.675  53.308  1.00  0.00     0.133 A 
HETATM    5  N2  UNL     1      29.239   0.788  54.174  1.00  0.00    -0.253 NA
HETATM    6  C8  UNL     1      28.493  -0.150  54.812  1.00  0.00     0.234 A 
HETATM    7  N3  UNL     1      27.157  -0.265  54.630  1.00  0.00    -0.224 NA
HETATM    8  C9  UNL     1      26.610   0.613  53.775  1.00  0.00     0.137 A 
HETATM    9  N4  UNL     1      25.183   0.435  53.629  1.00  0.00    -0.368 N 
HETATM   10  C10 UNL     1      24.340   0.759  52.527  1.00  0.00     0.101 C 
HETATM   11  C11 UNL     1      22.914   0.383  52.876  1.00  0.00     0.034 C 
HETATM   12  C12 UNL     1      24.331   2.137  52.017  1.00  0.00     0.062 C 
HETATM   13  C13 UNL     1      23.490   3.097  52.779  1.00  0.00    -0.008 C 
HETATM   14  C14 UNL     1      22.309   3.402  52.339  1.00  0.00    -0.025 C 
HETATM   15  C15 UNL     1      21.817   2.796  51.097  1.00  0.00     0.059 C 
HETATM   16  P1  UNL     1      23.418   2.158  50.389  1.00  0.00    -0.104 P 
HETATM   17  H12 UNL     1      24.728  -0.001  54.487  1.00  0.00     0.161 HD
HETATM   18  H21 UNL     1      23.297   0.821  49.849  1.00  0.00     0.059 HD
ENDROOT
BRANCH   1  19
HETATM   19  N1  UNL     1      25.552   3.862  50.815  1.00  0.00    -0.264 N 
BRANCH  19  20
HETATM   20  C3  UNL     1      26.401   3.564  49.685  1.00  0.00     0.155 C 
BRANCH  20  21
HETATM   21  C2  UNL     1      26.630   4.858  48.919  1.00  0.00     0.018 C 
HETATM   22  C1  UNL     1      28.082   4.965  48.545  1.00  0.00     0.007 C 
ENDBRANCH  20  21
ENDBRANCH  19  20
BRANCH  19  23
HETATM   23  O1  UNL     1      24.834   5.009  50.888  1.00  0.00    -0.287 OA
HETATM   24  H8  UNL     1      24.361   4.999  51.758  1.00  0.00     0.244 HD
ENDBRANCH  19  23
ENDBRANCH   1  19
TORSDOF 4
ENDMDL
MODEL 2
REMARK VINA RESULT:      -7.0      2.452      4.717
REMARK  4 active torsions:
REMARK  status: ('A' for Active; 'I' for Inactive)
REMARK    1  A    between atoms: C2_2  and  C3_3 
REMARK    2  A    between atoms: C3_3  and  N1_4 
REMARK    3  A    between atoms: N1_4  and  O1_5 
REMARK    4  A    between atoms: N1_4  and  C4_6 
ROOT
HETATM    1  C4  UNL     1      22.975   1.160  52.448  1.00  0.00     0.054 C 
HETATM    2  C5  UNL     1      23.701   0.344  53.199  1.00  0.00     0.045 C 
HETATM    3  C6  UNL     1      25.074   0.636  53.601  1.00  0.00     0.029 A 
HETATM    4  C7  UNL     1      25.569  -0.391  54.374  1.00  0.00     0.133 A 
HETATM    5  N2  UNL     1      26.845  -0.280  54.838  1.00  0.00    -0.253 NA
HETATM    6  C8  UNL     1      27.610   0.803  54.550  1.00  0.00     0.234 A 
HETATM    7  N3  UNL     1      27.160   1.832  53.795  1.00  0.00    -0.224 NA
HETATM    8  C9  UNL     1      25.901   1.713  53.343  1.00  0.00     0.137 A 
HETATM    9  N4  UNL     1      25.485   2.844  52.545  1.00  0.00    -0.368 N 
HETATM   10  C10 UNL     1      24.176   3.360  52.321  1.00  0.00     0.101 C 
HETATM   11  C11 UNL     1      24.274   4.556  51.396  1.00  0.00     0.034 C 
HETATM   12  C12 UNL     1      23.138   2.464  51.791  1.00  0.00     0.062 C 
HETATM   13  C13 UNL     1      23.168   2.248  50.321  1.00  0.00    -0.008 C 
HETATM   14  C14 UNL     1      22.353   2.912  49.561  1.00  0.00    -0.025 C 
HETATM   15  C15 UNL     1      21.413   3.865  50.159  1.00  0.00     0.059 C 
HETATM   16  P1  UNL     1      21.487   3.321  51.940  1.00  0.00    -0.104 P 
HETATM   17  H12 UNL     1      26.299   3.338  52.069  1.00  0.00     0.161 HD
HETATM   18  H21 UNL     1      21.565   4.434  52.862  1.00  0.00     0.059 HD
ENDROOT
BRANCH   1  19
HETATM   19  N1  UNL     1      21.668   0.579  52.233  1.00  0.00    -0.264 N 
BRANCH  19  20
HETATM   20  C3  UNL     1      20.939   0.611  53.480  1.00  0.00     0.155 C 
BRANCH  20  21
HETATM   21  C2  UNL     1      20.152  -0.687  53.593  1.00  0.00     0.018 C 
HETATM   22  C1  UNL     1      20.977  -1.706  54.327  1.00  0.00     0.007 C 
ENDBRANCH  20  21
ENDBRANCH  19  20
BRANCH  19  23
HETATM   23  O1  UNL     1      21.127   0.068  51.100  1.00  0.00    -0.287 OA
HETATM   24  H8  UNL     1      20.143   0.116  51.204  1.00  0.00     0.244 HD
ENDBRANCH  19  23
ENDBRANCH   1  19
TORSDOF 4
ENDMDL
MODEL 3
REMARK VINA RESULT:      -6.8      2.472      4.851
REMARK  4 active torsions:
REMARK  status: ('A' for Active; 'I' for Inactive)
REMARK    1  A    between atoms: C2_2  and  C3_3 
REMARK    2  A    between atoms: C3_3  and  N1_4 
REMARK    3  A    between atoms: N1_4  and  O1_5 
REMARK    4  A    between atoms: N1_4  and  C4_6 
ROOT
HETATM    1  C4  UNL     1      24.127   1.618  52.750  1.00  0.00     0.054 C 
HETATM    2  C5  UNL     1      23.878   0.522  53.451  1.00  0.00     0.045 C 
HETATM    3  C6  UNL     1      22.539  -0.040  53.609  1.00  0.00     0.029 A 
HETATM    4  C7  UNL     1      22.592  -1.175  54.387  1.00  0.00     0.133 A 
HETATM    5  N2  UNL     1      21.424  -1.831  54.636  1.00  0.00    -0.253 NA
HETATM    6  C8  UNL     1      20.243  -1.384  54.138  1.00  0.00     0.234 A 
HETATM    7  N3  UNL     1      20.151  -0.274  53.369  1.00  0.00    -0.224 NA
HETATM    8  C9  UNL     1      21.307   0.364  53.130  1.00  0.00     0.137 A 
HETATM    9  N4  UNL     1      21.136   1.539  52.305  1.00  0.00    -0.368 N 
HETATM   10  C10 UNL     1      22.066   2.171  51.430  1.00  0.00     0.101 C 
HETATM   11  C11 UNL     1      21.400   3.380  50.802  1.00  0.00     0.034 C 
HETATM   12  C12 UNL     1      23.368   2.598  51.960  1.00  0.00     0.062 C 
HETATM   13  C13 UNL     1      23.369   3.892  52.692  1.00  0.00    -0.008 C 
HETATM   14  C14 UNL     1      23.766   4.969  52.086  1.00  0.00    -0.025 C 
HETATM   15  C15 UNL     1      24.207   4.897  50.689  1.00  0.00     0.059 C 
HETATM   16  P1  UNL     1      24.467   3.059  50.524  1.00  0.00    -0.104 P 
HETATM   17  H12 UNL     1      20.166   1.969  52.391  1.00  0.00     0.161 HD
HETATM   18  H21 UNL     1      23.944   2.529  49.283  1.00  0.00     0.059 HD
ENDROOT
BRANCH   1  19
HETATM   19  N1  UNL     1      25.544   1.905  52.793  1.00  0.00    -0.264 N 
BRANCH  19  20
HETATM   20  C3  UNL     1      26.231   0.960  51.943  1.00  0.00     0.155 C 
BRANCH  20  21
HETATM   21  C2  UNL     1      27.454   0.457  52.697  1.00  0.00     0.018 C 
HETATM   22  C1  UNL     1      27.309  -1.016  52.955  1.00  0.00     0.007 C 
ENDBRANCH  20  21
ENDBRANCH  19  20
BRANCH  19  23
HETATM   23  O1  UNL     1      26.209   2.867  53.477  1.00  0.00    -0.287 OA
HETATM   24  H8  UNL     1      26.177   2.615  54.434  1.00  0.00     0.244 HD
ENDBRANCH  19  23
ENDBRANCH   1  19
TORSDOF 4
ENDMDL
MODEL 4
REMARK VINA RESULT:      -6.7      1.819      2.282
REMARK  4 active torsions:
REMARK  status: ('A' for Active; 'I' for Inactive)
REMARK    1  A    between atoms: C2_2  and  C3_3 
REMARK    2  A    between atoms: C3_3  and  N1_4 
REMARK    3  A    between atoms: N1_4  and  O1_5 
REMARK    4  A    between atoms: N1_4  and  C4_6 
ROOT
HETATM    1  C4  UNL     1      23.634   1.878  52.356  1.00  0.00     0.054 C 
HETATM    2  C5  UNL     1      24.889   2.213  52.618  1.00  0.00     0.045 C 
HETATM    3  C6  UNL     1      25.776   1.404  53.449  1.00  0.00     0.029 A 
HETATM    4  C7  UNL     1      27.013   2.003  53.540  1.00  0.00     0.133 A 
HETATM    5  N2  UNL     1      27.970   1.377  54.283  1.00  0.00    -0.253 NA
HETATM    6  C8  UNL     1      27.717   0.203  54.915  1.00  0.00     0.234 A 
HETATM    7  N3  UNL     1      26.515  -0.416  54.849  1.00  0.00    -0.224 NA
HETATM    8  C9  UNL     1      25.581   0.208  54.114  1.00  0.00     0.137 A 
HETATM    9  N4  UNL     1      24.324  -0.505  54.086  1.00  0.00    -0.368 N 
HETATM   10  C10 UNL     1      23.303  -0.498  53.092  1.00  0.00     0.101 C 
HETATM   11  C11 UNL     1      22.179  -1.410  53.542  1.00  0.00     0.034 C 
HETATM   12  C12 UNL     1      22.710   0.784  52.688  1.00  0.00     0.062 C 
HETATM   13  C13 UNL     1      21.657   1.317  53.593  1.00  0.00    -0.008 C 
HETATM   14  C14 UNL     1      20.408   1.152  53.286  1.00  0.00    -0.025 C 
HETATM   15  C15 UNL     1      20.048   0.444  52.053  1.00  0.00     0.059 C 
HETATM   16  P1  UNL     1      21.681   0.501  51.157  1.00  0.00    -0.104 P 
HETATM   17  H12 UNL     1      24.171  -1.111  54.948  1.00  0.00     0.161 HD
HETATM   18  H21 UNL     1      22.021  -0.760  50.533  1.00  0.00     0.059 HD
ENDROOT
BRANCH   1  19
HETATM   19  N1  UNL     1      23.034   2.885  51.510  1.00  0.00    -0.264 N 
BRANCH  19  20
HETATM   20  C3  UNL     1      23.571   2.747  50.177  1.00  0.00     0.155 C 
BRANCH  20  21
HETATM   21  C2  UNL     1      23.923   4.138  49.669  1.00  0.00     0.018 C 
HETATM   22  C1  UNL     1      25.412   4.239  49.488  1.00  0.00     0.007 C 
ENDBRANCH  20  21
ENDBRANCH  19  20
BRANCH  19  23
HETATM   23  O1  UNL     1      22.119   3.837  51.818  1.00  0.00    -0.287 OA
HETATM   24  H8  UNL     1      22.616   4.683  51.955  1.00  0.00     0.244 HD
ENDBRANCH  19  23
ENDBRANCH   1  19
TORSDOF 4
ENDMDL
MODEL 5
REMARK VINA RESULT:      -6.7      2.060      4.281
REMARK  4 active torsions:
REMARK  status: ('A' for Active; 'I' for Inactive)
REMARK    1  A    between atoms: C2_2  and  C3_3 
REMARK    2  A    between atoms: C3_3  and  N1_4 
REMARK    3  A    between atoms: N1_4  and  O1_5 
REMARK    4  A    between atoms: N1_4  and  C4_6 
ROOT
HETATM    1  C4  UNL     1      23.791   2.506  52.014  1.00  0.00     0.054 C 
HETATM    2  C5  UNL     1      24.438   1.906  53.004  1.00  0.00     0.045 C 
HETATM    3  C6  UNL     1      25.893   1.897  53.119  1.00  0.00     0.029 A 
HETATM    4  C7  UNL     1      26.274   1.201  54.245  1.00  0.00     0.133 A 
HETATM    5  N2  UNL     1      27.607   1.093  54.506  1.00  0.00    -0.253 NA
HETATM    6  C8  UNL     1      28.534   1.651  53.687  1.00  0.00     0.234 A 
HETATM    7  N3  UNL     1      28.200   2.343  52.573  1.00  0.00    -0.224 NA
HETATM    8  C9  UNL     1      26.885   2.443  52.325  1.00  0.00     0.137 A 
HETATM    9  N4  UNL     1      26.599   3.192  51.123  1.00  0.00    -0.368 N 
HETATM   10  C10 UNL     1      25.437   3.943  50.781  1.00  0.00     0.101 C 
HETATM   11  C11 UNL     1      25.627   4.534  49.398  1.00  0.00     0.034 C 
HETATM   12  C12 UNL     1      24.126   3.281  50.812  1.00  0.00     0.062 C 
HETATM   13  C13 UNL     1      23.793   2.461  49.617  1.00  0.00    -0.008 C 
HETATM   14  C14 UNL     1      23.023   2.955  48.697  1.00  0.00    -0.025 C 
HETATM   15  C15 UNL     1      22.490   4.313  48.846  1.00  0.00     0.059 C 
HETATM   16  P1  UNL     1      22.801   4.588  50.663  1.00  0.00    -0.104 P 
HETATM   17  H12 UNL     1      27.390   3.154  50.412  1.00  0.00     0.161 HD
HETATM   18  H21 UNL     1      23.339   5.901  50.946  1.00  0.00     0.059 HD
ENDROOT
BRANCH   1  19
HETATM   19  N1  UNL     1      22.367   2.329  52.194  1.00  0.00    -0.264 N 
BRANCH  19  20
HETATM   20  C3  UNL     1      22.056   0.925  52.055  1.00  0.00     0.155 C 
BRANCH  20  21
HETATM   21  C2  UNL     1      20.904   0.607  52.998  1.00  0.00     0.018 C 
HETATM   22  C1  UNL     1      21.451   0.051  54.282  1.00  0.00     0.007 C 
ENDBRANCH  20  21
ENDBRANCH  19  20
BRANCH  19  23
HETATM   23  O1  UNL     1      21.410   3.252  52.453  1.00  0.00    -0.287 OA
HETATM   24  H8  UNL     1      20.787   2.847  53.108  1.00  0.00     0.244 HD
ENDBRANCH  19  23
ENDBRANCH   1  19
TORSDOF 4
ENDMDL
MODEL 6
REMARK VINA RESULT:      -6.4      2.132      4.074
REMARK  4 active torsions:
REMARK  status: ('A' for Active; 'I' for Inactive)
REMARK    1  A    between atoms: C2_2  and  C3_3 
REMARK    2  A    between atoms: C3_3  and  N1_4 
REMARK    3  A    between atoms: N1_4  and  O1_5 
REMARK    4  A    between atoms: N1_4  and  C4_6 
ROOT
HETATM    1  C4  UNL     1      23.593   2.462  51.897  1.00  0.00     0.054 C 
HETATM    2  C5  UNL     1      23.789   1.449  52.729  1.00  0.00     0.045 C 
HETATM    3  C6  UNL     1      25.047   0.713  52.812  1.00  0.00     0.029 A 
HETATM    4  C7  UNL     1      24.952  -0.279  53.762  1.00  0.00     0.133 A 
HETATM    5  N2  UNL     1      26.045  -1.067  53.971  1.00  0.00    -0.253 NA
HETATM    6  C8  UNL     1      27.192  -0.884  53.269  1.00  0.00     0.234 A 
HETATM    7  N3  UNL     1      27.324   0.080  52.329  1.00  0.00    -0.224 NA
HETATM    8  C9  UNL     1      26.242   0.850  52.131  1.00  0.00     0.137 A 
HETATM    9  N4  UNL     1      26.452   1.857  51.115  1.00  0.00    -0.368 N 
HETATM   10  C10 UNL     1      25.823   3.126  50.958  1.00  0.00     0.101 C 
HETATM   11  C11 UNL     1      26.389   3.801  49.724  1.00  0.00     0.034 C 
HETATM   12  C12 UNL     1      24.358   3.190  50.875  1.00  0.00     0.062 C 
HETATM   13  C13 UNL     1      23.776   2.879  49.543  1.00  0.00    -0.008 C 
HETATM   14  C14 UNL     1      23.417   3.848  48.759  1.00  0.00    -0.025 C 
HETATM   15  C15 UNL     1      23.587   5.238  49.196  1.00  0.00     0.059 C 
HETATM   16  P1  UNL     1      23.836   4.977  51.024  1.00  0.00    -0.104 P 
HETATM   17  H12 UNL     1      27.186   1.577  50.397  1.00  0.00     0.161 HD
HETATM   18  H21 UNL     1      24.910   5.783  51.563  1.00  0.00     0.059 HD
ENDROOT
BRANCH   1  19
HETATM   19  N1  UNL     1      22.248   2.967  52.062  1.00  0.00    -0.264 N 
BRANCH  19  20
HETATM   20  C3  UNL     1      21.319   1.879  51.859  1.00  0.00     0.155 C 
BRANCH  20  21
HETATM   21  C2  UNL     1      20.404   2.257  50.703  1.00  0.00     0.018 C 
HETATM   22  C1  UNL     1      20.494   1.205  49.633  1.00  0.00     0.007 C 
ENDBRANCH  20  21
ENDBRANCH  19  20
BRANCH  19  23
HETATM   23  O1  UNL     1      21.828   4.221  52.358  1.00  0.00    -0.287 OA
HETATM   24  H8  UNL     1      21.496   4.202  53.291  1.00  0.00     0.244 HD
ENDBRANCH  19  23
ENDBRANCH   1  19
TORSDOF 4
ENDMDL
MODEL 7
REMARK VINA RESULT:      -6.3      6.621      9.601
REMARK  4 active torsions:
REMARK  status: ('A' for Active; 'I' for Inactive)
REMARK    1  A    between atoms: C2_2  and  C3_3 
REMARK    2  A    between atoms: C3_3  and  N1_4 
REMARK    3  A    between atoms: N1_4  and  O1_5 
REMARK    4  A    between atoms: N1_4  and  C4_6 
ROOT
HETATM    1  C4  UNL     1      31.379   5.723  47.867  1.00  0.00     0.054 C 
HETATM    2  C5  UNL     1      30.207   5.161  48.127  1.00  0.00     0.045 C 
HETATM    3  C6  UNL     1      28.966   5.920  48.252  1.00  0.00     0.029 A 
HETATM    4  C7  UNL     1      27.918   5.069  48.523  1.00  0.00     0.133 A 
HETATM    5  N2  UNL     1      26.678   5.615  48.672  1.00  0.00    -0.253 NA
HETATM    6  C8  UNL     1      26.477   6.952  48.559  1.00  0.00     0.234 A 
HETATM    7  N3  UNL     1      27.481   7.820  48.293  1.00  0.00    -0.224 NA
HETATM    8  C9  UNL     1      28.698   7.272  48.148  1.00  0.00     0.137 A 
HETATM    9  N4  UNL     1      29.722   8.253  47.867  1.00  0.00    -0.368 N 
HETATM   10  C10 UNL     1      30.956   8.097  47.172  1.00  0.00     0.101 C 
HETATM   11  C11 UNL     1      31.679   9.429  47.157  1.00  0.00     0.034 C 
HETATM   12  C12 UNL     1      31.907   7.074  47.629  1.00  0.00     0.062 C 
HETATM   13  C13 UNL     1      32.754   7.457  48.789  1.00  0.00    -0.008 C 
HETATM   14  C14 UNL     1      33.971   7.858  48.588  1.00  0.00    -0.025 C 
HETATM   15  C15 UNL     1      34.496   7.929  47.220  1.00  0.00     0.059 C 
HETATM   16  P1  UNL     1      33.236   6.882  46.332  1.00  0.00    -0.104 P 
HETATM   17  H12 UNL     1      29.489   9.218  48.250  1.00  0.00     0.161 HD
HETATM   18  H21 UNL     1      32.815   7.461  45.074  1.00  0.00     0.059 HD
ENDROOT
BRANCH   1  19
HETATM   19  N1  UNL     1      32.400   4.700  47.808  1.00  0.00    -0.264 N 
BRANCH  19  20
HETATM   20  C3  UNL     1      32.088   3.800  46.722  1.00  0.00     0.155 C 
BRANCH  20  21
HETATM   21  C2  UNL     1      33.116   2.677  46.736  1.00  0.00     0.018 C 
HETATM   22  C1  UNL     1      32.418   1.366  46.965  1.00  0.00     0.007 C 
ENDBRANCH  20  21
ENDBRANCH  19  20
BRANCH  19  23
HETATM   23  O1  UNL     1      33.495   4.529  48.587  1.00  0.00    -0.287 OA
HETATM   24  H8  UNL     1      34.019   3.787  48.190  1.00  0.00     0.244 HD
ENDBRANCH  19  23
ENDBRANCH   1  19
TORSDOF 4
ENDMDL
MODEL 8
REMARK VINA RESULT:      -6.1      6.784      8.319
REMARK  4 active torsions:
REMARK  status: ('A' for Active; 'I' for Inactive)
REMARK    1  A    between atoms: C2_2  and  C3_3 
REMARK    2  A    between atoms: C3_3  and  N1_4 
REMARK    3  A    between atoms: N1_4  and  O1_5 
REMARK    4  A    between atoms: N1_4  and  C4_6 
ROOT
HETATM    1  C4  UNL     1      29.094   9.352  48.801  1.00  0.00     0.054 C 
HETATM    2  C5  UNL     1      30.402   9.144  48.855  1.00  0.00     0.045 C 
HETATM    3  C6  UNL     1      31.001   7.812  48.852  1.00  0.00     0.029 A 
HETATM    4  C7  UNL     1      32.373   7.910  48.915  1.00  0.00     0.133 A 
HETATM    5  N2  UNL     1      33.095   6.754  48.921  1.00  0.00    -0.253 NA
HETATM    6  C8  UNL     1      32.487   5.542  48.868  1.00  0.00     0.234 A 
HETATM    7  N3  UNL     1      31.142   5.404  48.804  1.00  0.00    -0.224 NA
HETATM    8  C9  UNL     1      30.441   6.549  48.798  1.00  0.00     0.137 A 
HETATM    9  N4  UNL     1      29.014   6.329  48.730  1.00  0.00    -0.368 N 
HETATM   10  C10 UNL     1      27.994   7.176  48.208  1.00  0.00     0.101 C 
HETATM   11  C11 UNL     1      26.653   6.489  48.381  1.00  0.00     0.034 C 
HETATM   12  C12 UNL     1      27.869   8.545  48.729  1.00  0.00     0.062 C 
HETATM   13  C13 UNL     1      27.143   8.677  50.020  1.00  0.00    -0.008 C 
HETATM   14  C14 UNL     1      25.898   9.042  50.019  1.00  0.00    -0.025 C 
HETATM   15  C15 UNL     1      25.222   9.320  48.748  1.00  0.00     0.059 C 
HETATM   16  P1  UNL     1      26.699   9.491  47.624  1.00  0.00    -0.104 P 
HETATM   17  H12 UNL     1      28.718   5.392  49.137  1.00  0.00     0.161 HD
HETATM   18  H21 UNL     1      26.521   8.811  46.359  1.00  0.00     0.059 HD
ENDROOT
BRANCH   1  19
HETATM   19  N1  UNL     1      28.833  10.774  48.822  1.00  0.00    -0.264 N 
BRANCH  19  20
HETATM   20  C3  UNL     1      29.424  11.368  47.645  1.00  0.00     0.155 C 
BRANCH  20  21
HETATM   21  C2  UNL     1      30.004  12.718  48.044  1.00  0.00     0.018 C 
HETATM   22  C1  UNL     1      29.235  13.812  47.358  1.00  0.00     0.007 C 
ENDBRANCH  20  21
ENDBRANCH  19  20
BRANCH  19  23
HETATM   23  O1  UNL     1      28.162  11.515  49.737  1.00  0.00    -0.287 OA
HETATM   24  H8  UNL     1      28.140  10.987  50.575  1.00  0.00     0.244 HD
ENDBRANCH  19  23
ENDBRANCH   1  19
TORSDOF 4
ENDMDL
MODEL 9
REMARK VINA RESULT:      -5.9      2.972      4.166
REMARK  4 active torsions:
REMARK  status: ('A' for Active; 'I' for Inactive)
REMARK    1  A    between atoms: C2_2  and  C3_3 
REMARK    2  A    between atoms: C3_3  and  N1_4 
REMARK    3  A    between atoms: N1_4  and  O1_5 
REMARK    4  A    between atoms: N1_4  and  C4_6 
ROOT
HETATM    1  C4  UNL     1      22.771   2.368  51.067  1.00  0.00     0.054 C 
HETATM    2  C5  UNL     1      23.344   1.381  51.742  1.00  0.00     0.045 C 
HETATM    3  C6  UNL     1      22.689   0.678  52.841  1.00  0.00     0.029 A 
HETATM    4  C7  UNL     1      23.525  -0.294  53.345  1.00  0.00     0.133 A 
HETATM    5  N2  UNL     1      23.069  -1.050  54.383  1.00  0.00    -0.253 NA
HETATM    6  C8  UNL     1      21.832  -0.856  54.907  1.00  0.00     0.234 A 
HETATM    7  N3  UNL     1      20.982   0.087  54.439  1.00  0.00    -0.224 NA
HETATM    8  C9  UNL     1      21.441   0.826  53.417  1.00  0.00     0.137 A 
HETATM    9  N4  UNL     1      20.485   1.812  52.968  1.00  0.00    -0.368 N 
HETATM   10  C10 UNL     1      20.339   2.408  51.682  1.00  0.00     0.101 C 
HETATM   11  C11 UNL     1      19.188   3.394  51.729  1.00  0.00     0.034 C 
HETATM   12  C12 UNL     1      21.492   3.090  51.077  1.00  0.00     0.062 C 
HETATM   13  C13 UNL     1      21.739   4.476  51.552  1.00  0.00    -0.008 C 
HETATM   14  C14 UNL     1      21.337   5.480  50.835  1.00  0.00    -0.025 C 
HETATM   15  C15 UNL     1      20.645   5.235  49.565  1.00  0.00     0.059 C 
HETATM   16  P1  UNL     1      21.094   3.448  49.289  1.00  0.00    -0.104 P 
HETATM   17  H12 UNL     1      19.810   2.115  53.733  1.00  0.00     0.161 HD
HETATM   18  H21 UNL     1      19.970   2.652  48.842  1.00  0.00     0.059 HD
ENDROOT
BRANCH   1  19
HETATM   19  N1  UNL     1      23.681   2.845  50.050  1.00  0.00    -0.264 N 
BRANCH  19  20
HETATM   20  C3  UNL     1      24.843   3.408  50.698  1.00  0.00     0.155 C 
BRANCH  20  21
HETATM   21  C2  UNL     1      26.060   3.078  49.845  1.00  0.00     0.018 C 
HETATM   22  C1  UNL     1      26.643   4.350  49.297  1.00  0.00     0.007 C 
ENDBRANCH  20  21
ENDBRANCH  19  20
BRANCH  19  23
HETATM   23  O1  UNL     1      23.559   2.816  48.701  1.00  0.00    -0.287 OA
HETATM   24  H8  UNL     1      22.653   3.156  48.485  1.00  0.00     0.244 HD
ENDBRANCH  19  23
ENDBRANCH   1  19
TORSDOF 4
ENDMDL
