MODEL 1
REMARK VINA RESULT:      -7.6      0.000      0.000
REMARK  2 active torsions:
REMARK  status: ('A' for Active; 'I' for Inactive)
REMARK    1  A    between atoms: C2_2  and  C3_3 
REMARK    2  A    between atoms: C8_10  and  N3_11 
ROOT
HETATM    1  C3  UNL     1      25.747   0.205  53.086  1.00  0.00    -0.055 A 
HETATM    2  C4  UNL     1      24.562   0.685  52.709  1.00  0.00     0.025 A 
HETATM    3  C5  UNL     1      23.375   0.225  53.417  1.00  0.00     0.063 A 
HETATM    4  C6  UNL     1      23.408  -0.676  54.450  1.00  0.00     0.180 A 
HETATM    5  N1  UNL     1      22.265  -1.046  55.047  1.00  0.00    -0.217 NA
HETATM    6  C7  UNL     1      21.083  -0.516  54.612  1.00  0.00     0.238 A 
HETATM    7  N2  UNL     1      21.045   0.371  53.595  1.00  0.00    -0.224 NA
HETATM    8  C8  UNL     1      22.197   0.755  52.979  1.00  0.00     0.142 A 
HETATM    9  O1  UNL     1      24.665  -1.133  54.789  1.00  0.00    -0.329 OA
HETATM   10  C16 UNL     1      25.872  -0.769  54.190  1.00  0.00     0.211 A 
ENDROOT
BRANCH   8  11
HETATM   11  N3  UNL     1      21.982   1.698  51.917  1.00  0.00    -0.358 N 
HETATM   12  C9  UNL     1      21.985   3.127  52.260  1.00  0.00     0.153 C 
HETATM   13  C10 UNL     1      23.183   3.818  51.662  1.00  0.00     0.017 C 
HETATM   14  C11 UNL     1      23.597   3.739  50.385  1.00  0.00     0.032 C 
HETATM   15 CL1  UNL     1      25.045   4.661  49.949  1.00  0.00    -0.085 Cl
HETATM   16  C12 UNL     1      22.988   2.975  49.302  1.00  0.00     0.027 C 
HETATM   17  C13 UNL     1      22.253   1.889  49.485  1.00  0.00    -0.064 C 
HETATM   18  C14 UNL     1      21.797   1.374  48.165  1.00  0.00     0.045 C 
HETATM   19  C15 UNL     1      21.785   1.086  50.620  1.00  0.00     0.158 C 
ENDBRANCH   8  11
BRANCH   1  20
HETATM   20  C2  UNL     1      27.021   0.611  52.428  1.00  0.00     0.032 C 
HETATM   21  C1  UNL     1      26.775   1.781  51.498  1.00  0.00     0.010 C 
ENDBRANCH   1  20
TORSDOF 2
ENDMDL
MODEL 2
REMARK VINA RESULT:      -7.4      2.734      4.379
REMARK  2 active torsions:
REMARK  status: ('A' for Active; 'I' for Inactive)
REMARK    1  A    between atoms: C2_2  and  C3_3 
REMARK    2  A    between atoms: C8_10  and  N3_11 
ROOT
HETATM    1  C3  UNL     1      24.057  -0.343  53.751  1.00  0.00    -0.055 A 
HETATM    2  C4  UNL     1      24.641   0.571  52.977  1.00  0.00     0.025 A 
HETATM    3  C5  UNL     1      26.006   0.973  53.294  1.00  0.00     0.063 A 
HETATM    4  C6  UNL     1      26.722   0.462  54.346  1.00  0.00     0.180 A 
HETATM    5  N1  UNL     1      27.975   0.889  54.566  1.00  0.00    -0.217 NA
HETATM    6  C7  UNL     1      28.516   1.828  53.735  1.00  0.00     0.238 A 
HETATM    7  N2  UNL     1      27.814   2.333  52.698  1.00  0.00    -0.224 NA
HETATM    8  C8  UNL     1      26.542   1.911  52.463  1.00  0.00     0.142 A 
HETATM    9  O1  UNL     1      26.058  -0.479  55.106  1.00  0.00    -0.329 OA
HETATM   10  C16 UNL     1      24.758  -0.944  54.905  1.00  0.00     0.211 A 
ENDROOT
BRANCH   8  11
HETATM   11  N3  UNL     1      25.936   2.550  51.327  1.00  0.00    -0.358 N 
HETATM   12  C9  UNL     1      24.474   2.473  51.200  1.00  0.00     0.153 C 
HETATM   13  C10 UNL     1      23.848   3.830  51.390  1.00  0.00     0.017 C 
HETATM   14  C11 UNL     1      24.217   4.974  50.786  1.00  0.00     0.032 C 
HETATM   15 CL1  UNL     1      23.302   6.433  51.196  1.00  0.00    -0.085 Cl
HETATM   16  C12 UNL     1      25.294   5.156  49.819  1.00  0.00     0.027 C 
HETATM   17  C13 UNL     1      26.362   4.376  49.745  1.00  0.00    -0.064 C 
HETATM   18  C14 UNL     1      27.247   4.856  48.649  1.00  0.00     0.045 C 
HETATM   19  C15 UNL     1      26.882   3.196  50.443  1.00  0.00     0.158 C 
ENDBRANCH   8  11
BRANCH   1  20
HETATM   20  C2  UNL     1      22.666  -0.822  53.512  1.00  0.00     0.032 C 
HETATM   21  C1  UNL     1      22.094  -1.412  54.784  1.00  0.00     0.010 C 
ENDBRANCH   1  20
TORSDOF 2
ENDMDL
MODEL 3
REMARK VINA RESULT:      -7.1      1.606      3.509
REMARK  2 active torsions:
REMARK  status: ('A' for Active; 'I' for Inactive)
REMARK    1  A    between atoms: C2_2  and  C3_3 
REMARK    2  A    between atoms: C8_10  and  N3_11 
ROOT
HETATM    1  C3  UNL     1      20.567  -0.589  53.479  1.00  0.00    -0.055 A 
HETATM    2  C4  UNL     1      21.342   0.302  52.859  1.00  0.00     0.025 A 
HETATM    3  C5  UNL     1      22.774   0.273  53.123  1.00  0.00     0.063 A 
HETATM    4  C6  UNL     1      23.371  -0.620  53.975  1.00  0.00     0.180 A 
HETATM    5  N1  UNL     1      24.699  -0.577  54.160  1.00  0.00    -0.217 NA
HETATM    6  C7  UNL     1      25.436   0.361  53.495  1.00  0.00     0.238 A 
HETATM    7  N2  UNL     1      24.852   1.243  52.655  1.00  0.00    -0.224 NA
HETATM    8  C8  UNL     1      23.505   1.211  52.457  1.00  0.00     0.142 A 
HETATM    9  O1  UNL     1      22.513  -1.514  54.583  1.00  0.00    -0.329 OA
HETATM   10  C16 UNL     1      21.130  -1.587  54.412  1.00  0.00     0.211 A 
ENDROOT
BRANCH   8  11
HETATM   11  N3  UNL     1      23.045   2.217  51.540  1.00  0.00    -0.358 N 
HETATM   12  C9  UNL     1      22.898   3.588  52.048  1.00  0.00     0.153 C 
HETATM   13  C10 UNL     1      23.916   4.504  51.419  1.00  0.00     0.017 C 
HETATM   14  C11 UNL     1      24.187   4.618  50.106  1.00  0.00     0.032 C 
HETATM   15 CL1  UNL     1      25.439   5.780  49.641  1.00  0.00    -0.085 Cl
HETATM   16  C12 UNL     1      23.564   3.889  49.007  1.00  0.00     0.027 C 
HETATM   17  C13 UNL     1      23.007   2.694  49.133  1.00  0.00    -0.064 C 
HETATM   18  C14 UNL     1      22.475   2.256  47.814  1.00  0.00     0.045 C 
HETATM   19  C15 UNL     1      22.784   1.720  50.206  1.00  0.00     0.158 C 
ENDBRANCH   8  11
BRANCH   1  20
HETATM   20  C2  UNL     1      19.092  -0.644  53.278  1.00  0.00     0.032 C 
HETATM   21  C1  UNL     1      18.735  -0.113  51.905  1.00  0.00     0.010 C 
ENDBRANCH   1  20
TORSDOF 2
ENDMDL
MODEL 4
REMARK VINA RESULT:      -6.7      2.474      4.128
REMARK  2 active torsions:
REMARK  status: ('A' for Active; 'I' for Inactive)
REMARK    1  A    between atoms: C2_2  and  C3_3 
REMARK    2  A    between atoms: C8_10  and  N3_11 
ROOT
HETATM    1  C3  UNL     1      23.827  -0.252  53.777  1.00  0.00    -0.055 A 
HETATM    2  C4  UNL     1      24.325   0.804  53.132  1.00  0.00     0.025 A 
HETATM    3  C5  UNL     1      25.764   1.027  53.183  1.00  0.00     0.063 A 
HETATM    4  C6  UNL     1      26.635   0.211  53.858  1.00  0.00     0.180 A 
HETATM    5  N1  UNL     1      27.947   0.491  53.852  1.00  0.00    -0.217 NA
HETATM    6  C7  UNL     1      28.393   1.589  53.172  1.00  0.00     0.238 A 
HETATM    7  N2  UNL     1      27.539   2.395  52.507  1.00  0.00    -0.224 NA
HETATM    8  C8  UNL     1      26.204   2.124  52.504  1.00  0.00     0.142 A 
HETATM    9  O1  UNL     1      26.055  -0.862  54.502  1.00  0.00    -0.329 OA
HETATM   10  C16 UNL     1      24.696  -1.182  54.527  1.00  0.00     0.211 A 
ENDROOT
BRANCH   8  11
HETATM   11  N3  UNL     1      25.436   3.080  51.755  1.00  0.00    -0.358 N 
HETATM   12  C9  UNL     1      25.899   3.420  50.402  1.00  0.00     0.153 C 
HETATM   13  C10 UNL     1      24.935   2.908  49.363  1.00  0.00     0.017 C 
HETATM   14  C11 UNL     1      23.601   3.078  49.356  1.00  0.00     0.032 C 
HETATM   15 CL1  UNL     1      22.706   2.367  48.004  1.00  0.00    -0.085 Cl
HETATM   16  C12 UNL     1      22.794   3.788  50.341  1.00  0.00     0.027 C 
HETATM   17  C13 UNL     1      23.147   3.954  51.606  1.00  0.00    -0.064 C 
HETATM   18  C14 UNL     1      22.089   4.721  52.318  1.00  0.00     0.045 C 
HETATM   19  C15 UNL     1      24.280   3.588  52.463  1.00  0.00     0.158 C 
ENDBRANCH   8  11
BRANCH   1  20
HETATM   20  C2  UNL     1      22.371  -0.569  53.787  1.00  0.00     0.032 C 
HETATM   21  C1  UNL     1      21.582   0.596  53.227  1.00  0.00     0.010 C 
ENDBRANCH   1  20
TORSDOF 2
ENDMDL
MODEL 5
REMARK VINA RESULT:      -6.7      3.385      6.348
REMARK  2 active torsions:
REMARK  status: ('A' for Active; 'I' for Inactive)
REMARK    1  A    between atoms: C2_2  and  C3_3 
REMARK    2  A    between atoms: C8_10  and  N3_11 
ROOT
HETATM    1  C3  UNL     1      22.104   2.392  48.588  1.00  0.00    -0.055 A 
HETATM    2  C4  UNL     1      22.991   2.645  49.552  1.00  0.00     0.025 A 
HETATM    3  C5  UNL     1      23.749   3.887  49.483  1.00  0.00     0.063 A 
HETATM    4  C6  UNL     1      23.602   4.811  48.481  1.00  0.00     0.180 A 
HETATM    5  N1  UNL     1      24.342   5.930  48.495  1.00  0.00    -0.217 NA
HETATM    6  C7  UNL     1      25.233   6.129  49.511  1.00  0.00     0.238 A 
HETATM    7  N2  UNL     1      25.381   5.221  50.500  1.00  0.00    -0.224 NA
HETATM    8  C8  UNL     1      24.638   4.081  50.499  1.00  0.00     0.142 A 
HETATM    9  O1  UNL     1      22.669   4.488  47.517  1.00  0.00    -0.329 OA
HETATM   10  C16 UNL     1      21.883   3.336  47.473  1.00  0.00     0.211 A 
ENDROOT
BRANCH   8  11
HETATM   11  N3  UNL     1      24.920   3.221  51.615  1.00  0.00    -0.358 N 
HETATM   12  C9  UNL     1      24.082   3.361  52.814  1.00  0.00     0.153 C 
HETATM   13  C10 UNL     1      23.223   2.138  53.012  1.00  0.00     0.017 C 
HETATM   14  C11 UNL     1      23.636   0.859  52.991  1.00  0.00     0.032 C 
HETATM   15 CL1  UNL     1      22.408  -0.388  53.256  1.00  0.00    -0.085 Cl
HETATM   16  C12 UNL     1      24.993   0.370  52.775  1.00  0.00     0.027 C 
HETATM   17  C13 UNL     1      25.920   1.034  52.101  1.00  0.00    -0.064 C 
HETATM   18  C14 UNL     1      27.179   0.239  52.079  1.00  0.00     0.045 C 
HETATM   19  C15 UNL     1      26.025   2.313  51.392  1.00  0.00     0.158 C 
ENDBRANCH   8  11
BRANCH   1  20
HETATM   20  C2  UNL     1      21.279   1.152  48.566  1.00  0.00     0.032 C 
HETATM   21  C1  UNL     1      21.147   0.591  49.966  1.00  0.00     0.010 C 
ENDBRANCH   1  20
TORSDOF 2
ENDMDL
MODEL 6
REMARK VINA RESULT:      -6.5      2.254      3.800
REMARK  2 active torsions:
REMARK  status: ('A' for Active; 'I' for Inactive)
REMARK    1  A    between atoms: C2_2  and  C3_3 
REMARK    2  A    between atoms: C8_10  and  N3_11 
ROOT
HETATM    1  C3  UNL     1      22.792   0.008  53.074  1.00  0.00    -0.055 A 
HETATM    2  C4  UNL     1      22.989   1.032  52.243  1.00  0.00     0.025 A 
HETATM    3  C5  UNL     1      24.358   1.458  51.985  1.00  0.00     0.063 A 
HETATM    4  C6  UNL     1      25.457   0.863  52.550  1.00  0.00     0.180 A 
HETATM    5  N1  UNL     1      26.684   1.320  52.256  1.00  0.00    -0.217 NA
HETATM    6  C7  UNL     1      26.817   2.373  51.397  1.00  0.00     0.238 A 
HETATM    7  N2  UNL     1      25.738   2.962  50.839  1.00  0.00    -0.224 NA
HETATM    8  C8  UNL     1      24.486   2.510  51.128  1.00  0.00     0.142 A 
HETATM    9  O1  UNL     1      25.183  -0.190  53.399  1.00  0.00    -0.329 OA
HETATM   10  C16 UNL     1      23.921  -0.689  53.724  1.00  0.00     0.211 A 
ENDROOT
BRANCH   8  11
HETATM   11  N3  UNL     1      23.451   3.247  50.457  1.00  0.00    -0.358 N 
HETATM   12  C9  UNL     1      22.898   4.424  51.140  1.00  0.00     0.153 C 
HETATM   13  C10 UNL     1      23.274   5.691  50.415  1.00  0.00     0.017 C 
HETATM   14  C11 UNL     1      23.144   5.927  49.097  1.00  0.00     0.032 C 
HETATM   15 CL1  UNL     1      23.669   7.512  48.508  1.00  0.00    -0.085 Cl
HETATM   16  C12 UNL     1      22.615   5.021  48.084  1.00  0.00     0.027 C 
HETATM   17  C13 UNL     1      22.632   3.702  48.189  1.00  0.00    -0.064 C 
HETATM   18  C14 UNL     1      22.012   3.102  46.975  1.00  0.00     0.045 C 
HETATM   19  C15 UNL     1      23.090   2.706  49.163  1.00  0.00     0.158 C 
ENDBRANCH   8  11
BRANCH   1  20
HETATM   20  C2  UNL     1      21.433  -0.504  53.404  1.00  0.00     0.032 C 
HETATM   21  C1  UNL     1      21.508  -1.465  54.572  1.00  0.00     0.010 C 
ENDBRANCH   1  20
TORSDOF 2
ENDMDL
MODEL 7
REMARK VINA RESULT:      -6.5      3.304      5.991
REMARK  2 active torsions:
REMARK  status: ('A' for Active; 'I' for Inactive)
REMARK    1  A    between atoms: C2_2  and  C3_3 
REMARK    2  A    between atoms: C8_10  and  N3_11 
ROOT
HETATM    1  C3  UNL     1      24.138   5.493  49.805  1.00  0.00    -0.055 A 
HETATM    2  C4  UNL     1      23.840   4.336  50.397  1.00  0.00     0.025 A 
HETATM    3  C5  UNL     1      23.088   3.347  49.637  1.00  0.00     0.063 A 
HETATM    4  C6  UNL     1      22.668   3.539  48.346  1.00  0.00     0.180 A 
HETATM    5  N1  UNL     1      21.979   2.573  47.720  1.00  0.00    -0.217 NA
HETATM    6  C7  UNL     1      21.706   1.411  48.383  1.00  0.00     0.238 A 
HETATM    7  N2  UNL     1      22.117   1.217  49.654  1.00  0.00    -0.224 NA
HETATM    8  C8  UNL     1      22.817   2.188  50.303  1.00  0.00     0.142 A 
HETATM    9  O1  UNL     1      23.010   4.757  47.794  1.00  0.00    -0.329 OA
HETATM   10  C16 UNL     1      23.725   5.781  48.416  1.00  0.00     0.211 A 
ENDROOT
BRANCH   8  11
HETATM   11  N3  UNL     1      23.173   1.826  51.647  1.00  0.00    -0.358 N 
HETATM   12  C9  UNL     1      22.164   2.019  52.697  1.00  0.00     0.153 C 
HETATM   13  C10 UNL     1      21.687   0.693  53.232  1.00  0.00     0.017 C 
HETATM   14  C11 UNL     1      22.460  -0.330  53.639  1.00  0.00     0.032 C 
HETATM   15 CL1  UNL     1      21.632  -1.780  54.227  1.00  0.00    -0.085 Cl
HETATM   16  C12 UNL     1      23.918  -0.387  53.655  1.00  0.00     0.027 C 
HETATM   17  C13 UNL     1      24.694   0.323  52.851  1.00  0.00    -0.064 C 
HETATM   18  C14 UNL     1      26.121   0.014  53.144  1.00  0.00     0.045 C 
HETATM   19  C15 UNL     1      24.518   1.307  51.778  1.00  0.00     0.158 C 
ENDBRANCH   8  11
BRANCH   1  20
HETATM   20  C2  UNL     1      24.904   6.570  50.494  1.00  0.00     0.032 C 
HETATM   21  C1  UNL     1      23.985   7.724  50.835  1.00  0.00     0.010 C 
ENDBRANCH   1  20
TORSDOF 2
ENDMDL
MODEL 8
REMARK VINA RESULT:      -6.3      2.436      4.266
REMARK  2 active torsions:
REMARK  status: ('A' for Active; 'I' for Inactive)
REMARK    1  A    between atoms: C2_2  and  C3_3 
REMARK    2  A    between atoms: C8_10  and  N3_11 
ROOT
HETATM    1  C3  UNL     1      22.362   0.109  53.026  1.00  0.00    -0.055 A 
HETATM    2  C4  UNL     1      22.767   1.069  52.195  1.00  0.00     0.025 A 
HETATM    3  C5  UNL     1      24.196   1.332  52.089  1.00  0.00     0.063 A 
HETATM    4  C6  UNL     1      25.149   0.646  52.797  1.00  0.00     0.180 A 
HETATM    5  N1  UNL     1      26.445   0.953  52.638  1.00  0.00    -0.217 NA
HETATM    6  C7  UNL     1      26.794   1.949  51.770  1.00  0.00     0.238 A 
HETATM    7  N2  UNL     1      25.859   2.627  51.071  1.00  0.00    -0.224 NA
HETATM    8  C8  UNL     1      24.540   2.327  51.222  1.00  0.00     0.142 A 
HETATM    9  O1  UNL     1      24.663  -0.334  53.638  1.00  0.00    -0.329 OA
HETATM   10  C16 UNL     1      23.323  -0.679  53.826  1.00  0.00     0.211 A 
ENDROOT
BRANCH   8  11
HETATM   11  N3  UNL     1      23.679   3.143  50.412  1.00  0.00    -0.358 N 
HETATM   12  C9  UNL     1      23.360   2.666  49.059  1.00  0.00     0.153 C 
HETATM   13  C10 UNL     1      21.905   2.288  48.954  1.00  0.00     0.017 C 
HETATM   14  C11 UNL     1      20.855   3.031  49.346  1.00  0.00     0.032 C 
HETATM   15 CL1  UNL     1      19.243   2.339  49.102  1.00  0.00    -0.085 Cl
HETATM   16  C12 UNL     1      20.886   4.356  49.954  1.00  0.00     0.027 C 
HETATM   17  C13 UNL     1      21.909   4.827  50.650  1.00  0.00    -0.064 C 
HETATM   18  C14 UNL     1      21.595   6.204  51.119  1.00  0.00     0.045 C 
HETATM   19  C15 UNL     1      23.235   4.357  51.064  1.00  0.00     0.158 C 
ENDBRANCH   8  11
BRANCH   1  20
HETATM   20  C2  UNL     1      20.925  -0.239  53.207  1.00  0.00     0.032 C 
HETATM   21  C1  UNL     1      20.050   0.867  52.655  1.00  0.00     0.010 C 
ENDBRANCH   1  20
TORSDOF 2
ENDMDL
MODEL 9
REMARK VINA RESULT:      -6.3      1.846      2.452
REMARK  2 active torsions:
REMARK  status: ('A' for Active; 'I' for Inactive)
REMARK    1  A    between atoms: C2_2  and  C3_3 
REMARK    2  A    between atoms: C8_10  and  N3_11 
ROOT
HETATM    1  C3  UNL     1      25.844   2.510  50.973  1.00  0.00    -0.055 A 
HETATM    2  C4  UNL     1      24.527   2.403  51.150  1.00  0.00     0.025 A 
HETATM    3  C5  UNL     1      24.033   1.360  52.039  1.00  0.00     0.063 A 
HETATM    4  C6  UNL     1      24.848   0.480  52.704  1.00  0.00     0.180 A 
HETATM    5  N1  UNL     1      24.308  -0.451  53.505  1.00  0.00    -0.217 NA
HETATM    6  C7  UNL     1      22.950  -0.507  53.643  1.00  0.00     0.238 A 
HETATM    7  N2  UNL     1      22.143   0.357  52.989  1.00  0.00    -0.224 NA
HETATM    8  C8  UNL     1      22.677   1.307  52.173  1.00  0.00     0.142 A 
HETATM    9  O1  UNL     1      26.199   0.646  52.477  1.00  0.00    -0.329 OA
HETATM   10  C16 UNL     1      26.793   1.603  51.653  1.00  0.00     0.211 A 
ENDROOT
BRANCH   8  11
HETATM   11  N3  UNL     1      21.684   2.140  51.552  1.00  0.00    -0.358 N 
HETATM   12  C9  UNL     1      21.098   3.220  52.357  1.00  0.00     0.153 C 
HETATM   13  C10 UNL     1      21.520   4.568  51.831  1.00  0.00     0.017 C 
HETATM   14  C11 UNL     1      21.465   4.982  50.553  1.00  0.00     0.032 C 
HETATM   15 CL1  UNL     1      22.029   6.626  50.213  1.00  0.00    -0.085 Cl
HETATM   16  C12 UNL     1      20.990   4.228  49.398  1.00  0.00     0.027 C 
HETATM   17  C13 UNL     1      20.996   2.906  49.324  1.00  0.00    -0.064 C 
HETATM   18  C14 UNL     1      20.443   2.482  48.009  1.00  0.00     0.045 C 
HETATM   19  C15 UNL     1      21.394   1.783  50.179  1.00  0.00     0.158 C 
ENDBRANCH   8  11
BRANCH   1  20
HETATM   20  C2  UNL     1      26.451   3.542  50.086  1.00  0.00     0.032 C 
HETATM   21  C1  UNL     1      25.395   4.533  49.644  1.00  0.00     0.010 C 
ENDBRANCH   1  20
TORSDOF 2
ENDMDL
