MODEL 1
REMARK VINA RESULT:      -8.4      0.000      0.000
REMARK  3 active torsions:
REMARK  status: ('A' for Active; 'I' for Inactive)
REMARK    1  A    between atoms: O1_2  and  C2_3 
REMARK    2  A    between atoms: C7_8  and  O2_9 
REMARK    3  A    between atoms: N2_15  and  C11_16 
ROOT
HETATM    1  C2  UNL     1      27.274   0.927  53.141  1.00  0.00     0.102 A 
HETATM    2  C3  UNL     1      26.143   1.701  52.920  1.00  0.00     0.051 A 
HETATM    3  C4  UNL     1      24.863   1.211  53.136  1.00  0.00    -0.004 A 
HETATM    4  C5  UNL     1      24.694  -0.083  53.585  1.00  0.00     0.081 A 
HETATM    5  C6  UNL     1      25.837  -0.858  53.806  1.00  0.00     0.077 A 
HETATM    6  C7  UNL     1      27.112  -0.381  53.595  1.00  0.00     0.104 A 
HETATM    7  O3  UNL     1      23.518  -0.725  53.849  1.00  0.00    -0.334 OA
HETATM    8  C9  UNL     1      22.301  -0.191  54.291  1.00  0.00     0.221 A 
HETATM    9  C10 UNL     1      21.294  -1.249  54.564  1.00  0.00     0.150 A 
HETATM   10  N1  UNL     1      20.155  -1.337  53.964  1.00  0.00    -0.181 NA
HETATM   11  N2  UNL     1      19.766  -0.414  52.977  1.00  0.00    -0.244 N 
HETATM   12  C16 UNL     1      20.621   0.659  52.602  1.00  0.00     0.146 A 
HETATM   13  C17 UNL     1      21.781   0.717  53.239  1.00  0.00     0.058 A 
HETATM   14  N3  UNL     1      22.534   1.849  52.757  1.00  0.00    -0.385 N 
HETATM   15  C18 UNL     1      23.907   2.298  52.801  1.00  0.00     0.161 C 
HETATM   16  H16 UNL     1      21.918   2.537  52.230  1.00  0.00     0.159 HD
ENDROOT
BRANCH  11  17
HETATM   17  C11 UNL     1      18.502  -0.561  52.351  1.00  0.00     0.055 A 
HETATM   18  C12 UNL     1      18.128  -0.043  51.191  1.00  0.00     0.010 A 
HETATM   19  C13 UNL     1      16.722  -0.399  50.826  1.00  0.00     0.075 A 
HETATM   20  C14 UNL     1      16.343  -1.233  52.007  1.00  0.00    -0.006 A 
HETATM   21 BR1  UNL     1      14.583  -1.968  52.053  1.00  0.00    -0.055 Br
HETATM   22  C15 UNL     1      17.364  -1.313  52.859  1.00  0.00     0.046 A 
ENDBRANCH  11  17
BRANCH   6  23
HETATM   23  O2  UNL     1      28.264  -1.101  53.797  1.00  0.00    -0.353 OA
HETATM   24  C8  UNL     1      28.754  -2.148  53.017  1.00  0.00     0.210 C 
ENDBRANCH   6  23
BRANCH   1  25
HETATM   25  O1  UNL     1      28.547   1.443  52.916  1.00  0.00    -0.353 OA
HETATM   26  C1  UNL     1      29.027   2.436  53.796  1.00  0.00     0.210 C 
ENDBRANCH   1  25
TORSDOF 3
ENDMDL
MODEL 2
REMARK VINA RESULT:      -7.8      1.403      1.974
REMARK  3 active torsions:
REMARK  status: ('A' for Active; 'I' for Inactive)
REMARK    1  A    between atoms: O1_2  and  C2_3 
REMARK    2  A    between atoms: C7_8  and  O2_9 
REMARK    3  A    between atoms: N2_15  and  C11_16 
ROOT
HETATM    1  C2  UNL     1      26.071   2.079  51.736  1.00  0.00     0.102 A 
HETATM    2  C3  UNL     1      24.744   2.492  51.727  1.00  0.00     0.051 A 
HETATM    3  C4  UNL     1      23.734   1.726  52.289  1.00  0.00    -0.004 A 
HETATM    4  C5  UNL     1      24.040   0.517  52.879  1.00  0.00     0.081 A 
HETATM    5  C6  UNL     1      25.377   0.107  52.885  1.00  0.00     0.077 A 
HETATM    6  C7  UNL     1      26.389   0.859  52.330  1.00  0.00     0.104 A 
HETATM    7  O3  UNL     1      23.179  -0.359  53.476  1.00  0.00    -0.334 OA
HETATM    8  C9  UNL     1      21.979  -0.096  54.150  1.00  0.00     0.221 A 
HETATM    9  C10 UNL     1      21.398  -1.324  54.752  1.00  0.00     0.150 A 
HETATM   10  N1  UNL     1      20.233  -1.795  54.456  1.00  0.00    -0.181 NA
HETATM   11  N2  UNL     1      19.400  -1.166  53.515  1.00  0.00    -0.244 N 
HETATM   12  C16 UNL     1      19.814   0.021  52.850  1.00  0.00     0.146 A 
HETATM   13  C17 UNL     1      21.014   0.473  53.178  1.00  0.00     0.058 A 
HETATM   14  N3  UNL     1      21.294   1.675  52.430  1.00  0.00    -0.385 N 
HETATM   15  C18 UNL     1      22.457   2.465  52.099  1.00  0.00     0.161 C 
HETATM   16  H16 UNL     1      20.410   2.091  52.008  1.00  0.00     0.159 HD
ENDROOT
BRANCH  11  17
HETATM   17  C11 UNL     1      18.129  -1.729  53.228  1.00  0.00     0.055 A 
HETATM   18  C12 UNL     1      17.701  -2.933  53.572  1.00  0.00     0.010 A 
HETATM   19  C13 UNL     1      16.305  -3.205  53.108  1.00  0.00     0.075 A 
HETATM   20  C14 UNL     1      15.998  -1.913  52.420  1.00  0.00    -0.006 A 
HETATM   21 BR1  UNL     1      14.278  -1.717  51.618  1.00  0.00    -0.055 Br
HETATM   22  C15 UNL     1      17.042  -1.091  52.499  1.00  0.00     0.046 A 
ENDBRANCH  11  17
BRANCH   6  23
HETATM   23  O2  UNL     1      27.714   0.501  52.311  1.00  0.00    -0.353 OA
HETATM   24  C8  UNL     1      28.594   0.461  53.392  1.00  0.00     0.210 C 
ENDBRANCH   6  23
BRANCH   1  25
HETATM   25  O1  UNL     1      27.066   2.866  51.164  1.00  0.00    -0.353 OA
HETATM   26  C1  UNL     1      26.747   3.604  50.004  1.00  0.00     0.210 C 
ENDBRANCH   1  25
TORSDOF 3
ENDMDL
MODEL 3
REMARK VINA RESULT:      -7.8      5.611      8.084
REMARK  3 active torsions:
REMARK  status: ('A' for Active; 'I' for Inactive)
REMARK    1  A    between atoms: O1_2  and  C2_3 
REMARK    2  A    between atoms: C7_8  and  O2_9 
REMARK    3  A    between atoms: N2_15  and  C11_16 
ROOT
HETATM    1  C2  UNL     1      26.114   0.012  54.084  1.00  0.00     0.102 A 
HETATM    2  C3  UNL     1      25.068   0.686  53.467  1.00  0.00     0.051 A 
HETATM    3  C4  UNL     1      25.287   1.635  52.480  1.00  0.00    -0.004 A 
HETATM    4  C5  UNL     1      26.577   1.929  52.088  1.00  0.00     0.081 A 
HETATM    5  C6  UNL     1      27.626   1.248  52.712  1.00  0.00     0.077 A 
HETATM    6  C7  UNL     1      27.421   0.303  53.694  1.00  0.00     0.104 A 
HETATM    7  O3  UNL     1      26.974   2.829  51.140  1.00  0.00    -0.334 OA
HETATM    8  C9  UNL     1      26.305   3.242  49.981  1.00  0.00     0.221 A 
HETATM    9  C10 UNL     1      27.134   4.159  49.156  1.00  0.00     0.150 A 
HETATM   10  N1  UNL     1      26.796   5.368  48.855  1.00  0.00    -0.181 NA
HETATM   11  N2  UNL     1      25.585   5.928  49.296  1.00  0.00    -0.244 N 
HETATM   12  C16 UNL     1      24.681   5.176  50.096  1.00  0.00     0.146 A 
HETATM   13  C17 UNL     1      25.061   3.942  50.385  1.00  0.00     0.058 A 
HETATM   14  N3  UNL     1      24.050   3.306  51.195  1.00  0.00    -0.385 N 
HETATM   15  C18 UNL     1      23.958   2.146  52.051  1.00  0.00     0.161 C 
HETATM   16  H16 UNL     1      23.124   3.830  51.152  1.00  0.00     0.159 HD
ENDROOT
BRANCH  11  17
HETATM   17  C11 UNL     1      25.266   7.262  48.935  1.00  0.00     0.055 A 
HETATM   18  C12 UNL     1      24.075   7.727  48.593  1.00  0.00     0.010 A 
HETATM   19  C13 UNL     1      24.095   9.188  48.273  1.00  0.00     0.075 A 
HETATM   20  C14 UNL     1      25.541   9.489  48.496  1.00  0.00    -0.006 A 
HETATM   21 BR1  UNL     1      26.133  11.282  48.217  1.00  0.00    -0.055 Br
HETATM   22  C15 UNL     1      26.188   8.388  48.871  1.00  0.00     0.046 A 
ENDBRANCH  11  17
BRANCH   6  23
HETATM   23  O2  UNL     1      28.416  -0.393  54.336  1.00  0.00    -0.353 OA
HETATM   24  C8  UNL     1      29.582  -0.911  53.773  1.00  0.00     0.210 C 
ENDBRANCH   6  23
BRANCH   1  25
HETATM   25  O1  UNL     1      25.868  -0.936  55.072  1.00  0.00    -0.353 OA
HETATM   26  C1  UNL     1      24.528  -1.181  55.439  1.00  0.00     0.210 C 
ENDBRANCH   1  25
TORSDOF 3
ENDMDL
MODEL 4
REMARK VINA RESULT:      -7.7      6.619      9.573
REMARK  3 active torsions:
REMARK  status: ('A' for Active; 'I' for Inactive)
REMARK    1  A    between atoms: O1_2  and  C2_3 
REMARK    2  A    between atoms: C7_8  and  O2_9 
REMARK    3  A    between atoms: N2_15  and  C11_16 
ROOT
HETATM    1  C2  UNL     1      24.811   0.775  52.921  1.00  0.00     0.102 A 
HETATM    2  C3  UNL     1      24.190   1.944  52.498  1.00  0.00     0.051 A 
HETATM    3  C4  UNL     1      24.821   2.846  51.653  1.00  0.00    -0.004 A 
HETATM    4  C5  UNL     1      26.101   2.587  51.210  1.00  0.00     0.081 A 
HETATM    5  C6  UNL     1      26.720   1.409  51.639  1.00  0.00     0.077 A 
HETATM    6  C7  UNL     1      26.104   0.506  52.478  1.00  0.00     0.104 A 
HETATM    7  O3  UNL     1      26.867   3.357  50.382  1.00  0.00    -0.334 OA
HETATM    8  C9  UNL     1      26.463   4.220  49.356  1.00  0.00     0.221 A 
HETATM    9  C10 UNL     1      27.620   4.789  48.618  1.00  0.00     0.150 A 
HETATM   10  N1  UNL     1      27.875   6.051  48.532  1.00  0.00    -0.181 NA
HETATM   11  N2  UNL     1      27.056   7.014  49.148  1.00  0.00    -0.244 N 
HETATM   12  C16 UNL     1      25.908   6.628  49.892  1.00  0.00     0.146 A 
HETATM   13  C17 UNL     1      25.678   5.326  49.958  1.00  0.00     0.058 A 
HETATM   14  N3  UNL     1      24.489   5.088  50.739  1.00  0.00    -0.385 N 
HETATM   15  C18 UNL     1      23.875   3.968  51.414  1.00  0.00     0.161 C 
HETATM   16  H16 UNL     1      23.907   5.973  50.850  1.00  0.00     0.159 HD
ENDROOT
BRANCH  11  17
HETATM   17  C11 UNL     1      27.385   8.388  49.020  1.00  0.00     0.055 A 
HETATM   18  C12 UNL     1      26.540   9.407  49.009  1.00  0.00     0.010 A 
HETATM   19  C13 UNL     1      27.229  10.727  48.859  1.00  0.00     0.075 A 
HETATM   20  C14 UNL     1      28.653  10.277  48.785  1.00  0.00    -0.006 A 
HETATM   21 BR1  UNL     1      30.001  11.612  48.584  1.00  0.00    -0.055 Br
HETATM   22  C15 UNL     1      28.721   8.950  48.878  1.00  0.00     0.046 A 
ENDBRANCH  11  17
BRANCH   6  23
HETATM   23  O2  UNL     1      26.669  -0.663  52.926  1.00  0.00    -0.353 OA
HETATM   24  C8  UNL     1      28.008  -0.886  53.246  1.00  0.00     0.210 C 
ENDBRANCH   6  23
BRANCH   1  25
HETATM   25  O1  UNL     1      24.156  -0.112  53.769  1.00  0.00    -0.353 OA
HETATM   26  C1  UNL     1      22.960  -0.708  53.315  1.00  0.00     0.210 C 
ENDBRANCH   1  25
TORSDOF 3
ENDMDL
MODEL 5
REMARK VINA RESULT:      -7.7      6.259      8.471
REMARK  3 active torsions:
REMARK  status: ('A' for Active; 'I' for Inactive)
REMARK    1  A    between atoms: O1_2  and  C2_3 
REMARK    2  A    between atoms: C7_8  and  O2_9 
REMARK    3  A    between atoms: N2_15  and  C11_16 
ROOT
HETATM    1  C2  UNL     1      28.053   8.846  48.421  1.00  0.00     0.102 A 
HETATM    2  C3  UNL     1      28.247   7.475  48.319  1.00  0.00     0.051 A 
HETATM    3  C4  UNL     1      27.328   6.564  48.821  1.00  0.00    -0.004 A 
HETATM    4  C5  UNL     1      26.183   7.019  49.441  1.00  0.00     0.081 A 
HETATM    5  C6  UNL     1      25.993   8.401  49.540  1.00  0.00     0.077 A 
HETATM    6  C7  UNL     1      26.898   9.315  49.046  1.00  0.00     0.104 A 
HETATM    7  O3  UNL     1      25.180   6.271  49.987  1.00  0.00    -0.334 OA
HETATM    8  C9  UNL     1      24.724   5.000  49.616  1.00  0.00     0.221 A 
HETATM    9  C10 UNL     1      23.532   4.584  50.400  1.00  0.00     0.150 A 
HETATM   10  N1  UNL     1      23.489   3.536  51.152  1.00  0.00    -0.181 NA
HETATM   11  N2  UNL     1      24.597   2.681  51.292  1.00  0.00    -0.244 N 
HETATM   12  C16 UNL     1      25.814   2.943  50.604  1.00  0.00     0.146 A 
HETATM   13  C17 UNL     1      25.820   4.027  49.844  1.00  0.00     0.058 A 
HETATM   14  N3  UNL     1      27.111   4.161  49.214  1.00  0.00    -0.385 N 
HETATM   15  C18 UNL     1      27.854   5.202  48.540  1.00  0.00     0.161 C 
HETATM   16  H16 UNL     1      27.666   3.254  49.256  1.00  0.00     0.159 HD
ENDROOT
BRANCH  11  17
HETATM   17  C11 UNL     1      24.492   1.543  52.132  1.00  0.00     0.055 A 
HETATM   18  C12 UNL     1      25.450   0.673  52.410  1.00  0.00     0.010 A 
HETATM   19  C13 UNL     1      24.996  -0.411  53.335  1.00  0.00     0.075 A 
HETATM   20  C14 UNL     1      23.574  -0.002  53.546  1.00  0.00    -0.006 A 
HETATM   21 BR1  UNL     1      22.495  -1.084  54.690  1.00  0.00    -0.055 Br
HETATM   22  C15 UNL     1      23.307   1.106  52.858  1.00  0.00     0.046 A 
ENDBRANCH  11  17
BRANCH   6  23
HETATM   23  O2  UNL     1      26.757  10.679  49.118  1.00  0.00    -0.353 OA
HETATM   24  C8  UNL     1      26.012  11.497  48.269  1.00  0.00     0.210 C 
ENDBRANCH   6  23
BRANCH   1  25
HETATM   25  O1  UNL     1      28.990   9.739  47.910  1.00  0.00    -0.353 OA
HETATM   26  C1  UNL     1      30.239   9.836  48.559  1.00  0.00     0.210 C 
ENDBRANCH   1  25
TORSDOF 3
ENDMDL
MODEL 6
REMARK VINA RESULT:      -7.4      4.787      6.054
REMARK  3 active torsions:
REMARK  status: ('A' for Active; 'I' for Inactive)
REMARK    1  A    between atoms: O1_2  and  C2_3 
REMARK    2  A    between atoms: C7_8  and  O2_9 
REMARK    3  A    between atoms: N2_15  and  C11_16 
ROOT
HETATM    1  C2  UNL     1      26.800   0.062  53.882  1.00  0.00     0.102 A 
HETATM    2  C3  UNL     1      27.090   1.008  52.908  1.00  0.00     0.051 A 
HETATM    3  C4  UNL     1      26.093   1.676  52.212  1.00  0.00    -0.004 A 
HETATM    4  C5  UNL     1      24.769   1.403  52.486  1.00  0.00     0.081 A 
HETATM    5  C6  UNL     1      24.483   0.449  53.467  1.00  0.00     0.077 A 
HETATM    6  C7  UNL     1      25.465  -0.221  54.164  1.00  0.00     0.104 A 
HETATM    7  O3  UNL     1      23.666   1.960  51.903  1.00  0.00    -0.334 OA
HETATM    8  C9  UNL     1      23.507   3.243  51.364  1.00  0.00     0.221 A 
HETATM    9  C10 UNL     1      22.109   3.493  50.925  1.00  0.00     0.150 A 
HETATM   10  N1  UNL     1      21.771   3.778  49.712  1.00  0.00    -0.181 NA
HETATM   11  N2  UNL     1      22.724   3.878  48.684  1.00  0.00    -0.244 N 
HETATM   12  C16 UNL     1      24.106   3.667  48.944  1.00  0.00     0.146 A 
HETATM   13  C17 UNL     1      24.415   3.375  50.198  1.00  0.00     0.058 A 
HETATM   14  N3  UNL     1      25.841   3.190  50.310  1.00  0.00    -0.385 N 
HETATM   15  C18 UNL     1      26.759   2.603  51.259  1.00  0.00     0.161 C 
HETATM   16  H16 UNL     1      26.357   3.591  49.470  1.00  0.00     0.159 HD
ENDROOT
BRANCH  11  17
HETATM   17  C11 UNL     1      22.295   4.195  47.369  1.00  0.00     0.055 A 
HETATM   18  C12 UNL     1      21.818   3.351  46.467  1.00  0.00     0.010 A 
HETATM   19  C13 UNL     1      21.459   4.024  45.180  1.00  0.00     0.075 A 
HETATM   20  C14 UNL     1      21.821   5.436  45.508  1.00  0.00    -0.006 A 
HETATM   21 BR1  UNL     1      21.552   6.762  44.162  1.00  0.00    -0.055 Br
HETATM   22  C15 UNL     1      22.292   5.514  46.751  1.00  0.00     0.046 A 
ENDBRANCH  11  17
BRANCH   6  23
HETATM   23  O2  UNL     1      25.236  -1.164  55.136  1.00  0.00    -0.353 OA
HETATM   24  C8  UNL     1      24.022  -1.459  55.757  1.00  0.00     0.210 C 
ENDBRANCH   6  23
BRANCH   1  25
HETATM   25  O1  UNL     1      27.820  -0.594  54.565  1.00  0.00    -0.353 OA
HETATM   26  C1  UNL     1      29.152  -0.337  54.178  1.00  0.00     0.210 C 
ENDBRANCH   1  25
TORSDOF 3
ENDMDL
MODEL 7
REMARK VINA RESULT:      -7.2      4.138      9.023
REMARK  3 active torsions:
REMARK  status: ('A' for Active; 'I' for Inactive)
REMARK    1  A    between atoms: O1_2  and  C2_3 
REMARK    2  A    between atoms: C7_8  and  O2_9 
REMARK    3  A    between atoms: N2_15  and  C11_16 
ROOT
HETATM    1  C2  UNL     1      16.654  -0.809  51.546  1.00  0.00     0.102 A 
HETATM    2  C3  UNL     1      17.538  -1.184  52.549  1.00  0.00     0.051 A 
HETATM    3  C4  UNL     1      18.799  -0.617  52.666  1.00  0.00    -0.004 A 
HETATM    4  C5  UNL     1      19.200   0.349  51.767  1.00  0.00     0.081 A 
HETATM    5  C6  UNL     1      18.305   0.723  50.760  1.00  0.00     0.077 A 
HETATM    6  C7  UNL     1      17.051   0.167  50.633  1.00  0.00     0.104 A 
HETATM    7  O3  UNL     1      20.395   1.008  51.733  1.00  0.00    -0.334 OA
HETATM    8  C9  UNL     1      21.250   1.341  52.791  1.00  0.00     0.221 A 
HETATM    9  C10 UNL     1      22.404   2.161  52.338  1.00  0.00     0.150 A 
HETATM   10  N1  UNL     1      23.639   1.807  52.467  1.00  0.00    -0.181 NA
HETATM   11  N2  UNL     1      23.999   0.585  53.062  1.00  0.00    -0.244 N 
HETATM   12  C16 UNL     1      23.008  -0.313  53.546  1.00  0.00     0.146 A 
HETATM   13  C17 UNL     1      21.754   0.084  53.397  1.00  0.00     0.058 A 
HETATM   14  N3  UNL     1      20.867  -0.921  53.932  1.00  0.00    -0.385 N 
HETATM   15  C18 UNL     1      19.464  -1.249  53.836  1.00  0.00     0.161 C 
HETATM   16  H16 UNL     1      21.382  -1.602  54.567  1.00  0.00     0.159 HD
ENDROOT
BRANCH  11  17
HETATM   17  C11 UNL     1      25.373   0.248  53.176  1.00  0.00     0.055 A 
HETATM   18  C12 UNL     1      25.942  -0.890  52.811  1.00  0.00     0.010 A 
HETATM   19  C13 UNL     1      27.414  -0.911  53.074  1.00  0.00     0.075 A 
HETATM   20  C14 UNL     1      27.596   0.449  53.668  1.00  0.00    -0.006 A 
HETATM   21 BR1  UNL     1      29.356   0.960  54.202  1.00  0.00    -0.055 Br
HETATM   22  C15 UNL     1      26.430   1.089  53.717  1.00  0.00     0.046 A 
ENDBRANCH  11  17
BRANCH   6  23
HETATM   23  O2  UNL     1      16.138   0.500  49.663  1.00  0.00    -0.353 OA
HETATM   24  C8  UNL     1      16.208   1.565  48.766  1.00  0.00     0.210 C 
ENDBRANCH   6  23
BRANCH   1  25
HETATM   25  O1  UNL     1      15.394  -1.393  51.450  1.00  0.00    -0.353 OA
HETATM   26  C1  UNL     1      15.091  -2.464  52.317  1.00  0.00     0.210 C 
ENDBRANCH   1  25
TORSDOF 3
ENDMDL
MODEL 8
REMARK VINA RESULT:      -7.1      7.673     11.188
REMARK  3 active torsions:
REMARK  status: ('A' for Active; 'I' for Inactive)
REMARK    1  A    between atoms: O1_2  and  C2_3 
REMARK    2  A    between atoms: C7_8  and  O2_9 
REMARK    3  A    between atoms: N2_15  and  C11_16 
ROOT
HETATM    1  C2  UNL     1      24.136   2.477  51.372  1.00  0.00     0.102 A 
HETATM    2  C3  UNL     1      24.006   3.719  50.762  1.00  0.00     0.051 A 
HETATM    3  C4  UNL     1      25.082   4.359  50.165  1.00  0.00    -0.004 A 
HETATM    4  C5  UNL     1      26.323   3.757  50.168  1.00  0.00     0.081 A 
HETATM    5  C6  UNL     1      26.447   2.507  50.783  1.00  0.00     0.077 A 
HETATM    6  C7  UNL     1      25.386   1.862  51.379  1.00  0.00     0.104 A 
HETATM    7  O3  UNL     1      27.483   4.239  49.632  1.00  0.00    -0.334 OA
HETATM    8  C9  UNL     1      27.661   5.078  48.524  1.00  0.00     0.221 A 
HETATM    9  C10 UNL     1      29.098   5.278  48.203  1.00  0.00     0.150 A 
HETATM   10  N1  UNL     1      29.686   6.428  48.198  1.00  0.00    -0.181 NA
HETATM   11  N2  UNL     1      28.994   7.612  48.505  1.00  0.00    -0.244 N 
HETATM   12  C16 UNL     1      27.611   7.587  48.834  1.00  0.00     0.146 A 
HETATM   13  C17 UNL     1      27.043   6.391  48.830  1.00  0.00     0.058 A 
HETATM   14  N3  UNL     1      25.649   6.523  49.179  1.00  0.00    -0.385 N 
HETATM   15  C18 UNL     1      24.585   5.651  49.621  1.00  0.00     0.161 C 
HETATM   16  H16 UNL     1      25.313   7.528  49.087  1.00  0.00     0.159 HD
ENDROOT
BRANCH  11  17
HETATM   17  C11 UNL     1      29.692   8.848  48.484  1.00  0.00     0.055 A 
HETATM   18  C12 UNL     1      29.472   9.894  49.265  1.00  0.00     0.010 A 
HETATM   19  C13 UNL     1      30.395  11.035  48.973  1.00  0.00     0.075 A 
HETATM   20  C14 UNL     1      31.203  10.447  47.862  1.00  0.00    -0.006 A 
HETATM   21 BR1  UNL     1      32.578  11.524  47.092  1.00  0.00    -0.055 Br
HETATM   22  C15 UNL     1      30.791   9.209  47.600  1.00  0.00     0.046 A 
ENDBRANCH  11  17
BRANCH   6  23
HETATM   23  O2  UNL     1      25.457   0.636  51.994  1.00  0.00    -0.353 OA
HETATM   24  C8  UNL     1      26.568  -0.201  52.084  1.00  0.00     0.210 C 
ENDBRANCH   6  23
BRANCH   1  25
HETATM   25  O1  UNL     1      23.041   1.856  51.964  1.00  0.00    -0.353 OA
HETATM   26  C1  UNL     1      22.036   1.334  51.122  1.00  0.00     0.210 C 
ENDBRANCH   1  25
TORSDOF 3
ENDMDL
MODEL 9
REMARK VINA RESULT:      -7.0      5.248      7.300
REMARK  3 active torsions:
REMARK  status: ('A' for Active; 'I' for Inactive)
REMARK    1  A    between atoms: O1_2  and  C2_3 
REMARK    2  A    between atoms: C7_8  and  O2_9 
REMARK    3  A    between atoms: N2_15  and  C11_16 
ROOT
HETATM    1  C2  UNL     1      25.422   0.068  53.973  1.00  0.00     0.102 A 
HETATM    2  C3  UNL     1      24.461   0.298  52.997  1.00  0.00     0.051 A 
HETATM    3  C4  UNL     1      24.602   1.301  52.049  1.00  0.00    -0.004 A 
HETATM    4  C5  UNL     1      25.725   2.102  52.063  1.00  0.00     0.081 A 
HETATM    5  C6  UNL     1      26.690   1.866  53.047  1.00  0.00     0.077 A 
HETATM    6  C7  UNL     1      26.560   0.873  53.994  1.00  0.00     0.104 A 
HETATM    7  O3  UNL     1      26.026   3.128  51.213  1.00  0.00    -0.334 OA
HETATM    8  C9  UNL     1      25.669   3.294  49.869  1.00  0.00     0.221 A 
HETATM    9  C10 UNL     1      26.295   4.502  49.272  1.00  0.00     0.150 A 
HETATM   10  N1  UNL     1      25.631   5.489  48.771  1.00  0.00    -0.181 NA
HETATM   11  N2  UNL     1      24.225   5.500  48.751  1.00  0.00    -0.244 N 
HETATM   12  C16 UNL     1      23.478   4.414  49.286  1.00  0.00     0.146 A 
HETATM   13  C17 UNL     1      24.193   3.421  49.791  1.00  0.00     0.058 A 
HETATM   14  N3  UNL     1      23.306   2.399  50.291  1.00  0.00    -0.385 N 
HETATM   15  C18 UNL     1      23.399   1.260  51.175  1.00  0.00     0.161 C 
HETATM   16  H16 UNL     1      22.319   2.512  49.909  1.00  0.00     0.159 HD
ENDROOT
BRANCH  11  17
HETATM   17  C11 UNL     1      23.548   6.613  48.188  1.00  0.00     0.055 A 
HETATM   18  C12 UNL     1      22.903   6.645  47.033  1.00  0.00     0.010 A 
HETATM   19  C13 UNL     1      22.301   7.984  46.745  1.00  0.00     0.075 A 
HETATM   20  C14 UNL     1      22.723   8.733  47.967  1.00  0.00    -0.006 A 
HETATM   21 BR1  UNL     1      22.199  10.563  48.117  1.00  0.00    -0.055 Br
HETATM   22  C15 UNL     1      23.428   7.941  48.772  1.00  0.00     0.046 A 
ENDBRANCH  11  17
BRANCH   6  23
HETATM   23  O2  UNL     1      27.478   0.602  54.979  1.00  0.00    -0.353 OA
HETATM   24  C8  UNL     1      28.838   0.340  54.818  1.00  0.00     0.210 C 
ENDBRANCH   6  23
BRANCH   1  25
HETATM   25  O1  UNL     1      25.257  -0.944  54.912  1.00  0.00    -0.353 OA
HETATM   26  C1  UNL     1      23.949  -1.232  55.357  1.00  0.00     0.210 C 
ENDBRANCH   1  25
TORSDOF 3
ENDMDL
