MODEL 1
REMARK VINA RESULT:      -7.6      0.000      0.000
REMARK  7 active torsions:
REMARK  status: ('A' for Active; 'I' for Inactive)
REMARK    1  A    between atoms: C2_2  and  C3_3 
REMARK    2  A    between atoms: C3_3  and  C4_4 
REMARK    3  A    between atoms: C8_8  and  C9_9 
REMARK    4  A    between atoms: C9_9  and  N1_10 
REMARK    5  A    between atoms: N1_10  and  C10_11 
REMARK    6  A    between atoms: C13_14  and  C14_15 
REMARK    7  A    between atoms: C14_15  and  O1_17 
ROOT
HETATM    1  N1  UNL     1      25.328   2.857  53.591  1.00  0.00    -0.365 N 
HETATM    2  H10 UNL     1      25.876   3.545  54.172  1.00  0.00     0.162 HD
ENDROOT
BRANCH   1   3
HETATM    3  C9  UNL     1      24.071   3.122  52.903  1.00  0.00     0.178 C 
BRANCH   3   4
HETATM    4  C8  UNL     1      24.247   4.075  51.790  1.00  0.00     0.023 A 
HETATM    5  C7  UNL     1      23.471   5.055  51.351  1.00  0.00     0.006 A 
HETATM    6  C6  UNL     1      24.032   5.784  50.183  1.00  0.00     0.086 A 
HETATM    7  C5  UNL     1      25.324   5.032  50.004  1.00  0.00     0.013 A 
HETATM    8  C4  UNL     1      26.223   5.294  49.067  1.00  0.00     0.033 C 
HETATM    9  N2  UNL     1      25.436   4.004  50.982  1.00  0.00    -0.361 N 
HETATM   10  H20 UNL     1      26.263   3.355  51.041  1.00  0.00     0.165 HD
BRANCH   8  11
HETATM   11  C3  UNL     1      27.499   4.657  48.781  1.00  0.00     0.052 C 
BRANCH  11  12
HETATM   12  C2  UNL     1      28.511   5.385  48.331  1.00  0.00    -0.155 C 
HETATM   13  C1  UNL     1      29.325   6.318  47.861  1.00  0.00     0.096 C 
ENDBRANCH  11  12
ENDBRANCH   8  11
ENDBRANCH   3   4
ENDBRANCH   1   3
BRANCH   1  14
HETATM   14  C10 UNL     1      25.959   1.582  53.535  1.00  0.00     0.143 C 
HETATM   15  C11 UNL     1      27.272   1.559  53.349  1.00  0.00     0.057 C 
HETATM   16  C12 UNL     1      28.213   0.431  53.244  1.00  0.00     0.014 C 
HETATM   17  C13 UNL     1      27.840  -0.828  53.057  1.00  0.00    -0.028 C 
HETATM   18  C16 UNL     1      26.505  -1.418  52.914  1.00  0.00     0.034 C 
HETATM   19  C17 UNL     1      25.330  -0.850  53.190  1.00  0.00     0.145 C 
HETATM   20  O2  UNL     1      25.143   0.447  53.680  1.00  0.00    -0.306 OA
BRANCH  17  21
HETATM   21  C14 UNL     1      28.947  -1.820  52.979  1.00  0.00     0.147 C 
HETATM   22  C15 UNL     1      30.101  -1.467  53.869  1.00  0.00     0.044 C 
BRANCH  21  23
HETATM   23  O1  UNL     1      28.521  -3.088  53.303  1.00  0.00    -0.391 OA
HETATM   24  H17 UNL     1      28.562  -3.653  52.495  1.00  0.00     0.210 HD
ENDBRANCH  21  23
ENDBRANCH  17  21
ENDBRANCH   1  14
TORSDOF 7
ENDMDL
MODEL 2
REMARK VINA RESULT:      -7.4      2.923      6.831
REMARK  7 active torsions:
REMARK  status: ('A' for Active; 'I' for Inactive)
REMARK    1  A    between atoms: C2_2  and  C3_3 
REMARK    2  A    between atoms: C3_3  and  C4_4 
REMARK    3  A    between atoms: C8_8  and  C9_9 
REMARK    4  A    between atoms: C9_9  and  N1_10 
REMARK    5  A    between atoms: N1_10  and  C10_11 
REMARK    6  A    between atoms: C13_14  and  C14_15 
REMARK    7  A    between atoms: C14_15  and  O1_17 
ROOT
HETATM    1  N1  UNL     1      23.601   2.836  50.235  1.00  0.00    -0.365 N 
HETATM    2  H10 UNL     1      23.140   2.188  49.544  1.00  0.00     0.162 HD
ENDROOT
BRANCH   1   3
HETATM    3  C9  UNL     1      23.323   2.907  51.663  1.00  0.00     0.178 C 
BRANCH   3   4
HETATM    4  C8  UNL     1      23.599   1.625  52.340  1.00  0.00     0.023 A 
HETATM    5  C7  UNL     1      22.812   0.822  53.040  1.00  0.00     0.006 A 
HETATM    6  C6  UNL     1      23.502  -0.391  53.556  1.00  0.00     0.086 A 
HETATM    7  C5  UNL     1      24.887  -0.150  53.017  1.00  0.00     0.013 A 
HETATM    8  C4  UNL     1      25.917  -0.962  53.201  1.00  0.00     0.033 C 
HETATM    9  N2  UNL     1      24.927   1.070  52.286  1.00  0.00    -0.361 N 
HETATM   10  H20 UNL     1      25.799   1.434  51.822  1.00  0.00     0.165 HD
BRANCH   8  11
HETATM   11  C3  UNL     1      27.294  -0.857  52.743  1.00  0.00     0.052 C 
BRANCH  11  12
HETATM   12  C2  UNL     1      28.241  -0.477  53.589  1.00  0.00    -0.155 C 
HETATM   13  C1  UNL     1      29.046   0.151  54.433  1.00  0.00     0.096 C 
ENDBRANCH  11  12
ENDBRANCH   8  11
ENDBRANCH   3   4
ENDBRANCH   1   3
BRANCH   1  14
HETATM   14  C10 UNL     1      24.571   3.676  49.618  1.00  0.00     0.143 C 
HETATM   15  C11 UNL     1      25.841   3.305  49.703  1.00  0.00     0.057 C 
HETATM   16  C12 UNL     1      27.068   3.934  49.185  1.00  0.00     0.014 C 
HETATM   17  C13 UNL     1      27.127   5.181  48.738  1.00  0.00    -0.028 C 
HETATM   18  C16 UNL     1      26.087   6.210  48.635  1.00  0.00     0.034 C 
HETATM   19  C17 UNL     1      24.767   6.045  48.736  1.00  0.00     0.145 C 
HETATM   20  O2  UNL     1      24.109   4.832  48.967  1.00  0.00    -0.306 OA
BRANCH  17  21
HETATM   21  C14 UNL     1      28.463   5.628  48.257  1.00  0.00     0.147 C 
HETATM   22  C15 UNL     1      28.463   7.058  47.803  1.00  0.00     0.044 C 
BRANCH  21  23
HETATM   23  O1  UNL     1      29.432   5.480  49.224  1.00  0.00    -0.391 OA
HETATM   24  H17 UNL     1      29.001   5.191  50.063  1.00  0.00     0.210 HD
ENDBRANCH  21  23
ENDBRANCH  17  21
ENDBRANCH   1  14
TORSDOF 7
ENDMDL
MODEL 3
REMARK VINA RESULT:      -7.4      2.751      5.060
REMARK  7 active torsions:
REMARK  status: ('A' for Active; 'I' for Inactive)
REMARK    1  A    between atoms: C2_2  and  C3_3 
REMARK    2  A    between atoms: C3_3  and  C4_4 
REMARK    3  A    between atoms: C8_8  and  C9_9 
REMARK    4  A    between atoms: C9_9  and  N1_10 
REMARK    5  A    between atoms: N1_10  and  C10_11 
REMARK    6  A    between atoms: C13_14  and  C14_15 
REMARK    7  A    between atoms: C14_15  and  O1_17 
ROOT
HETATM    1  N1  UNL     1      24.838   3.076  53.405  1.00  0.00    -0.365 N 
HETATM    2  H10 UNL     1      24.793   3.517  54.361  1.00  0.00     0.162 HD
ENDROOT
BRANCH   1   3
HETATM    3  C9  UNL     1      24.244   3.607  52.185  1.00  0.00     0.178 C 
BRANCH   3   4
HETATM    4  C8  UNL     1      23.313   2.644  51.565  1.00  0.00     0.023 A 
HETATM    5  C7  UNL     1      23.129   2.300  50.299  1.00  0.00     0.006 A 
HETATM    6  C6  UNL     1      22.070   1.274  50.105  1.00  0.00     0.086 A 
HETATM    7  C5  UNL     1      21.645   1.068  51.535  1.00  0.00     0.013 A 
HETATM    8  C4  UNL     1      20.697   0.227  51.923  1.00  0.00     0.033 C 
HETATM    9  N2  UNL     1      22.405   1.902  52.401  1.00  0.00    -0.361 N 
HETATM   10  H20 UNL     1      22.272   1.919  53.446  1.00  0.00     0.165 HD
BRANCH   8  11
HETATM   11  C3  UNL     1      20.190  -0.071  53.253  1.00  0.00     0.052 C 
BRANCH  11  12
HETATM   12  C2  UNL     1      20.938  -0.760  54.103  1.00  0.00    -0.155 C 
HETATM   13  C1  UNL     1      21.871  -1.234  54.915  1.00  0.00     0.096 C 
ENDBRANCH  11  12
ENDBRANCH   8  11
ENDBRANCH   3   4
ENDBRANCH   1   3
BRANCH   1  14
HETATM   14  C10 UNL     1      25.571   1.856  53.411  1.00  0.00     0.143 C 
HETATM   15  C11 UNL     1      26.879   1.929  53.203  1.00  0.00     0.057 C 
HETATM   16  C12 UNL     1      27.908   0.877  53.147  1.00  0.00     0.014 C 
HETATM   17  C13 UNL     1      27.639  -0.417  53.041  1.00  0.00    -0.028 C 
HETATM   18  C16 UNL     1      26.355  -1.122  52.957  1.00  0.00     0.034 C 
HETATM   19  C17 UNL     1      25.141  -0.636  53.220  1.00  0.00     0.145 C 
HETATM   20  O2  UNL     1      24.854   0.668  53.637  1.00  0.00    -0.306 OA
BRANCH  17  21
HETATM   21  C14 UNL     1      28.822  -1.318  53.001  1.00  0.00     0.147 C 
HETATM   22  C15 UNL     1      29.975  -0.791  53.804  1.00  0.00     0.044 C 
BRANCH  21  23
HETATM   23  O1  UNL     1      28.519  -2.582  53.455  1.00  0.00    -0.391 OA
HETATM   24  H17 UNL     1      27.556  -2.746  53.317  1.00  0.00     0.210 HD
ENDBRANCH  21  23
ENDBRANCH  17  21
ENDBRANCH   1  14
TORSDOF 7
ENDMDL
MODEL 4
REMARK VINA RESULT:      -7.2      1.787      2.356
REMARK  7 active torsions:
REMARK  status: ('A' for Active; 'I' for Inactive)
REMARK    1  A    between atoms: C2_2  and  C3_3 
REMARK    2  A    between atoms: C3_3  and  C4_4 
REMARK    3  A    between atoms: C8_8  and  C9_9 
REMARK    4  A    between atoms: C9_9  and  N1_10 
REMARK    5  A    between atoms: N1_10  and  C10_11 
REMARK    6  A    between atoms: C13_14  and  C14_15 
REMARK    7  A    between atoms: C14_15  and  O1_17 
ROOT
HETATM    1  N1  UNL     1      24.438   1.670  53.123  1.00  0.00    -0.365 N 
HETATM    2  H10 UNL     1      24.446   2.612  53.595  1.00  0.00     0.162 HD
ENDROOT
BRANCH   1   3
HETATM    3  C9  UNL     1      23.320   1.084  52.395  1.00  0.00     0.178 C 
BRANCH   3   4
HETATM    4  C8  UNL     1      23.100   1.752  51.098  1.00  0.00     0.023 A 
HETATM    5  C7  UNL     1      22.291   1.457  50.091  1.00  0.00     0.006 A 
HETATM    6  C6  UNL     1      22.382   2.408  48.951  1.00  0.00     0.086 A 
HETATM    7  C5  UNL     1      23.429   3.351  49.484  1.00  0.00     0.013 A 
HETATM    8  C4  UNL     1      23.888   4.410  48.834  1.00  0.00     0.033 C 
HETATM    9  N2  UNL     1      23.850   2.939  50.780  1.00  0.00    -0.361 N 
HETATM   10  H20 UNL     1      24.577   3.456  51.339  1.00  0.00     0.165 HD
BRANCH   8  11
HETATM   11  C3  UNL     1      24.884   5.395  49.222  1.00  0.00     0.052 C 
BRANCH  11  12
HETATM   12  C2  UNL     1      26.173   5.111  49.100  1.00  0.00    -0.155 C 
HETATM   13  C1  UNL     1      27.370   4.648  48.775  1.00  0.00     0.096 C 
ENDBRANCH  11  12
ENDBRANCH   8  11
ENDBRANCH   3   4
ENDBRANCH   1   3
BRANCH   1  14
HETATM   14  C10 UNL     1      25.679   0.989  53.263  1.00  0.00     0.143 C 
HETATM   15  C11 UNL     1      25.852  -0.118  52.553  1.00  0.00     0.057 C 
HETATM   16  C12 UNL     1      26.995  -1.043  52.468  1.00  0.00     0.014 C 
HETATM   17  C13 UNL     1      28.002  -1.055  53.331  1.00  0.00    -0.028 C 
HETATM   18  C16 UNL     1      28.256  -0.229  54.515  1.00  0.00     0.034 C 
HETATM   19  C17 UNL     1      27.647   0.907  54.861  1.00  0.00     0.145 C 
HETATM   20  O2  UNL     1      26.627   1.540  54.142  1.00  0.00    -0.306 OA
BRANCH  17  21
HETATM   21  C14 UNL     1      29.060  -2.068  53.068  1.00  0.00     0.147 C 
HETATM   22  C15 UNL     1      30.318  -1.801  53.840  1.00  0.00     0.044 C 
BRANCH  21  23
HETATM   23  O1  UNL     1      28.632  -3.343  53.361  1.00  0.00    -0.391 OA
HETATM   24  H17 UNL     1      29.005  -3.965  52.693  1.00  0.00     0.210 HD
ENDBRANCH  21  23
ENDBRANCH  17  21
ENDBRANCH   1  14
TORSDOF 7
ENDMDL
MODEL 5
REMARK VINA RESULT:      -7.1      1.653      2.003
REMARK  7 active torsions:
REMARK  status: ('A' for Active; 'I' for Inactive)
REMARK    1  A    between atoms: C2_2  and  C3_3 
REMARK    2  A    between atoms: C3_3  and  C4_4 
REMARK    3  A    between atoms: C8_8  and  C9_9 
REMARK    4  A    between atoms: C9_9  and  N1_10 
REMARK    5  A    between atoms: N1_10  and  C10_11 
REMARK    6  A    between atoms: C13_14  and  C14_15 
REMARK    7  A    between atoms: C14_15  and  O1_17 
ROOT
HETATM    1  N1  UNL     1      23.228   0.807  52.808  1.00  0.00    -0.365 N 
HETATM    2  H10 UNL     1      22.603   0.626  53.637  1.00  0.00     0.162 HD
ENDROOT
BRANCH   1   3
HETATM    3  C9  UNL     1      22.804   1.293  51.502  1.00  0.00     0.178 C 
BRANCH   3   4
HETATM    4  C8  UNL     1      23.286   2.663  51.244  1.00  0.00     0.023 A 
HETATM    5  C7  UNL     1      22.791   3.841  51.593  1.00  0.00     0.006 A 
HETATM    6  C6  UNL     1      23.602   4.995  51.122  1.00  0.00     0.086 A 
HETATM    7  C5  UNL     1      24.704   4.261  50.404  1.00  0.00     0.013 A 
HETATM    8  C4  UNL     1      25.718   4.846  49.785  1.00  0.00     0.033 C 
HETATM    9  N2  UNL     1      24.496   2.856  50.489  1.00  0.00    -0.361 N 
HETATM   10  H20 UNL     1      25.148   2.151  50.055  1.00  0.00     0.165 HD
BRANCH   8  11
HETATM   11  C3  UNL     1      26.840   4.269  49.061  1.00  0.00     0.052 C 
BRANCH  11  12
HETATM   12  C2  UNL     1      27.806   5.055  48.610  1.00  0.00    -0.155 C 
HETATM   13  C1  UNL     1      28.942   5.628  48.242  1.00  0.00     0.096 C 
ENDBRANCH  11  12
ENDBRANCH   8  11
ENDBRANCH   3   4
ENDBRANCH   1   3
BRANCH   1  14
HETATM   14  C10 UNL     1      24.593   0.522  53.094  1.00  0.00     0.143 C 
HETATM   15  C11 UNL     1      25.369   1.540  53.439  1.00  0.00     0.057 C 
HETATM   16  C12 UNL     1      26.799   1.590  53.791  1.00  0.00     0.014 C 
HETATM   17  C13 UNL     1      27.651   0.599  53.564  1.00  0.00    -0.028 C 
HETATM   18  C16 UNL     1      27.445  -0.718  52.953  1.00  0.00     0.034 C 
HETATM   19  C17 UNL     1      26.284  -1.328  52.707  1.00  0.00     0.145 C 
HETATM   20  O2  UNL     1      25.014  -0.815  52.990  1.00  0.00    -0.306 OA
BRANCH  17  21
HETATM   21  C14 UNL     1      29.053   0.847  53.997  1.00  0.00     0.147 C 
HETATM   22  C15 UNL     1      29.981  -0.266  53.609  1.00  0.00     0.044 C 
BRANCH  21  23
HETATM   23  O1  UNL     1      29.547   2.024  53.481  1.00  0.00    -0.391 OA
HETATM   24  H17 UNL     1      28.817   2.501  53.021  1.00  0.00     0.210 HD
ENDBRANCH  21  23
ENDBRANCH  17  21
ENDBRANCH   1  14
TORSDOF 7
ENDMDL
MODEL 6
REMARK VINA RESULT:      -7.0      3.195      5.016
REMARK  7 active torsions:
REMARK  status: ('A' for Active; 'I' for Inactive)
REMARK    1  A    between atoms: C2_2  and  C3_3 
REMARK    2  A    between atoms: C3_3  and  C4_4 
REMARK    3  A    between atoms: C8_8  and  C9_9 
REMARK    4  A    between atoms: C9_9  and  N1_10 
REMARK    5  A    between atoms: N1_10  and  C10_11 
REMARK    6  A    between atoms: C13_14  and  C14_15 
REMARK    7  A    between atoms: C14_15  and  O1_17 
ROOT
HETATM    1  N1  UNL     1      26.063   2.758  52.052  1.00  0.00    -0.365 N 
HETATM    2  H10 UNL     1      26.626   3.161  52.847  1.00  0.00     0.162 HD
ENDROOT
BRANCH   1   3
HETATM    3  C9  UNL     1      26.475   2.690  50.656  1.00  0.00     0.178 C 
BRANCH   3   4
HETATM    4  C8  UNL     1      26.443   4.016  50.010  1.00  0.00     0.023 A 
HETATM    5  C7  UNL     1      27.109   4.496  48.970  1.00  0.00     0.006 A 
HETATM    6  C6  UNL     1      26.773   5.907  48.643  1.00  0.00     0.086 A 
HETATM    7  C5  UNL     1      25.754   6.186  49.715  1.00  0.00     0.013 A 
HETATM    8  C4  UNL     1      25.124   7.340  49.872  1.00  0.00     0.033 C 
HETATM    9  N2  UNL     1      25.568   5.034  50.531  1.00  0.00    -0.361 N 
HETATM   10  H20 UNL     1      24.899   5.007  51.343  1.00  0.00     0.165 HD
BRANCH   8  11
HETATM   11  C3  UNL     1      24.128   7.745  50.852  1.00  0.00     0.052 C 
BRANCH  11  12
HETATM   12  C2  UNL     1      22.848   7.474  50.639  1.00  0.00    -0.155 C 
HETATM   13  C1  UNL     1      21.526   7.447  50.568  1.00  0.00     0.096 C 
ENDBRANCH  11  12
ENDBRANCH   8  11
ENDBRANCH   3   4
ENDBRANCH   1   3
BRANCH   1  14
HETATM   14  C10 UNL     1      24.803   2.260  52.486  1.00  0.00     0.143 C 
HETATM   15  C11 UNL     1      24.768   1.023  52.962  1.00  0.00     0.057 C 
HETATM   16  C12 UNL     1      23.648   0.220  53.484  1.00  0.00     0.014 C 
HETATM   17  C13 UNL     1      22.371   0.537  53.320  1.00  0.00    -0.028 C 
HETATM   18  C16 UNL     1      21.750   1.675  52.634  1.00  0.00     0.034 C 
HETATM   19  C17 UNL     1      22.339   2.800  52.227  1.00  0.00     0.145 C 
HETATM   20  O2  UNL     1      23.693   3.116  52.378  1.00  0.00    -0.306 OA
BRANCH  17  21
HETATM   21  C14 UNL     1      21.392  -0.406  53.925  1.00  0.00     0.147 C 
HETATM   22  C15 UNL     1      22.054  -1.480  54.738  1.00  0.00     0.044 C 
BRANCH  21  23
HETATM   23  O1  UNL     1      20.481   0.245  54.726  1.00  0.00    -0.391 OA
HETATM   24  H17 UNL     1      19.756  -0.382  54.957  1.00  0.00     0.210 HD
ENDBRANCH  21  23
ENDBRANCH  17  21
ENDBRANCH   1  14
TORSDOF 7
ENDMDL
MODEL 7
REMARK VINA RESULT:      -7.0      2.637      3.270
REMARK  7 active torsions:
REMARK  status: ('A' for Active; 'I' for Inactive)
REMARK    1  A    between atoms: C2_2  and  C3_3 
REMARK    2  A    between atoms: C3_3  and  C4_4 
REMARK    3  A    between atoms: C8_8  and  C9_9 
REMARK    4  A    between atoms: C9_9  and  N1_10 
REMARK    5  A    between atoms: N1_10  and  C10_11 
REMARK    6  A    between atoms: C13_14  and  C14_15 
REMARK    7  A    between atoms: C14_15  and  O1_17 
ROOT
HETATM    1  N1  UNL     1      23.008   1.089  53.100  1.00  0.00    -0.365 N 
HETATM    2  H10 UNL     1      22.658   1.882  53.699  1.00  0.00     0.162 HD
ENDROOT
BRANCH   1   3
HETATM    3  C9  UNL     1      22.218   0.316  52.151  1.00  0.00     0.178 C 
BRANCH   3   4
HETATM    4  C8  UNL     1      22.098   1.004  50.851  1.00  0.00     0.023 A 
HETATM    5  C7  UNL     1      21.299   0.782  49.818  1.00  0.00     0.006 A 
HETATM    6  C6  UNL     1      21.509   1.723  48.686  1.00  0.00     0.086 A 
HETATM    7  C5  UNL     1      22.616   2.570  49.255  1.00  0.00     0.013 A 
HETATM    8  C4  UNL     1      23.185   3.586  48.624  1.00  0.00     0.033 C 
HETATM    9  N2  UNL     1      22.958   2.122  50.561  1.00  0.00    -0.361 N 
HETATM   10  H20 UNL     1      23.710   2.573  51.145  1.00  0.00     0.165 HD
BRANCH   8  11
HETATM   11  C3  UNL     1      24.251   4.481  49.048  1.00  0.00     0.052 C 
BRANCH  11  12
HETATM   12  C2  UNL     1      25.439   3.985  49.363  1.00  0.00    -0.155 C 
HETATM   13  C1  UNL     1      26.662   3.742  49.807  1.00  0.00     0.096 C 
ENDBRANCH  11  12
ENDBRANCH   8  11
ENDBRANCH   3   4
ENDBRANCH   1   3
BRANCH   1  14
HETATM   14  C10 UNL     1      24.392   0.829  53.310  1.00  0.00     0.143 C 
HETATM   15  C11 UNL     1      25.192   1.875  53.465  1.00  0.00     0.057 C 
HETATM   16  C12 UNL     1      26.645   1.955  53.694  1.00  0.00     0.014 C 
HETATM   17  C13 UNL     1      27.477   0.937  53.523  1.00  0.00    -0.028 C 
HETATM   18  C16 UNL     1      27.224  -0.443  53.095  1.00  0.00     0.034 C 
HETATM   19  C17 UNL     1      26.048  -1.068  53.017  1.00  0.00     0.145 C 
HETATM   20  O2  UNL     1      24.804  -0.514  53.336  1.00  0.00    -0.306 OA
BRANCH  17  21
HETATM   21  C14 UNL     1      28.909   1.223  53.809  1.00  0.00     0.147 C 
HETATM   22  C15 UNL     1      29.805   0.066  53.479  1.00  0.00     0.044 C 
BRANCH  21  23
HETATM   23  O1  UNL     1      29.357   2.329  53.123  1.00  0.00    -0.391 OA
HETATM   24  H17 UNL     1      30.344   2.322  53.120  1.00  0.00     0.210 HD
ENDBRANCH  21  23
ENDBRANCH  17  21
ENDBRANCH   1  14
TORSDOF 7
ENDMDL
MODEL 8
REMARK VINA RESULT:      -7.0      3.469      4.692
REMARK  7 active torsions:
REMARK  status: ('A' for Active; 'I' for Inactive)
REMARK    1  A    between atoms: C2_2  and  C3_3 
REMARK    2  A    between atoms: C3_3  and  C4_4 
REMARK    3  A    between atoms: C8_8  and  C9_9 
REMARK    4  A    between atoms: C9_9  and  N1_10 
REMARK    5  A    between atoms: N1_10  and  C10_11 
REMARK    6  A    between atoms: C13_14  and  C14_15 
REMARK    7  A    between atoms: C14_15  and  O1_17 
ROOT
HETATM    1  N1  UNL     1      23.271  -0.668  53.489  1.00  0.00    -0.365 N 
HETATM    2  H10 UNL     1      23.291  -1.714  53.364  1.00  0.00     0.162 HD
ENDROOT
BRANCH   1   3
HETATM    3  C9  UNL     1      22.098   0.138  53.803  1.00  0.00     0.178 C 
BRANCH   3   4
HETATM    4  C8  UNL     1      21.224   0.314  52.628  1.00  0.00     0.023 A 
HETATM    5  C7  UNL     1      19.920   0.139  52.477  1.00  0.00     0.006 A 
HETATM    6  C6  UNL     1      19.431   0.433  51.103  1.00  0.00     0.086 A 
HETATM    7  C5  UNL     1      20.727   0.827  50.446  1.00  0.00     0.013 A 
HETATM    8  C4  UNL     1      20.847   1.193  49.179  1.00  0.00     0.033 C 
HETATM    9  N2  UNL     1      21.798   0.749  51.381  1.00  0.00    -0.361 N 
HETATM   10  H20 UNL     1      22.795   0.982  51.133  1.00  0.00     0.165 HD
BRANCH   8  11
HETATM   11  C3  UNL     1      22.021   1.595  48.420  1.00  0.00     0.052 C 
BRANCH  11  12
HETATM   12  C2  UNL     1      22.760   2.611  48.842  1.00  0.00    -0.155 C 
HETATM   13  C1  UNL     1      23.688   3.526  49.075  1.00  0.00     0.096 C 
ENDBRANCH  11  12
ENDBRANCH   8  11
ENDBRANCH   3   4
ENDBRANCH   1   3
BRANCH   1  14
HETATM   14  C10 UNL     1      24.557  -0.084  53.318  1.00  0.00     0.143 C 
HETATM   15  C11 UNL     1      25.455  -0.297  54.271  1.00  0.00     0.057 C 
HETATM   16  C12 UNL     1      26.851   0.155  54.401  1.00  0.00     0.014 C 
HETATM   17  C13 UNL     1      27.390   1.115  53.661  1.00  0.00    -0.028 C 
HETATM   18  C16 UNL     1      26.812   1.935  52.592  1.00  0.00     0.034 C 
HETATM   19  C17 UNL     1      25.667   1.732  51.939  1.00  0.00     0.145 C 
HETATM   20  O2  UNL     1      24.778   0.673  52.155  1.00  0.00    -0.306 OA
BRANCH  17  21
HETATM   21  C14 UNL     1      28.817   1.422  53.949  1.00  0.00     0.147 C 
HETATM   22  C15 UNL     1      29.729   0.273  53.635  1.00  0.00     0.044 C 
BRANCH  21  23
HETATM   23  O1  UNL     1      29.254   2.526  53.251  1.00  0.00    -0.391 OA
HETATM   24  H17 UNL     1      29.022   2.412  52.299  1.00  0.00     0.210 HD
ENDBRANCH  21  23
ENDBRANCH  17  21
ENDBRANCH   1  14
TORSDOF 7
ENDMDL
MODEL 9
REMARK VINA RESULT:      -6.9      4.307      7.602
REMARK  7 active torsions:
REMARK  status: ('A' for Active; 'I' for Inactive)
REMARK    1  A    between atoms: C2_2  and  C3_3 
REMARK    2  A    between atoms: C3_3  and  C4_4 
REMARK    3  A    between atoms: C8_8  and  C9_9 
REMARK    4  A    between atoms: C9_9  and  N1_10 
REMARK    5  A    between atoms: N1_10  and  C10_11 
REMARK    6  A    between atoms: C13_14  and  C14_15 
REMARK    7  A    between atoms: C14_15  and  O1_17 
ROOT
HETATM    1  N1  UNL     1      29.159   6.519  48.956  1.00  0.00    -0.365 N 
HETATM    2  H10 UNL     1      29.108   7.108  49.828  1.00  0.00     0.162 HD
ENDROOT
BRANCH   1   3
HETATM    3  C9  UNL     1      28.055   6.229  48.049  1.00  0.00     0.178 C 
BRANCH   3   4
HETATM    4  C8  UNL     1      26.943   5.548  48.740  1.00  0.00     0.023 A 
HETATM    5  C7  UNL     1      25.632   5.723  48.664  1.00  0.00     0.006 A 
HETATM    6  C6  UNL     1      24.855   4.810  49.544  1.00  0.00     0.086 A 
HETATM    7  C5  UNL     1      25.983   4.037  50.176  1.00  0.00     0.013 A 
HETATM    8  C4  UNL     1      25.824   3.070  51.067  1.00  0.00     0.033 C 
HETATM    9  N2  UNL     1      27.234   4.496  49.679  1.00  0.00    -0.361 N 
HETATM   10  H20 UNL     1      28.158   4.094  49.987  1.00  0.00     0.165 HD
BRANCH   8  11
HETATM   11  C3  UNL     1      26.811   2.248  51.751  1.00  0.00     0.052 C 
BRANCH  11  12
HETATM   12  C2  UNL     1      26.642   0.936  51.816  1.00  0.00    -0.155 C 
HETATM   13  C1  UNL     1      26.700  -0.366  52.055  1.00  0.00     0.096 C 
ENDBRANCH  11  12
ENDBRANCH   8  11
ENDBRANCH   3   4
ENDBRANCH   1   3
BRANCH   1  14
HETATM   14  C10 UNL     1      30.467   6.007  48.730  1.00  0.00     0.143 C 
HETATM   15  C11 UNL     1      31.488   6.716  49.193  1.00  0.00     0.057 C 
HETATM   16  C12 UNL     1      32.939   6.475  49.131  1.00  0.00     0.014 C 
HETATM   17  C13 UNL     1      33.506   5.579  48.334  1.00  0.00    -0.028 C 
HETATM   18  C16 UNL     1      32.914   4.649  47.368  1.00  0.00     0.034 C 
HETATM   19  C17 UNL     1      31.629   4.311  47.246  1.00  0.00     0.145 C 
HETATM   20  O2  UNL     1      30.578   4.790  48.035  1.00  0.00    -0.306 OA
BRANCH  17  21
HETATM   21  C14 UNL     1      34.989   5.489  48.422  1.00  0.00     0.147 C 
HETATM   22  C15 UNL     1      35.638   6.828  48.612  1.00  0.00     0.044 C 
BRANCH  21  23
HETATM   23  O1  UNL     1      35.392   4.662  49.447  1.00  0.00    -0.391 OA
HETATM   24  H17 UNL     1      35.206   5.109  50.306  1.00  0.00     0.210 HD
ENDBRANCH  21  23
ENDBRANCH  17  21
ENDBRANCH   1  14
TORSDOF 7
ENDMDL
