MODEL 1
REMARK VINA RESULT:      -8.7      0.000      0.000
REMARK  3 active torsions:
REMARK  status: ('A' for Active; 'I' for Inactive)
REMARK    1  A    between atoms: N1_1  and  C1_2 
REMARK    2  A    between atoms: C4_6  and  N3_7 
REMARK    3  A    between atoms: N3_7  and  C5_8 
ROOT
HETATM    1  C1  UNL     1      25.541   2.237  52.998  1.00  0.00     0.722 A 
HETATM    2  N2  UNL     1      24.556   1.476  53.408  1.00  0.00    -0.067 NA
HETATM    3  C2  UNL     1      23.404   1.141  52.790  1.00  0.00     0.065 A 
HETATM    4  C3  UNL     1      23.354   1.750  51.531  1.00  0.00     0.026 A 
HETATM    5  C4  UNL     1      24.354   2.560  51.040  1.00  0.00     0.156 A 
HETATM    6  N4  UNL     1      25.426   2.778  51.796  1.00  0.00    -0.045 NA
HETATM    7  C11 UNL     1      22.374   1.792  50.384  1.00  0.00     0.076 C 
HETATM    8  C12 UNL     1      21.712   3.151  50.707  1.00  0.00    -0.012 C 
HETATM    9  C13 UNL     1      20.919   3.308  51.792  1.00  0.00     0.003 C 
HETATM   10  C14 UNL     1      20.413   2.222  52.636  1.00  0.00     0.030 C 
HETATM   11  S1  UNL     1      20.448   0.622  52.751  1.00  0.00    -0.200 SA
HETATM   12  C15 UNL     1      19.038   0.368  52.220  1.00  0.00     0.002 C 
HETATM   13  C16 UNL     1      18.983   0.556  50.886  1.00  0.00     0.019 C 
HETATM   14  C17 UNL     1      20.064   1.038  49.958  1.00  0.00     0.006 C 
HETATM   15  C18 UNL     1      21.253   0.885  50.515  1.00  0.00    -0.059 C 
HETATM   16  C19 UNL     1      21.336  -0.271  51.466  1.00  0.00     0.098 C 
HETATM   17  C20 UNL     1      21.302   0.345  54.094  1.00  0.00     0.069 C 
HETATM   18  C21 UNL     1      22.765   0.270  53.728  1.00  0.00     0.070 C 
ENDROOT
BRANCH   5  19
HETATM   19  N3  UNL     1      24.442   3.245  49.798  1.00  0.00    -0.340 N 
HETATM   20  H3  UNL     1      24.213   2.943  48.801  1.00  0.00     0.167 HD
BRANCH  19  21
HETATM   21  C5  UNL     1      24.933   4.602  49.873  1.00  0.00     0.035 A 
HETATM   22  C6  UNL     1      24.368   5.573  50.671  1.00  0.00     0.029 A 
HETATM   23  C7  UNL     1      24.836   6.866  50.739  1.00  0.00     0.004 A 
HETATM   24  C8  UNL     1      25.917   7.247  49.991  1.00  0.00     0.019 A 
HETATM   25  C9  UNL     1      26.514   6.308  49.178  1.00  0.00     0.013 A 
HETATM   26 BR1  UNL     1      28.019   6.852  48.142  1.00  0.00    -0.051 Br
HETATM   27  C10 UNL     1      26.028   5.033  49.131  1.00  0.00     0.048 A 
ENDBRANCH  19  21
ENDBRANCH   5  19
BRANCH   1  28
HETATM   28  N1  UNL     1      26.707   2.478  53.820  1.00  0.00    -0.231 N 
HETATM   29  H1  UNL     1      26.524   3.378  54.310  1.00  0.00     0.174 HD
HETATM   30  H2  UNL     1      27.538   1.847  53.874  1.00  0.00     0.174 HD
ENDBRANCH   1  28
TORSDOF 3
ENDMDL
MODEL 2
REMARK VINA RESULT:      -8.6      3.096      5.404
REMARK  3 active torsions:
REMARK  status: ('A' for Active; 'I' for Inactive)
REMARK    1  A    between atoms: N1_1  and  C1_2 
REMARK    2  A    between atoms: C4_6  and  N3_7 
REMARK    3  A    between atoms: N3_7  and  C5_8 
ROOT
HETATM    1  C1  UNL     1      22.010  -0.600  53.613  1.00  0.00     0.722 A 
HETATM    2  N2  UNL     1      21.377  -0.120  52.570  1.00  0.00    -0.067 NA
HETATM    3  C2  UNL     1      21.785   0.775  51.645  1.00  0.00     0.065 A 
HETATM    4  C3  UNL     1      23.091   1.188  51.935  1.00  0.00     0.026 A 
HETATM    5  C4  UNL     1      23.811   0.722  53.013  1.00  0.00     0.156 A 
HETATM    6  N4  UNL     1      23.242  -0.166  53.824  1.00  0.00    -0.045 NA
HETATM    7  C11 UNL     1      24.087   2.142  51.326  1.00  0.00     0.076 C 
HETATM    8  C12 UNL     1      23.846   3.345  52.267  1.00  0.00    -0.012 C 
HETATM    9  C13 UNL     1      22.690   4.047  52.230  1.00  0.00     0.003 C 
HETATM   10  C14 UNL     1      21.657   3.925  51.198  1.00  0.00     0.030 C 
HETATM   11  S1  UNL     1      21.351   3.131  49.837  1.00  0.00    -0.200 SA
HETATM   12  C15 UNL     1      21.647   4.285  48.880  1.00  0.00     0.002 C 
HETATM   13  C16 UNL     1      22.974   4.508  48.788  1.00  0.00     0.019 C 
HETATM   14  C17 UNL     1      24.095   3.845  49.540  1.00  0.00     0.006 C 
HETATM   15  C18 UNL     1      23.693   2.691  50.046  1.00  0.00    -0.059 C 
HETATM   16  C19 UNL     1      22.627   2.011  49.240  1.00  0.00     0.098 C 
HETATM   17  C20 UNL     1      20.115   2.163  50.218  1.00  0.00     0.069 C 
HETATM   18  C21 UNL     1      20.667   0.865  50.756  1.00  0.00     0.070 C 
ENDROOT
BRANCH   5  19
HETATM   19  N3  UNL     1      25.128   1.048  53.437  1.00  0.00    -0.340 N 
HETATM   20  H3  UNL     1      25.530   1.919  53.902  1.00  0.00     0.167 HD
BRANCH  19  21
HETATM   21  C5  UNL     1      26.124   0.028  53.201  1.00  0.00     0.035 A 
HETATM   22  C6  UNL     1      25.842  -1.194  52.632  1.00  0.00     0.029 A 
HETATM   23  C7  UNL     1      26.793  -2.165  52.412  1.00  0.00     0.004 A 
HETATM   24  C8  UNL     1      28.097  -1.944  52.760  1.00  0.00     0.019 A 
HETATM   25  C9  UNL     1      28.425  -0.734  53.333  1.00  0.00     0.013 A 
HETATM   26 BR1  UNL     1      30.246  -0.437  53.813  1.00  0.00    -0.051 Br
HETATM   27  C10 UNL     1      27.461   0.211  53.540  1.00  0.00     0.048 A 
ENDBRANCH  19  21
ENDBRANCH   5  19
BRANCH   1  28
HETATM   28  N1  UNL     1      21.393  -1.564  54.497  1.00  0.00    -0.231 N 
HETATM   29  H1  UNL     1      22.073  -1.711  55.271  1.00  0.00     0.174 HD
HETATM   30  H2  UNL     1      20.455  -1.996  54.345  1.00  0.00     0.174 HD
ENDBRANCH   1  28
TORSDOF 3
ENDMDL
MODEL 3
REMARK VINA RESULT:      -8.6      2.961      5.102
REMARK  3 active torsions:
REMARK  status: ('A' for Active; 'I' for Inactive)
REMARK    1  A    between atoms: N1_1  and  C1_2 
REMARK    2  A    between atoms: C4_6  and  N3_7 
REMARK    3  A    between atoms: N3_7  and  C5_8 
ROOT
HETATM    1  C1  UNL     1      26.690   4.289  49.609  1.00  0.00     0.722 A 
HETATM    2  N2  UNL     1      25.600   5.013  49.674  1.00  0.00    -0.067 NA
HETATM    3  C2  UNL     1      24.429   4.762  50.298  1.00  0.00     0.065 A 
HETATM    4  C3  UNL     1      24.496   3.520  50.940  1.00  0.00     0.026 A 
HETATM    5  C4  UNL     1      25.610   2.711  50.911  1.00  0.00     0.156 A 
HETATM    6  N4  UNL     1      26.682   3.126  50.241  1.00  0.00    -0.045 NA
HETATM    7  C11 UNL     1      23.562   2.677  51.772  1.00  0.00     0.076 C 
HETATM    8  C12 UNL     1      23.085   1.713  50.662  1.00  0.00    -0.012 C 
HETATM    9  C13 UNL     1      22.293   2.139  49.652  1.00  0.00     0.003 C 
HETATM   10  C14 UNL     1      21.620   3.440  49.593  1.00  0.00     0.030 C 
HETATM   11  S1  UNL     1      21.432   4.779  50.457  1.00  0.00    -0.200 SA
HETATM   12  C15 UNL     1      20.014   4.484  50.947  1.00  0.00     0.002 C 
HETATM   13  C16 UNL     1      20.021   3.529  51.899  1.00  0.00     0.019 C 
HETATM   14  C17 UNL     1      21.182   2.728  52.421  1.00  0.00     0.006 C 
HETATM   15  C18 UNL     1      22.324   3.332  52.140  1.00  0.00    -0.059 C 
HETATM   16  C19 UNL     1      22.223   4.826  52.072  1.00  0.00     0.098 C 
HETATM   17  C20 UNL     1      22.204   5.909  49.600  1.00  0.00     0.069 C 
HETATM   18  C21 UNL     1      23.652   5.934  50.028  1.00  0.00     0.070 C 
ENDROOT
BRANCH   5  19
HETATM   19  N3  UNL     1      25.824   1.436  51.501  1.00  0.00    -0.340 N 
HETATM   20  H3  UNL     1      25.281   0.521  51.433  1.00  0.00     0.167 HD
BRANCH  19  21
HETATM   21  C5  UNL     1      26.984   1.338  52.358  1.00  0.00     0.035 A 
HETATM   22  C6  UNL     1      27.502   2.402  53.063  1.00  0.00     0.029 A 
HETATM   23  C7  UNL     1      28.608   2.305  53.877  1.00  0.00     0.004 A 
HETATM   24  C8  UNL     1      29.256   1.108  54.021  1.00  0.00     0.019 A 
HETATM   25  C9  UNL     1      28.772   0.016  53.333  1.00  0.00     0.013 A 
HETATM   26 BR1  UNL     1      29.682  -1.646  53.542  1.00  0.00    -0.051 Br
HETATM   27  C10 UNL     1      27.672   0.141  52.533  1.00  0.00     0.048 A 
ENDBRANCH  19  21
ENDBRANCH   5  19
BRANCH   1  28
HETATM   28  N1  UNL     1      27.856   4.737  48.880  1.00  0.00    -0.231 N 
HETATM   29  H1  UNL     1      27.613   4.638  47.873  1.00  0.00     0.174 HD
HETATM   30  H2  UNL     1      28.738   5.080  49.320  1.00  0.00     0.174 HD
ENDBRANCH   1  28
TORSDOF 3
ENDMDL
MODEL 4
REMARK VINA RESULT:      -8.5      2.959      5.302
REMARK  3 active torsions:
REMARK  status: ('A' for Active; 'I' for Inactive)
REMARK    1  A    between atoms: N1_1  and  C1_2 
REMARK    2  A    between atoms: C4_6  and  N3_7 
REMARK    3  A    between atoms: N3_7  and  C5_8 
ROOT
HETATM    1  C1  UNL     1      21.987   1.578  52.492  1.00  0.00     0.722 A 
HETATM    2  N2  UNL     1      22.780   0.636  52.940  1.00  0.00    -0.067 NA
HETATM    3  C2  UNL     1      24.090   0.686  53.264  1.00  0.00     0.065 A 
HETATM    4  C3  UNL     1      24.575   1.982  53.054  1.00  0.00     0.026 A 
HETATM    5  C4  UNL     1      23.796   3.016  52.586  1.00  0.00     0.156 A 
HETATM    6  N4  UNL     1      22.515   2.779  52.319  1.00  0.00    -0.045 NA
HETATM    7  C11 UNL     1      25.904   2.680  53.204  1.00  0.00     0.076 C 
HETATM    8  C12 UNL     1      26.354   2.622  51.727  1.00  0.00    -0.012 C 
HETATM    9  C13 UNL     1      26.690   1.451  51.138  1.00  0.00     0.003 C 
HETATM   10  C14 UNL     1      26.891   0.178  51.837  1.00  0.00     0.030 C 
HETATM   11  S1  UNL     1      26.871  -0.440  53.318  1.00  0.00    -0.200 SA
HETATM   12  C15 UNL     1      28.387  -0.526  53.501  1.00  0.00     0.002 C 
HETATM   13  C16 UNL     1      28.918   0.696  53.709  1.00  0.00     0.019 C 
HETATM   14  C17 UNL     1      28.235   2.035  53.692  1.00  0.00     0.006 C 
HETATM   15  C18 UNL     1      26.931   1.891  53.852  1.00  0.00    -0.059 C 
HETATM   16  C19 UNL     1      26.546   0.697  54.674  1.00  0.00     0.098 C 
HETATM   17  C20 UNL     1      25.596  -1.431  53.312  1.00  0.00     0.069 C 
HETATM   18  C21 UNL     1      24.371  -0.644  53.713  1.00  0.00     0.070 C 
ENDROOT
BRANCH   5  19
HETATM   19  N3  UNL     1      24.144   4.369  52.319  1.00  0.00    -0.340 N 
HETATM   20  H3  UNL     1      24.720   5.076  52.871  1.00  0.00     0.167 HD
BRANCH  19  21
HETATM   21  C5  UNL     1      23.631   4.907  51.080  1.00  0.00     0.035 A 
HETATM   22  C6  UNL     1      24.019   4.457  49.837  1.00  0.00     0.029 A 
HETATM   23  C7  UNL     1      23.531   4.974  48.658  1.00  0.00     0.004 A 
HETATM   24  C8  UNL     1      22.611   5.986  48.678  1.00  0.00     0.019 A 
HETATM   25  C9  UNL     1      22.194   6.467  49.900  1.00  0.00     0.013 A 
HETATM   26 BR1  UNL     1      20.911   7.877  49.915  1.00  0.00    -0.051 Br
HETATM   27  C10 UNL     1      22.696   5.936  51.054  1.00  0.00     0.048 A 
ENDBRANCH  19  21
ENDBRANCH   5  19
BRANCH   1  28
HETATM   28  N1  UNL     1      20.594   1.322  52.199  1.00  0.00    -0.231 N 
HETATM   29  H1  UNL     1      20.554   0.339  51.861  1.00  0.00     0.174 HD
HETATM   30  H2  UNL     1      19.823   2.016  52.318  1.00  0.00     0.174 HD
ENDBRANCH   1  28
TORSDOF 3
ENDMDL
MODEL 5
REMARK VINA RESULT:      -8.5      3.938      7.019
REMARK  3 active torsions:
REMARK  status: ('A' for Active; 'I' for Inactive)
REMARK    1  A    between atoms: N1_1  and  C1_2 
REMARK    2  A    between atoms: C4_6  and  N3_7 
REMARK    3  A    between atoms: N3_7  and  C5_8 
ROOT
HETATM    1  C1  UNL     1      23.619   3.345  52.740  1.00  0.00     0.722 A 
HETATM    2  N2  UNL     1      24.911   3.194  52.577  1.00  0.00    -0.067 NA
HETATM    3  C2  UNL     1      25.657   2.068  52.566  1.00  0.00     0.065 A 
HETATM    4  C3  UNL     1      24.831   0.956  52.765  1.00  0.00     0.026 A 
HETATM    5  C4  UNL     1      23.468   1.046  52.941  1.00  0.00     0.156 A 
HETATM    6  N4  UNL     1      22.901   2.249  52.922  1.00  0.00    -0.045 NA
HETATM    7  C11 UNL     1      25.026  -0.536  52.866  1.00  0.00     0.076 C 
HETATM    8  C12 UNL     1      25.012  -0.657  54.407  1.00  0.00    -0.012 C 
HETATM    9  C13 UNL     1      26.021  -0.165  55.162  1.00  0.00     0.003 C 
HETATM   10  C14 UNL     1      27.307   0.314  54.648  1.00  0.00     0.030 C 
HETATM   11  S1  UNL     1      28.106   0.482  53.267  1.00  0.00    -0.200 SA
HETATM   12  C15 UNL     1      29.046  -0.709  53.452  1.00  0.00     0.002 C 
HETATM   13  C16 UNL     1      28.392  -1.874  53.264  1.00  0.00     0.019 C 
HETATM   14  C17 UNL     1      26.930  -2.101  52.999  1.00  0.00     0.006 C 
HETATM   15  C18 UNL     1      26.364  -0.992  52.552  1.00  0.00    -0.059 C 
HETATM   16  C19 UNL     1      27.290  -0.106  51.775  1.00  0.00     0.098 C 
HETATM   17  C20 UNL     1      28.207   2.081  53.064  1.00  0.00     0.069 C 
HETATM   18  C21 UNL     1      26.981   2.551  52.318  1.00  0.00     0.070 C 
ENDROOT
BRANCH   5  19
HETATM   19  N3  UNL     1      22.508   0.020  53.158  1.00  0.00    -0.340 N 
HETATM   20  H3  UNL     1      22.506  -0.825  53.808  1.00  0.00     0.167 HD
BRANCH  19  21
HETATM   21  C5  UNL     1      21.308   0.117  52.360  1.00  0.00     0.035 A 
HETATM   22  C6  UNL     1      21.281   0.639  51.085  1.00  0.00     0.029 A 
HETATM   23  C7  UNL     1      20.135   0.732  50.328  1.00  0.00     0.004 A 
HETATM   24  C8  UNL     1      18.940   0.294  50.831  1.00  0.00     0.019 A 
HETATM   25  C9  UNL     1      18.920  -0.236  52.103  1.00  0.00     0.013 A 
HETATM   26 BR1  UNL     1      17.249  -0.844  52.791  1.00  0.00    -0.051 Br
HETATM   27  C10 UNL     1      20.072  -0.316  52.831  1.00  0.00     0.048 A 
ENDBRANCH  19  21
ENDBRANCH   5  19
BRANCH   1  28
HETATM   28  N1  UNL     1      23.001   4.653  52.721  1.00  0.00    -0.231 N 
HETATM   29  H1  UNL     1      23.149   5.048  53.672  1.00  0.00     0.174 HD
HETATM   30  H2  UNL     1      22.516   5.070  51.895  1.00  0.00     0.174 HD
ENDBRANCH   1  28
TORSDOF 3
ENDMDL
MODEL 6
REMARK VINA RESULT:      -8.0      3.752      6.414
REMARK  3 active torsions:
REMARK  status: ('A' for Active; 'I' for Inactive)
REMARK    1  A    between atoms: N1_1  and  C1_2 
REMARK    2  A    between atoms: C4_6  and  N3_7 
REMARK    3  A    between atoms: N3_7  and  C5_8 
ROOT
HETATM    1  C1  UNL     1      27.906   5.313  48.612  1.00  0.00     0.722 A 
HETATM    2  N2  UNL     1      27.326   6.478  48.769  1.00  0.00    -0.067 NA
HETATM    3  C2  UNL     1      26.093   6.778  49.228  1.00  0.00     0.065 A 
HETATM    4  C3  UNL     1      25.416   5.597  49.558  1.00  0.00     0.026 A 
HETATM    5  C4  UNL     1      25.967   4.343  49.418  1.00  0.00     0.156 A 
HETATM    6  N4  UNL     1      27.207   4.241  48.946  1.00  0.00    -0.045 NA
HETATM    7  C11 UNL     1      24.051   5.243  50.095  1.00  0.00     0.076 C 
HETATM    8  C12 UNL     1      23.376   4.872  48.755  1.00  0.00    -0.012 C 
HETATM    9  C13 UNL     1      23.101   5.811  47.821  1.00  0.00     0.003 C 
HETATM   10  C14 UNL     1      23.185   7.260  48.026  1.00  0.00     0.030 C 
HETATM   11  S1  UNL     1      23.527   8.333  49.169  1.00  0.00    -0.200 SA
HETATM   12  C15 UNL     1      22.087   8.748  49.470  1.00  0.00     0.002 C 
HETATM   13  C16 UNL     1      21.444   7.787  50.164  1.00  0.00     0.019 C 
HETATM   14  C17 UNL     1      21.935   6.423  50.562  1.00  0.00     0.006 C 
HETATM   15  C18 UNL     1      23.256   6.376  50.517  1.00  0.00    -0.059 C 
HETATM   16  C19 UNL     1      23.922   7.690  50.802  1.00  0.00     0.098 C 
HETATM   17  C20 UNL     1      24.901   9.017  48.666  1.00  0.00     0.069 C 
HETATM   18  C21 UNL     1      26.063   8.208  49.190  1.00  0.00     0.070 C 
ENDROOT
BRANCH   5  19
HETATM   19  N3  UNL     1      25.409   3.067  49.700  1.00  0.00    -0.340 N 
HETATM   20  H3  UNL     1      24.870   2.377  49.092  1.00  0.00     0.167 HD
BRANCH  19  21
HETATM   21  C5  UNL     1      25.589   2.599  51.055  1.00  0.00     0.035 A 
HETATM   22  C6  UNL     1      24.555   2.158  51.852  1.00  0.00     0.029 A 
HETATM   23  C7  UNL     1      24.730   1.715  53.144  1.00  0.00     0.004 A 
HETATM   24  C8  UNL     1      25.979   1.695  53.703  1.00  0.00     0.019 A 
HETATM   25  C9  UNL     1      27.043   2.128  52.941  1.00  0.00     0.013 A 
HETATM   26 BR1  UNL     1      28.778   2.094  53.730  1.00  0.00    -0.051 Br
HETATM   27  C10 UNL     1      26.840   2.562  51.662  1.00  0.00     0.048 A 
ENDBRANCH  19  21
ENDBRANCH   5  19
BRANCH   1  28
HETATM   28  N1  UNL     1      29.253   5.199  48.098  1.00  0.00    -0.231 N 
HETATM   29  H1  UNL     1      29.332   5.922  47.353  1.00  0.00     0.174 HD
HETATM   30  H2  UNL     1      29.964   4.514  48.437  1.00  0.00     0.174 HD
ENDBRANCH   1  28
TORSDOF 3
ENDMDL
MODEL 7
REMARK VINA RESULT:      -7.7      7.920     11.397
REMARK  3 active torsions:
REMARK  status: ('A' for Active; 'I' for Inactive)
REMARK    1  A    between atoms: N1_1  and  C1_2 
REMARK    2  A    between atoms: C4_6  and  N3_7 
REMARK    3  A    between atoms: N3_7  and  C5_8 
ROOT
HETATM    1  C1  UNL     1      28.578   5.619  48.302  1.00  0.00     0.722 A 
HETATM    2  N2  UNL     1      28.297   6.701  47.619  1.00  0.00    -0.067 NA
HETATM    3  C2  UNL     1      29.106   7.700  47.205  1.00  0.00     0.065 A 
HETATM    4  C3  UNL     1      30.417   7.444  47.621  1.00  0.00     0.026 A 
HETATM    5  C4  UNL     1      30.780   6.327  48.341  1.00  0.00     0.156 A 
HETATM    6  N4  UNL     1      29.840   5.441  48.660  1.00  0.00    -0.045 NA
HETATM    7  C11 UNL     1      31.749   8.141  47.501  1.00  0.00     0.076 C 
HETATM    8  C12 UNL     1      31.781   8.801  48.898  1.00  0.00    -0.012 C 
HETATM    9  C13 UNL     1      30.937   9.808  49.221  1.00  0.00     0.003 C 
HETATM   10  C14 UNL     1      30.084  10.534  48.277  1.00  0.00     0.030 C 
HETATM   11  S1  UNL     1      29.737  10.592  46.711  1.00  0.00    -0.200 SA
HETATM   12  C15 UNL     1      30.531  11.859  46.393  1.00  0.00     0.002 C 
HETATM   13  C16 UNL     1      31.856  11.607  46.382  1.00  0.00     0.019 C 
HETATM   14  C17 UNL     1      32.575  10.329  46.712  1.00  0.00     0.006 C 
HETATM   15  C18 UNL     1      31.748   9.300  46.633  1.00  0.00    -0.059 C 
HETATM   16  C19 UNL     1      30.647   9.478  45.630  1.00  0.00     0.098 C 
HETATM   17  C20 UNL     1      28.210  10.070  46.629  1.00  0.00     0.069 C 
HETATM   18  C21 UNL     1      28.221   8.566  46.488  1.00  0.00     0.070 C 
ENDROOT
BRANCH   5  19
HETATM   19  N3  UNL     1      32.054   5.936  48.834  1.00  0.00    -0.340 N 
HETATM   20  H3  UNL     1      32.592   6.213  49.712  1.00  0.00     0.167 HD
BRANCH  19  21
HETATM   21  C5  UNL     1      32.774   4.993  48.010  1.00  0.00     0.035 A 
HETATM   22  C6  UNL     1      33.969   5.282  47.389  1.00  0.00     0.029 A 
HETATM   23  C7  UNL     1      34.652   4.382  46.602  1.00  0.00     0.004 A 
HETATM   24  C8  UNL     1      34.152   3.124  46.402  1.00  0.00     0.019 A 
HETATM   25  C9  UNL     1      32.958   2.791  47.004  1.00  0.00     0.013 A 
HETATM   26 BR1  UNL     1      32.272   1.036  46.718  1.00  0.00    -0.051 Br
HETATM   27  C10 UNL     1      32.303   3.705  47.779  1.00  0.00     0.048 A 
ENDBRANCH  19  21
ENDBRANCH   5  19
BRANCH   1  28
HETATM   28  N1  UNL     1      27.557   4.655  48.652  1.00  0.00    -0.231 N 
HETATM   29  H1  UNL     1      27.328   4.155  47.769  1.00  0.00     0.174 HD
HETATM   30  H2  UNL     1      27.163   4.527  49.611  1.00  0.00     0.174 HD
ENDBRANCH   1  28
TORSDOF 3
ENDMDL
MODEL 8
REMARK VINA RESULT:      -7.5      3.678      7.106
REMARK  3 active torsions:
REMARK  status: ('A' for Active; 'I' for Inactive)
REMARK    1  A    between atoms: N1_1  and  C1_2 
REMARK    2  A    between atoms: C4_6  and  N3_7 
REMARK    3  A    between atoms: N3_7  and  C5_8 
ROOT
HETATM    1  C1  UNL     1      22.466   2.948  49.096  1.00  0.00     0.722 A 
HETATM    2  N2  UNL     1      22.588   3.966  48.279  1.00  0.00    -0.067 NA
HETATM    3  C2  UNL     1      23.354   5.074  48.383  1.00  0.00     0.065 A 
HETATM    4  C3  UNL     1      24.086   5.027  49.575  1.00  0.00     0.026 A 
HETATM    5  C4  UNL     1      24.005   3.988  50.475  1.00  0.00     0.156 A 
HETATM    6  N4  UNL     1      23.190   2.972  50.203  1.00  0.00    -0.045 NA
HETATM    7  C11 UNL     1      25.082   5.921  50.271  1.00  0.00     0.076 C 
HETATM    8  C12 UNL     1      24.115   6.594  51.272  1.00  0.00    -0.012 C 
HETATM    9  C13 UNL     1      23.164   7.462  50.857  1.00  0.00     0.003 C 
HETATM   10  C14 UNL     1      23.070   8.037  49.512  1.00  0.00     0.030 C 
HETATM   11  S1  UNL     1      23.835   8.022  48.101  1.00  0.00    -0.200 SA
HETATM   12  C15 UNL     1      24.498   9.393  48.237  1.00  0.00     0.002 C 
HETATM   13  C16 UNL     1      25.520   9.349  49.115  1.00  0.00     0.019 C 
HETATM   14  C17 UNL     1      25.979   8.200  49.971  1.00  0.00     0.006 C 
HETATM   15  C18 UNL     1      25.526   7.055  49.488  1.00  0.00    -0.059 C 
HETATM   16  C19 UNL     1      25.345   7.050  48.000  1.00  0.00     0.098 C 
HETATM   17  C20 UNL     1      22.808   7.270  47.107  1.00  0.00     0.069 C 
HETATM   18  C21 UNL     1      23.072   5.785  47.173  1.00  0.00     0.070 C 
ENDROOT
BRANCH   5  19
HETATM   19  N3  UNL     1      24.673   3.805  51.716  1.00  0.00    -0.340 N 
HETATM   20  H3  UNL     1      24.964   4.494  52.475  1.00  0.00     0.167 HD
BRANCH  19  21
HETATM   21  C5  UNL     1      25.039   2.442  52.026  1.00  0.00     0.035 A 
HETATM   22  C6  UNL     1      26.218   1.858  51.616  1.00  0.00     0.029 A 
HETATM   23  C7  UNL     1      26.563   0.558  51.911  1.00  0.00     0.004 A 
HETATM   24  C8  UNL     1      25.719  -0.228  52.647  1.00  0.00     0.019 A 
HETATM   25  C9  UNL     1      24.529   0.315  53.079  1.00  0.00     0.013 A 
HETATM   26 BR1  UNL     1      23.363  -0.790  54.105  1.00  0.00    -0.051 Br
HETATM   27  C10 UNL     1      24.212   1.607  52.771  1.00  0.00     0.048 A 
ENDBRANCH  19  21
ENDBRANCH   5  19
BRANCH   1  28
HETATM   28  N1  UNL     1      21.580   1.843  48.804  1.00  0.00    -0.231 N 
HETATM   29  H1  UNL     1      20.948   2.182  48.049  1.00  0.00     0.174 HD
HETATM   30  H2  UNL     1      21.608   0.915  49.281  1.00  0.00     0.174 HD
ENDBRANCH   1  28
TORSDOF 3
ENDMDL
MODEL 9
REMARK VINA RESULT:      -7.4      3.516      5.428
REMARK  3 active torsions:
REMARK  status: ('A' for Active; 'I' for Inactive)
REMARK    1  A    between atoms: N1_1  and  C1_2 
REMARK    2  A    between atoms: C4_6  and  N3_7 
REMARK    3  A    between atoms: N3_7  and  C5_8 
ROOT
HETATM    1  C1  UNL     1      25.084   6.778  50.557  1.00  0.00     0.722 A 
HETATM    2  N2  UNL     1      23.836   7.175  50.593  1.00  0.00    -0.067 NA
HETATM    3  C2  UNL     1      22.703   6.501  50.301  1.00  0.00     0.065 A 
HETATM    4  C3  UNL     1      23.022   5.194  49.914  1.00  0.00     0.026 A 
HETATM    5  C4  UNL     1      24.312   4.715  49.855  1.00  0.00     0.156 A 
HETATM    6  N4  UNL     1      25.311   5.530  50.183  1.00  0.00    -0.045 NA
HETATM    7  C11 UNL     1      22.252   3.977  49.467  1.00  0.00     0.076 C 
HETATM    8  C12 UNL     1      22.458   4.132  47.943  1.00  0.00    -0.012 C 
HETATM    9  C13 UNL     1      21.870   5.135  47.251  1.00  0.00     0.003 C 
HETATM   10  C14 UNL     1      20.830   6.027  47.771  1.00  0.00     0.030 C 
HETATM   11  S1  UNL     1      19.963   6.280  49.097  1.00  0.00    -0.200 SA
HETATM   12  C15 UNL     1      18.660   5.666  48.586  1.00  0.00     0.002 C 
HETATM   13  C16 UNL     1      18.742   4.320  48.552  1.00  0.00     0.019 C 
HETATM   14  C17 UNL     1      19.922   3.440  48.858  1.00  0.00     0.006 C 
HETATM   15  C18 UNL     1      20.814   4.097  49.580  1.00  0.00    -0.059 C 
HETATM   16  C19 UNL     1      20.221   5.148  50.471  1.00  0.00     0.098 C 
HETATM   17  C20 UNL     1      20.494   7.703  49.647  1.00  0.00     0.069 C 
HETATM   18  C21 UNL     1      21.672   7.458  50.561  1.00  0.00     0.070 C 
ENDROOT
BRANCH   5  19
HETATM   19  N3  UNL     1      24.788   3.429  49.479  1.00  0.00    -0.340 N 
HETATM   20  H3  UNL     1      24.884   2.957  48.528  1.00  0.00     0.167 HD
BRANCH  19  21
HETATM   21  C5  UNL     1      25.226   2.588  50.569  1.00  0.00     0.035 A 
HETATM   22  C6  UNL     1      26.544   2.460  50.950  1.00  0.00     0.029 A 
HETATM   23  C7  UNL     1      26.959   1.656  51.987  1.00  0.00     0.004 A 
HETATM   24  C8  UNL     1      26.046   0.930  52.704  1.00  0.00     0.019 A 
HETATM   25  C9  UNL     1      24.716   1.027  52.357  1.00  0.00     0.013 A 
HETATM   26 BR1  UNL     1      23.454   0.012  53.363  1.00  0.00    -0.051 Br
HETATM   27  C10 UNL     1      24.333   1.833  51.323  1.00  0.00     0.048 A 
ENDBRANCH  19  21
ENDBRANCH   5  19
BRANCH   1  28
HETATM   28  N1  UNL     1      26.172   7.663  50.911  1.00  0.00    -0.231 N 
HETATM   29  H1  UNL     1      26.610   7.945  50.010  1.00  0.00     0.174 HD
HETATM   30  H2  UNL     1      26.427   7.933  51.887  1.00  0.00     0.174 HD
ENDBRANCH   1  28
TORSDOF 3
ENDMDL
