MODEL 1
REMARK VINA RESULT:      -8.0      0.000      0.000
REMARK  3 active torsions:
REMARK  status: ('A' for Active; 'I' for Inactive)
REMARK    1  A    between atoms: O1_2  and  C2_3 
REMARK    2  A    between atoms: C6_9  and  N3_10 
REMARK    3  A    between atoms: C17_22  and  O2_23 
ROOT
HETATM    1  C2  UNL     1      26.165  -0.351  53.523  1.00  0.00     0.103 A 
HETATM    2  C3  UNL     1      25.143  -0.882  54.270  1.00  0.00     0.072 A 
HETATM    3  C4  UNL     1      23.840  -0.478  54.084  1.00  0.00     0.075 A 
HETATM    4  N1  UNL     1      22.876  -1.050  54.857  1.00  0.00    -0.241 NA
HETATM    5  C5  UNL     1      21.578  -0.687  54.710  1.00  0.00     0.236 A 
HETATM    6  N2  UNL     1      21.215   0.255  53.787  1.00  0.00    -0.223 NA
HETATM    7  C6  UNL     1      22.153   0.811  53.037  1.00  0.00     0.147 A 
HETATM    8  C15 UNL     1      23.489   0.492  53.130  1.00  0.00     0.042 A 
HETATM    9  C16 UNL     1      24.521   1.032  52.374  1.00  0.00     0.057 A 
HETATM   10  C17 UNL     1      25.809   0.589  52.603  1.00  0.00     0.102 A 
ENDROOT
BRANCH   7  11
HETATM   11  N3  UNL     1      21.961   1.793  52.031  1.00  0.00    -0.315 N 
HETATM   12  C7  UNL     1      21.301   1.073  50.950  1.00  0.00     0.106 C 
HETATM   13  C8  UNL     1      21.403   0.818  49.650  1.00  0.00    -0.029 C 
HETATM   14  C9  UNL     1      22.094   1.757  48.968  1.00  0.00     0.031 A 
HETATM   15  C10 UNL     1      23.160   2.321  49.793  1.00  0.00    -0.009 A 
HETATM   16  C11 UNL     1      22.192   3.126  50.104  1.00  0.00     0.063 A 
HETATM   17  C12 UNL     1      20.935   3.769  50.171  1.00  0.00     0.095 C 
HETATM   18  N4  UNL     1      20.986   4.476  51.232  1.00  0.00    -0.275 NA
HETATM   19  C13 UNL     1      22.148   4.467  52.069  1.00  0.00     0.133 C 
HETATM   20  C14 UNL     1      22.434   3.149  52.326  1.00  0.00     0.117 C 
ENDBRANCH   7  11
BRANCH  10  21
HETATM   21  O2  UNL     1      26.780   1.186  51.796  1.00  0.00    -0.353 OA
HETATM   22  C18 UNL     1      26.591   2.476  51.284  1.00  0.00     0.210 C 
ENDBRANCH  10  21
BRANCH   1  23
HETATM   23  O1  UNL     1      27.480  -0.733  53.683  1.00  0.00    -0.353 OA
HETATM   24  C1  UNL     1      28.366  -0.079  54.535  1.00  0.00     0.210 C 
ENDBRANCH   1  23
TORSDOF 3
ENDMDL
MODEL 2
REMARK VINA RESULT:      -7.8      2.344      5.618
REMARK  3 active torsions:
REMARK  status: ('A' for Active; 'I' for Inactive)
REMARK    1  A    between atoms: O1_2  and  C2_3 
REMARK    2  A    between atoms: C6_9  and  N3_10 
REMARK    3  A    between atoms: C17_22  and  O2_23 
ROOT
HETATM    1  C2  UNL     1      21.666   1.889  51.195  1.00  0.00     0.103 A 
HETATM    2  C3  UNL     1      21.149   1.161  52.238  1.00  0.00     0.072 A 
HETATM    3  C4  UNL     1      21.967   0.445  53.082  1.00  0.00     0.075 A 
HETATM    4  N1  UNL     1      21.387  -0.251  54.098  1.00  0.00    -0.241 NA
HETATM    5  C5  UNL     1      22.151  -0.969  54.958  1.00  0.00     0.236 A 
HETATM    6  N2  UNL     1      23.510  -1.007  54.821  1.00  0.00    -0.223 NA
HETATM    7  C6  UNL     1      24.074  -0.331  53.833  1.00  0.00     0.147 A 
HETATM    8  C15 UNL     1      23.363   0.420  52.923  1.00  0.00     0.042 A 
HETATM    9  C16 UNL     1      23.889   1.154  51.869  1.00  0.00     0.057 A 
HETATM   10  C17 UNL     1      23.021   1.854  51.053  1.00  0.00     0.102 A 
ENDROOT
BRANCH   7  11
HETATM   11  N3  UNL     1      25.460  -0.250  53.544  1.00  0.00    -0.315 N 
HETATM   12  C7  UNL     1      25.901   0.951  54.243  1.00  0.00     0.106 C 
HETATM   13  C8  UNL     1      26.541   2.099  54.045  1.00  0.00    -0.029 C 
HETATM   14  C9  UNL     1      27.388   2.070  52.993  1.00  0.00     0.031 A 
HETATM   15  C10 UNL     1      26.871   1.210  51.931  1.00  0.00    -0.009 A 
HETATM   16  C11 UNL     1      27.543   0.336  52.614  1.00  0.00     0.063 A 
HETATM   17  C12 UNL     1      28.361  -0.284  53.586  1.00  0.00     0.095 C 
HETATM   18  N4  UNL     1      28.132  -1.532  53.458  1.00  0.00    -0.275 NA
HETATM   19  C13 UNL     1      27.185  -2.013  52.496  1.00  0.00     0.133 C 
HETATM   20  C14 UNL     1      26.027  -1.305  52.700  1.00  0.00     0.117 C 
ENDBRANCH   7  11
BRANCH  10  21
HETATM   21  O2  UNL     1      23.639   2.563  50.022  1.00  0.00    -0.353 OA
HETATM   22  C18 UNL     1      24.492   3.638  50.303  1.00  0.00     0.210 C 
ENDBRANCH  10  21
BRANCH   1  23
HETATM   23  O1  UNL     1      20.876   2.617  50.331  1.00  0.00    -0.353 OA
HETATM   24  C1  UNL     1      20.215   2.053  49.242  1.00  0.00     0.210 C 
ENDBRANCH   1  23
TORSDOF 3
ENDMDL
MODEL 3
REMARK VINA RESULT:      -7.7      2.799      5.184
REMARK  3 active torsions:
REMARK  status: ('A' for Active; 'I' for Inactive)
REMARK    1  A    between atoms: O1_2  and  C2_3 
REMARK    2  A    between atoms: C6_9  and  N3_10 
REMARK    3  A    between atoms: C17_22  and  O2_23 
ROOT
HETATM    1  C2  UNL     1      19.906  -0.097  52.590  1.00  0.00     0.103 A 
HETATM    2  C3  UNL     1      20.331  -0.848  53.658  1.00  0.00     0.072 A 
HETATM    3  C4  UNL     1      21.647  -0.832  54.061  1.00  0.00     0.075 A 
HETATM    4  N1  UNL     1      21.998  -1.598  55.131  1.00  0.00    -0.241 NA
HETATM    5  C5  UNL     1      23.281  -1.615  55.567  1.00  0.00     0.236 A 
HETATM    6  N2  UNL     1      24.241  -0.867  54.945  1.00  0.00    -0.223 NA
HETATM    7  C6  UNL     1      23.900  -0.124  53.905  1.00  0.00     0.147 A 
HETATM    8  C15 UNL     1      22.618  -0.056  53.406  1.00  0.00     0.042 A 
HETATM    9  C16 UNL     1      22.192   0.703  52.325  1.00  0.00     0.057 A 
HETATM   10  C17 UNL     1      20.859   0.650  51.965  1.00  0.00     0.102 A 
ENDROOT
BRANCH   7  11
HETATM   11  N3  UNL     1      24.756   0.715  53.146  1.00  0.00    -0.315 N 
HETATM   12  C7  UNL     1      25.771  -0.190  52.622  1.00  0.00     0.106 C 
HETATM   13  C8  UNL     1      27.088  -0.358  52.555  1.00  0.00    -0.029 C 
HETATM   14  C9  UNL     1      27.784   0.794  52.671  1.00  0.00     0.031 A 
HETATM   15  C10 UNL     1      27.107   1.726  53.569  1.00  0.00    -0.009 A 
HETATM   16  C11 UNL     1      26.555   2.063  52.445  1.00  0.00     0.063 A 
HETATM   17  C12 UNL     1      26.207   2.140  51.077  1.00  0.00     0.095 C 
HETATM   18  N4  UNL     1      25.108   2.787  51.055  1.00  0.00    -0.275 NA
HETATM   19  C13 UNL     1      24.491   3.234  52.268  1.00  0.00     0.133 C 
HETATM   20  C14 UNL     1      24.417   2.140  53.094  1.00  0.00     0.117 C 
ENDBRANCH   7  11
BRANCH  10  21
HETATM   21  O2  UNL     1      20.523   1.446  50.869  1.00  0.00    -0.353 OA
HETATM   22  C18 UNL     1      20.827   1.036  49.565  1.00  0.00     0.210 C 
ENDBRANCH  10  21
BRANCH   1  23
HETATM   23  O1  UNL     1      18.596  -0.088  52.160  1.00  0.00    -0.353 OA
HETATM   24  C1  UNL     1      17.673  -1.072  52.507  1.00  0.00     0.210 C 
ENDBRANCH   1  23
TORSDOF 3
ENDMDL
MODEL 4
REMARK VINA RESULT:      -7.7      1.876      3.443
REMARK  3 active torsions:
REMARK  status: ('A' for Active; 'I' for Inactive)
REMARK    1  A    between atoms: O1_2  and  C2_3 
REMARK    2  A    between atoms: C6_9  and  N3_10 
REMARK    3  A    between atoms: C17_22  and  O2_23 
ROOT
HETATM    1  C2  UNL     1      26.288   0.380  53.315  1.00  0.00     0.103 A 
HETATM    2  C3  UNL     1      26.894   1.229  52.422  1.00  0.00     0.072 A 
HETATM    3  C4  UNL     1      26.153   1.994  51.550  1.00  0.00     0.075 A 
HETATM    4  N1  UNL     1      26.820   2.817  50.695  1.00  0.00    -0.241 NA
HETATM    5  C5  UNL     1      26.135   3.593  49.820  1.00  0.00     0.236 A 
HETATM    6  N2  UNL     1      24.769   3.563  49.780  1.00  0.00    -0.223 NA
HETATM    7  C6  UNL     1      24.121   2.763  50.611  1.00  0.00     0.147 A 
HETATM    8  C15 UNL     1      24.749   1.948  51.526  1.00  0.00     0.042 A 
HETATM    9  C16 UNL     1      24.132   1.090  52.427  1.00  0.00     0.057 A 
HETATM   10  C17 UNL     1      24.926   0.346  53.279  1.00  0.00     0.102 A 
ENDROOT
BRANCH   7  11
HETATM   11  N3  UNL     1      22.715   2.608  50.714  1.00  0.00    -0.315 N 
HETATM   12  C7  UNL     1      22.405   1.526  49.789  1.00  0.00     0.106 C 
HETATM   13  C8  UNL     1      21.625   1.226  48.756  1.00  0.00    -0.029 C 
HETATM   14  C9  UNL     1      20.492   1.960  48.705  1.00  0.00     0.031 A 
HETATM   15  C10 UNL     1      20.722   3.310  49.211  1.00  0.00    -0.009 A 
HETATM   16  C11 UNL     1      20.397   2.714  50.316  1.00  0.00     0.063 A 
HETATM   17  C12 UNL     1      20.000   1.743  51.265  1.00  0.00     0.095 C 
HETATM   18  N4  UNL     1      20.299   2.251  52.396  1.00  0.00    -0.275 NA
HETATM   19  C13 UNL     1      20.929   3.536  52.485  1.00  0.00     0.133 C 
HETATM   20  C14 UNL     1      22.014   3.497  51.645  1.00  0.00     0.117 C 
ENDBRANCH   7  11
BRANCH  10  21
HETATM   21  O2  UNL     1      24.220  -0.486  54.149  1.00  0.00    -0.353 OA
HETATM   22  C18 UNL     1      22.861  -0.753  53.940  1.00  0.00     0.210 C 
ENDBRANCH  10  21
BRANCH   1  23
HETATM   23  O1  UNL     1      26.999  -0.400  54.201  1.00  0.00    -0.353 OA
HETATM   24  C1  UNL     1      28.231  -0.024  54.730  1.00  0.00     0.210 C 
ENDBRANCH   1  23
TORSDOF 3
ENDMDL
MODEL 5
REMARK VINA RESULT:      -7.4      1.366      2.321
REMARK  3 active torsions:
REMARK  status: ('A' for Active; 'I' for Inactive)
REMARK    1  A    between atoms: O1_2  and  C2_3 
REMARK    2  A    between atoms: C6_9  and  N3_10 
REMARK    3  A    between atoms: C17_22  and  O2_23 
ROOT
HETATM    1  C2  UNL     1      26.992   1.120  52.685  1.00  0.00     0.103 A 
HETATM    2  C3  UNL     1      26.176   0.247  53.361  1.00  0.00     0.072 A 
HETATM    3  C4  UNL     1      24.816   0.235  53.152  1.00  0.00     0.075 A 
HETATM    4  N1  UNL     1      24.068  -0.660  53.853  1.00  0.00    -0.241 NA
HETATM    5  C5  UNL     1      22.724  -0.711  53.680  1.00  0.00     0.236 A 
HETATM    6  N2  UNL     1      22.099   0.130  52.803  1.00  0.00    -0.223 NA
HETATM    7  C6  UNL     1      22.827   1.001  52.122  1.00  0.00     0.147 A 
HETATM    8  C15 UNL     1      24.194   1.110  52.245  1.00  0.00     0.042 A 
HETATM    9  C16 UNL     1      25.016   1.996  51.561  1.00  0.00     0.057 A 
HETATM   10  C17 UNL     1      26.374   1.962  51.810  1.00  0.00     0.102 A 
ENDROOT
BRANCH   7  11
HETATM   11  N3  UNL     1      22.353   1.941  51.171  1.00  0.00    -0.315 N 
HETATM   12  C7  UNL     1      22.130   3.154  51.947  1.00  0.00     0.106 C 
HETATM   13  C8  UNL     1      21.200   4.064  52.218  1.00  0.00    -0.029 C 
HETATM   14  C9  UNL     1      20.263   4.182  51.252  1.00  0.00     0.031 A 
HETATM   15  C10 UNL     1      20.007   2.895  50.613  1.00  0.00    -0.009 A 
HETATM   16  C11 UNL     1      20.971   3.326  49.860  1.00  0.00     0.063 A 
HETATM   17  C12 UNL     1      21.992   4.121  49.291  1.00  0.00     0.095 C 
HETATM   18  N4  UNL     1      22.665   3.318  48.564  1.00  0.00    -0.275 NA
HETATM   19  C13 UNL     1      22.324   1.928  48.490  1.00  0.00     0.133 C 
HETATM   20  C14 UNL     1      22.230   1.480  49.785  1.00  0.00     0.117 C 
ENDBRANCH   7  11
BRANCH  10  21
HETATM   21  O2  UNL     1      27.121   2.886  51.076  1.00  0.00    -0.353 OA
HETATM   22  C18 UNL     1      26.542   3.594  50.016  1.00  0.00     0.210 C 
ENDBRANCH  10  21
BRANCH   1  23
HETATM   23  O1  UNL     1      28.358   1.158  52.870  1.00  0.00    -0.353 OA
HETATM   24  C1  UNL     1      28.972   0.865  54.086  1.00  0.00     0.210 C 
ENDBRANCH   1  23
TORSDOF 3
ENDMDL
MODEL 6
REMARK VINA RESULT:      -7.3      2.090      3.987
REMARK  3 active torsions:
REMARK  status: ('A' for Active; 'I' for Inactive)
REMARK    1  A    between atoms: O1_2  and  C2_3 
REMARK    2  A    between atoms: C6_9  and  N3_10 
REMARK    3  A    between atoms: C17_22  and  O2_23 
ROOT
HETATM    1  C2  UNL     1      26.329   0.518  52.817  1.00  0.00     0.103 A 
HETATM    2  C3  UNL     1      26.953   1.427  52.000  1.00  0.00     0.072 A 
HETATM    3  C4  UNL     1      26.231   2.241  51.157  1.00  0.00     0.075 A 
HETATM    4  N1  UNL     1      26.915   3.122  50.376  1.00  0.00    -0.241 NA
HETATM    5  C5  UNL     1      26.248   3.947  49.531  1.00  0.00     0.236 A 
HETATM    6  N2  UNL     1      24.885   3.908  49.448  1.00  0.00    -0.223 NA
HETATM    7  C6  UNL     1      24.220   3.050  50.206  1.00  0.00     0.147 A 
HETATM    8  C15 UNL     1      24.829   2.184  51.086  1.00  0.00     0.042 A 
HETATM    9  C16 UNL     1      24.194   1.265  51.911  1.00  0.00     0.057 A 
HETATM   10  C17 UNL     1      24.969   0.475  52.738  1.00  0.00     0.102 A 
ENDROOT
BRANCH   7  11
HETATM   11  N3  UNL     1      22.813   2.878  50.256  1.00  0.00    -0.315 N 
HETATM   12  C7  UNL     1      22.323   4.107  50.867  1.00  0.00     0.106 C 
HETATM   13  C8  UNL     1      21.568   4.547  51.868  1.00  0.00    -0.029 C 
HETATM   14  C9  UNL     1      20.645   3.651  52.280  1.00  0.00     0.031 A 
HETATM   15  C10 UNL     1      21.149   2.287  52.154  1.00  0.00    -0.009 A 
HETATM   16  C11 UNL     1      20.617   2.434  50.981  1.00  0.00     0.063 A 
HETATM   17  C12 UNL     1      19.940   2.962  49.858  1.00  0.00     0.095 C 
HETATM   18  N4  UNL     1      20.271   2.201  48.889  1.00  0.00    -0.275 NA
HETATM   19  C13 UNL     1      21.175   1.108  49.085  1.00  0.00     0.133 C 
HETATM   20  C14 UNL     1      22.277   1.622  49.722  1.00  0.00     0.117 C 
ENDBRANCH   7  11
BRANCH  10  21
HETATM   21  O2  UNL     1      24.246  -0.418  53.531  1.00  0.00    -0.353 OA
HETATM   22  C18 UNL     1      22.909  -0.714  53.239  1.00  0.00     0.210 C 
ENDBRANCH  10  21
BRANCH   1  23
HETATM   23  O1  UNL     1      27.021  -0.311  53.674  1.00  0.00    -0.353 OA
HETATM   24  C1  UNL     1      27.604   0.131  54.859  1.00  0.00     0.210 C 
ENDBRANCH   1  23
TORSDOF 3
ENDMDL
MODEL 7
REMARK VINA RESULT:      -7.2      1.651      2.114
REMARK  3 active torsions:
REMARK  status: ('A' for Active; 'I' for Inactive)
REMARK    1  A    between atoms: O1_2  and  C2_3 
REMARK    2  A    between atoms: C6_9  and  N3_10 
REMARK    3  A    between atoms: C17_22  and  O2_23 
ROOT
HETATM    1  C2  UNL     1      26.576   2.011  52.081  1.00  0.00     0.103 A 
HETATM    2  C3  UNL     1      25.922   1.015  52.761  1.00  0.00     0.072 A 
HETATM    3  C4  UNL     1      24.575   0.794  52.581  1.00  0.00     0.075 A 
HETATM    4  N1  UNL     1      23.992  -0.215  53.285  1.00  0.00    -0.241 NA
HETATM    5  C5  UNL     1      22.669  -0.473  53.140  1.00  0.00     0.236 A 
HETATM    6  N2  UNL     1      21.901   0.269  52.287  1.00  0.00    -0.223 NA
HETATM    7  C6  UNL     1      22.468   1.250  51.603  1.00  0.00     0.147 A 
HETATM    8  C15 UNL     1      23.804   1.570  51.699  1.00  0.00     0.042 A 
HETATM    9  C16 UNL     1      24.462   2.579  51.010  1.00  0.00     0.057 A 
HETATM   10  C17 UNL     1      25.815   2.756  51.230  1.00  0.00     0.102 A 
ENDROOT
BRANCH   7  11
HETATM   11  N3  UNL     1      21.832   2.113  50.674  1.00  0.00    -0.315 N 
HETATM   12  C7  UNL     1      21.645   1.287  49.489  1.00  0.00     0.106 C 
HETATM   13  C8  UNL     1      21.889   1.263  48.182  1.00  0.00    -0.029 C 
HETATM   14  C9  UNL     1      22.032   2.491  47.638  1.00  0.00     0.031 A 
HETATM   15  C10 UNL     1      22.653   3.413  48.586  1.00  0.00    -0.009 A 
HETATM   16  C11 UNL     1      21.405   3.591  48.892  1.00  0.00     0.063 A 
HETATM   17  C12 UNL     1      19.994   3.514  48.919  1.00  0.00     0.095 C 
HETATM   18  N4  UNL     1      19.661   4.029  50.038  1.00  0.00    -0.275 NA
HETATM   19  C13 UNL     1      20.653   4.504  50.956  1.00  0.00     0.133 C 
HETATM   20  C14 UNL     1      21.554   3.482  51.119  1.00  0.00     0.117 C 
ENDBRANCH   7  11
BRANCH  10  21
HETATM   21  O2  UNL     1      26.391   3.792  50.493  1.00  0.00    -0.353 OA
HETATM   22  C18 UNL     1      25.616   4.868  50.044  1.00  0.00     0.210 C 
ENDBRANCH  10  21
BRANCH   1  23
HETATM   23  O1  UNL     1      27.923   2.260  52.237  1.00  0.00    -0.353 OA
HETATM   24  C1  UNL     1      28.545   2.336  53.481  1.00  0.00     0.210 C 
ENDBRANCH   1  23
TORSDOF 3
ENDMDL
MODEL 8
REMARK VINA RESULT:      -6.8      3.171      4.780
REMARK  3 active torsions:
REMARK  status: ('A' for Active; 'I' for Inactive)
REMARK    1  A    between atoms: O1_2  and  C2_3 
REMARK    2  A    between atoms: C6_9  and  N3_10 
REMARK    3  A    between atoms: C17_22  and  O2_23 
ROOT
HETATM    1  C2  UNL     1      26.325   5.052  49.003  1.00  0.00     0.103 A 
HETATM    2  C3  UNL     1      26.903   4.030  49.715  1.00  0.00     0.072 A 
HETATM    3  C4  UNL     1      26.135   3.123  50.410  1.00  0.00     0.075 A 
HETATM    4  N1  UNL     1      26.774   2.133  51.092  1.00  0.00    -0.241 NA
HETATM    5  C5  UNL     1      26.062   1.214  51.789  1.00  0.00     0.236 A 
HETATM    6  N2  UNL     1      24.697   1.265  51.821  1.00  0.00    -0.223 NA
HETATM    7  C6  UNL     1      24.076   2.228  51.159  1.00  0.00     0.147 A 
HETATM    8  C15 UNL     1      24.732   3.194  50.429  1.00  0.00     0.042 A 
HETATM    9  C16 UNL     1      24.145   4.227  49.711  1.00  0.00     0.057 A 
HETATM   10  C17 UNL     1      24.964   5.108  49.031  1.00  0.00     0.102 A 
ENDROOT
BRANCH   7  11
HETATM   11  N3  UNL     1      22.674   2.431  51.074  1.00  0.00    -0.315 N 
HETATM   12  C7  UNL     1      22.188   1.266  50.346  1.00  0.00     0.106 C 
HETATM   13  C8  UNL     1      21.462   0.925  49.286  1.00  0.00    -0.029 C 
HETATM   14  C9  UNL     1      20.569   1.868  48.918  1.00  0.00     0.031 A 
HETATM   15  C10 UNL     1      21.089   3.208  49.175  1.00  0.00    -0.009 A 
HETATM   16  C11 UNL     1      20.513   2.974  50.313  1.00  0.00     0.063 A 
HETATM   17  C12 UNL     1      19.788   2.367  51.363  1.00  0.00     0.095 C 
HETATM   18  N4  UNL     1      20.095   3.039  52.403  1.00  0.00    -0.275 NA
HETATM   19  C13 UNL     1      21.023   4.128  52.331  1.00  0.00     0.133 C 
HETATM   20  C14 UNL     1      22.139   3.648  51.692  1.00  0.00     0.117 C 
ENDBRANCH   7  11
BRANCH  10  21
HETATM   21  O2  UNL     1      24.286   6.111  48.337  1.00  0.00    -0.353 OA
HETATM   22  C18 UNL     1      22.969   6.449  48.671  1.00  0.00     0.210 C 
ENDBRANCH  10  21
BRANCH   1  23
HETATM   23  O1  UNL     1      27.064   5.976  48.295  1.00  0.00    -0.353 OA
HETATM   24  C1  UNL     1      28.455   5.959  48.238  1.00  0.00     0.210 C 
ENDBRANCH   1  23
TORSDOF 3
ENDMDL
MODEL 9
REMARK VINA RESULT:      -6.7      2.492      4.878
REMARK  3 active torsions:
REMARK  status: ('A' for Active; 'I' for Inactive)
REMARK    1  A    between atoms: O1_2  and  C2_3 
REMARK    2  A    between atoms: C6_9  and  N3_10 
REMARK    3  A    between atoms: C17_22  and  O2_23 
ROOT
HETATM    1  C2  UNL     1      25.458   3.792  50.644  1.00  0.00     0.103 A 
HETATM    2  C3  UNL     1      26.401   2.828  50.899  1.00  0.00     0.072 A 
HETATM    3  C4  UNL     1      26.070   1.663  51.554  1.00  0.00     0.075 A 
HETATM    4  N1  UNL     1      27.054   0.748  51.770  1.00  0.00    -0.241 NA
HETATM    5  C5  UNL     1      26.777  -0.416  52.408  1.00  0.00     0.236 A 
HETATM    6  N2  UNL     1      25.511  -0.689  52.845  1.00  0.00    -0.223 NA
HETATM    7  C6  UNL     1      24.555   0.201  52.636  1.00  0.00     0.147 A 
HETATM    8  C15 UNL     1      24.761   1.402  51.995  1.00  0.00     0.042 A 
HETATM    9  C16 UNL     1      23.805   2.376  51.740  1.00  0.00     0.057 A 
HETATM   10  C17 UNL     1      24.194   3.525  51.078  1.00  0.00     0.102 A 
ENDROOT
BRANCH   7  11
HETATM   11  N3  UNL     1      23.191   0.084  53.011  1.00  0.00    -0.315 N 
HETATM   12  C7  UNL     1      23.238  -0.226  54.434  1.00  0.00     0.106 C 
HETATM   13  C8  UNL     1      22.798  -1.107  55.326  1.00  0.00    -0.029 C 
HETATM   14  C9  UNL     1      21.666  -1.739  54.947  1.00  0.00     0.031 A 
HETATM   15  C10 UNL     1      21.637  -1.933  53.500  1.00  0.00    -0.009 A 
HETATM   16  C11 UNL     1      21.071  -0.768  53.577  1.00  0.00     0.063 A 
HETATM   17  C12 UNL     1      20.511   0.435  54.065  1.00  0.00     0.095 C 
HETATM   18  N4  UNL     1      20.445   1.200  53.046  1.00  0.00    -0.275 NA
HETATM   19  C13 UNL     1      20.918   0.766  51.765  1.00  0.00     0.133 C 
HETATM   20  C14 UNL     1      22.191   0.292  51.960  1.00  0.00     0.117 C 
ENDBRANCH   7  11
BRANCH  10  21
HETATM   21  O2  UNL     1      23.167   4.446  50.864  1.00  0.00    -0.353 OA
HETATM   22  C18 UNL     1      22.622   5.171  51.932  1.00  0.00     0.210 C 
ENDBRANCH  10  21
BRANCH   1  23
HETATM   23  O1  UNL     1      25.755   4.969  49.990  1.00  0.00    -0.353 OA
HETATM   24  C1  UNL     1      26.692   5.056  48.963  1.00  0.00     0.210 C 
ENDBRANCH   1  23
TORSDOF 3
ENDMDL
