MODEL 1
REMARK VINA RESULT:      -8.0      0.000      0.000
REMARK  4 active torsions:
REMARK  status: ('A' for Active; 'I' for Inactive)
REMARK    1  A    between atoms: O1_1  and  C1_2 
REMARK    2  A    between atoms: C1_2  and  C2_3 
REMARK    3  A    between atoms: C8_11  and  N3_12 
REMARK    4  A    between atoms: N3_12  and  C9_13 
ROOT
HETATM    1  C2  UNL     1      26.488  -1.173  53.559  1.00  0.00     0.163 C 
HETATM    2  N1  UNL     1      27.251  -0.501  54.580  1.00  0.00    -0.278 NA
HETATM    3  C3  UNL     1      28.234   0.292  54.710  1.00  0.00     0.077 C 
HETATM    4  C4  UNL     1      28.290   1.435  54.042  1.00  0.00     0.021 C 
HETATM    5  C5  UNL     1      27.202   2.110  53.262  1.00  0.00     0.075 C 
HETATM    6  C6  UNL     1      27.180   1.446  51.917  1.00  0.00     0.097 C 
HETATM    7  N2  UNL     1      26.611   0.301  51.681  1.00  0.00    -0.291 NA
HETATM    8  C7  UNL     1      25.702  -0.247  52.694  1.00  0.00     0.183 C 
HETATM    9  C8  UNL     1      25.070   0.895  53.360  1.00  0.00     0.034 C 
HETATM   10  C15 UNL     1      25.881   1.795  53.922  1.00  0.00     0.014 C 
ENDROOT
BRANCH   9  11
HETATM   11  N3  UNL     1      23.664   1.149  53.453  1.00  0.00    -0.358 N 
HETATM   12  H9  UNL     1      23.405   2.161  53.413  1.00  0.00     0.166 HD
BRANCH  11  13
HETATM   13  C9  UNL     1      22.543   0.296  53.599  1.00  0.00     0.034 A 
HETATM   14  C10 UNL     1      22.543  -0.752  54.485  1.00  0.00     0.032 A 
HETATM   15  C11 UNL     1      21.386  -1.510  54.549  1.00  0.00     0.046 A 
HETATM   16  C12 UNL     1      20.311  -1.193  53.745  1.00  0.00     0.138 A 
HETATM   17  F1  UNL     1      19.216  -1.976  53.860  1.00  0.00    -0.204 F 
HETATM   18  C13 UNL     1      20.339  -0.147  52.874  1.00  0.00     0.074 A 
HETATM   19 CL1  UNL     1      18.920   0.178  51.897  1.00  0.00    -0.081 Cl
HETATM   20  C14 UNL     1      21.492   0.646  52.778  1.00  0.00     0.056 A 
ENDBRANCH  11  13
ENDBRANCH   9  11
BRANCH   1  21
HETATM   21  C1  UNL     1      27.431  -1.908  52.587  1.00  0.00     0.194 C 
BRANCH  21  22
HETATM   22  O1  UNL     1      27.986  -3.036  53.150  1.00  0.00    -0.399 OA
HETATM   23  H1  UNL     1      28.707  -2.761  53.786  1.00  0.00     0.209 HD
ENDBRANCH  21  22
ENDBRANCH   1  21
TORSDOF 4
ENDMDL
MODEL 2
REMARK VINA RESULT:      -7.6      4.480      6.250
REMARK  4 active torsions:
REMARK  status: ('A' for Active; 'I' for Inactive)
REMARK    1  A    between atoms: O1_1  and  C1_2 
REMARK    2  A    between atoms: C1_2  and  C2_3 
REMARK    3  A    between atoms: C8_11  and  N3_12 
REMARK    4  A    between atoms: N3_12  and  C9_13 
ROOT
HETATM    1  C2  UNL     1      28.305   0.839  53.067  1.00  0.00     0.163 C 
HETATM    2  N1  UNL     1      27.499  -0.354  53.080  1.00  0.00    -0.278 NA
HETATM    3  C3  UNL     1      26.519  -0.871  53.699  1.00  0.00     0.077 C 
HETATM    4  C4  UNL     1      25.383  -0.209  53.867  1.00  0.00     0.021 C 
HETATM    5  C5  UNL     1      24.944   1.065  53.208  1.00  0.00     0.075 C 
HETATM    6  C6  UNL     1      25.585   2.177  53.984  1.00  0.00     0.097 C 
HETATM    7  N2  UNL     1      26.822   2.550  53.833  1.00  0.00    -0.291 NA
HETATM    8  C7  UNL     1      27.557   2.063  52.660  1.00  0.00     0.183 C 
HETATM    9  C8  UNL     1      26.579   1.905  51.580  1.00  0.00     0.034 C 
HETATM   10  C15 UNL     1      25.534   1.108  51.820  1.00  0.00     0.014 C 
ENDROOT
BRANCH   9  11
HETATM   11  N3  UNL     1      26.626   2.536  50.297  1.00  0.00    -0.358 N 
HETATM   12  H9  UNL     1      26.842   1.889  49.505  1.00  0.00     0.166 HD
BRANCH  11  13
HETATM   13  C9  UNL     1      26.444   3.878  49.881  1.00  0.00     0.034 A 
HETATM   14  C10 UNL     1      27.272   4.466  48.958  1.00  0.00     0.032 A 
HETATM   15  C11 UNL     1      26.990   5.780  48.620  1.00  0.00     0.046 A 
HETATM   16  C12 UNL     1      25.922   6.426  49.206  1.00  0.00     0.138 A 
HETATM   17  F1  UNL     1      25.706   7.706  48.830  1.00  0.00    -0.204 F 
HETATM   18  C13 UNL     1      25.117   5.817  50.120  1.00  0.00     0.074 A 
HETATM   19 CL1  UNL     1      23.782   6.722  50.806  1.00  0.00    -0.081 Cl
HETATM   20  C14 UNL     1      25.369   4.488  50.490  1.00  0.00     0.056 A 
ENDBRANCH  11  13
ENDBRANCH   9  11
BRANCH   1  21
HETATM   21  C1  UNL     1      28.818   1.150  54.486  1.00  0.00     0.194 C 
BRANCH  21  22
HETATM   22  O1  UNL     1      29.525   2.331  54.539  1.00  0.00    -0.399 OA
HETATM   23  H1  UNL     1      30.154   2.300  55.315  1.00  0.00     0.209 HD
ENDBRANCH  21  22
ENDBRANCH   1  21
TORSDOF 4
ENDMDL
MODEL 3
REMARK VINA RESULT:      -7.4      4.834      6.829
REMARK  4 active torsions:
REMARK  status: ('A' for Active; 'I' for Inactive)
REMARK    1  A    between atoms: O1_1  and  C1_2 
REMARK    2  A    between atoms: C1_2  and  C2_3 
REMARK    3  A    between atoms: C8_11  and  N3_12 
REMARK    4  A    between atoms: N3_12  and  C9_13 
ROOT
HETATM    1  C2  UNL     1      23.038   4.666  52.407  1.00  0.00     0.163 C 
HETATM    2  N1  UNL     1      21.726   4.206  52.032  1.00  0.00    -0.278 NA
HETATM    3  C3  UNL     1      21.043   3.922  51.001  1.00  0.00     0.077 C 
HETATM    4  C4  UNL     1      21.501   3.090  50.078  1.00  0.00     0.021 C 
HETATM    5  C5  UNL     1      22.692   2.182  50.154  1.00  0.00     0.075 C 
HETATM    6  C6  UNL     1      23.885   3.031  49.830  1.00  0.00     0.097 C 
HETATM    7  N2  UNL     1      24.463   3.828  50.680  1.00  0.00    -0.291 NA
HETATM    8  C7  UNL     1      24.125   3.692  52.102  1.00  0.00     0.183 C 
HETATM    9  C8  UNL     1      23.821   2.277  52.333  1.00  0.00     0.034 C 
HETATM   10  C15 UNL     1      22.855   1.734  51.586  1.00  0.00     0.014 C 
ENDROOT
BRANCH   9  11
HETATM   11  N3  UNL     1      24.470   1.414  53.272  1.00  0.00    -0.358 N 
HETATM   12  H9  UNL     1      23.922   1.233  54.143  1.00  0.00     0.166 HD
BRANCH  11  13
HETATM   13  C9  UNL     1      25.725   0.756  53.260  1.00  0.00     0.034 A 
HETATM   14  C10 UNL     1      25.871  -0.512  52.755  1.00  0.00     0.032 A 
HETATM   15  C11 UNL     1      27.147  -1.049  52.787  1.00  0.00     0.046 A 
HETATM   16  C12 UNL     1      28.190  -0.312  53.310  1.00  0.00     0.138 A 
HETATM   17  F1  UNL     1      29.407  -0.899  53.310  1.00  0.00    -0.204 F 
HETATM   18  C13 UNL     1      28.016   0.944  53.805  1.00  0.00     0.074 A 
HETATM   19 CL1  UNL     1      29.405   1.800  54.446  1.00  0.00    -0.081 Cl
HETATM   20  C14 UNL     1      26.738   1.524  53.792  1.00  0.00     0.056 A 
ENDBRANCH  11  13
ENDBRANCH   9  11
BRANCH   1  21
HETATM   21  C1  UNL     1      23.409   5.928  51.604  1.00  0.00     0.194 C 
BRANCH  21  22
HETATM   22  O1  UNL     1      24.381   6.678  52.229  1.00  0.00    -0.399 OA
HETATM   23  H1  UNL     1      23.944   7.414  52.745  1.00  0.00     0.209 HD
ENDBRANCH  21  22
ENDBRANCH   1  21
TORSDOF 4
ENDMDL
MODEL 4
REMARK VINA RESULT:      -7.2      4.687      6.718
REMARK  4 active torsions:
REMARK  status: ('A' for Active; 'I' for Inactive)
REMARK    1  A    between atoms: O1_1  and  C1_2 
REMARK    2  A    between atoms: C1_2  and  C2_3 
REMARK    3  A    between atoms: C8_11  and  N3_12 
REMARK    4  A    between atoms: N3_12  and  C9_13 
ROOT
HETATM    1  C2  UNL     1      21.439   1.768  51.503  1.00  0.00     0.163 C 
HETATM    2  N1  UNL     1      21.903   1.468  50.173  1.00  0.00    -0.278 NA
HETATM    3  C3  UNL     1      22.313   2.049  49.121  1.00  0.00     0.077 C 
HETATM    4  C4  UNL     1      23.292   2.941  49.164  1.00  0.00     0.021 C 
HETATM    5  C5  UNL     1      24.221   3.247  50.301  1.00  0.00     0.075 C 
HETATM    6  C6  UNL     1      23.475   4.177  51.210  1.00  0.00     0.097 C 
HETATM    7  N2  UNL     1      22.582   3.790  52.072  1.00  0.00    -0.291 NA
HETATM    8  C7  UNL     1      22.489   2.359  52.383  1.00  0.00     0.183 C 
HETATM    9  C8  UNL     1      23.840   1.807  52.253  1.00  0.00     0.034 C 
HETATM   10  C15 UNL     1      24.454   1.974  51.078  1.00  0.00     0.014 C 
ENDROOT
BRANCH   9  11
HETATM   11  N3  UNL     1      24.575   1.120  53.271  1.00  0.00    -0.358 N 
HETATM   12  H9  UNL     1      24.062   1.010  54.174  1.00  0.00     0.166 HD
BRANCH  11  13
HETATM   13  C9  UNL     1      25.876   0.560  53.302  1.00  0.00     0.034 A 
HETATM   14  C10 UNL     1      26.125  -0.714  52.855  1.00  0.00     0.032 A 
HETATM   15  C11 UNL     1      27.438  -1.150  52.923  1.00  0.00     0.046 A 
HETATM   16  C12 UNL     1      28.414  -0.314  53.424  1.00  0.00     0.138 A 
HETATM   17  F1  UNL     1      29.672  -0.805  53.462  1.00  0.00    -0.204 F 
HETATM   18  C13 UNL     1      28.138   0.946  53.861  1.00  0.00     0.074 A 
HETATM   19 CL1  UNL     1      29.449   1.933  54.477  1.00  0.00    -0.081 Cl
HETATM   20  C14 UNL     1      26.821   1.425  53.809  1.00  0.00     0.056 A 
ENDBRANCH  11  13
ENDBRANCH   9  11
BRANCH   1  21
HETATM   21  C1  UNL     1      20.329   2.834  51.452  1.00  0.00     0.194 C 
BRANCH  21  22
HETATM   22  O1  UNL     1      19.887   3.189  52.707  1.00  0.00    -0.399 OA
HETATM   23  H1  UNL     1      19.757   2.362  53.253  1.00  0.00     0.209 HD
ENDBRANCH  21  22
ENDBRANCH   1  21
TORSDOF 4
ENDMDL
MODEL 5
REMARK VINA RESULT:      -7.1      4.524      5.925
REMARK  4 active torsions:
REMARK  status: ('A' for Active; 'I' for Inactive)
REMARK    1  A    between atoms: O1_1  and  C1_2 
REMARK    2  A    between atoms: C1_2  and  C2_3 
REMARK    3  A    between atoms: C8_11  and  N3_12 
REMARK    4  A    between atoms: N3_12  and  C9_13 
ROOT
HETATM    1  C2  UNL     1      22.585   5.480  51.222  1.00  0.00     0.163 C 
HETATM    2  N1  UNL     1      22.050   5.464  49.885  1.00  0.00    -0.278 NA
HETATM    3  C3  UNL     1      22.407   5.244  48.687  1.00  0.00     0.077 C 
HETATM    4  C4  UNL     1      23.042   4.132  48.350  1.00  0.00     0.021 C 
HETATM    5  C5  UNL     1      23.235   2.888  49.166  1.00  0.00     0.075 C 
HETATM    6  C6  UNL     1      24.403   3.158  50.066  1.00  0.00     0.097 C 
HETATM    7  N2  UNL     1      24.328   3.844  51.169  1.00  0.00    -0.291 NA
HETATM    8  C7  UNL     1      22.999   4.136  51.718  1.00  0.00     0.183 C 
HETATM    9  C8  UNL     1      22.133   3.010  51.356  1.00  0.00     0.034 C 
HETATM   10  C15 UNL     1      22.030   2.716  50.057  1.00  0.00     0.014 C 
ENDROOT
BRANCH   9  11
HETATM   11  N3  UNL     1      21.399   2.181  52.264  1.00  0.00    -0.358 N 
HETATM   12  H9  UNL     1      20.379   2.400  52.320  1.00  0.00     0.166 HD
BRANCH  11  13
HETATM   13  C9  UNL     1      21.784   1.119  53.117  1.00  0.00     0.034 A 
HETATM   14  C10 UNL     1      20.885   0.497  53.947  1.00  0.00     0.032 A 
HETATM   15  C11 UNL     1      21.374  -0.537  54.728  1.00  0.00     0.046 A 
HETATM   16  C12 UNL     1      22.705  -0.892  54.645  1.00  0.00     0.138 A 
HETATM   17  F1  UNL     1      23.112  -1.909  55.436  1.00  0.00    -0.204 F 
HETATM   18  C13 UNL     1      23.575  -0.257  53.812  1.00  0.00     0.074 A 
HETATM   19 CL1  UNL     1      25.246  -0.783  53.775  1.00  0.00    -0.081 Cl
HETATM   20  C14 UNL     1      23.119   0.797  53.005  1.00  0.00     0.056 A 
ENDBRANCH  11  13
ENDBRANCH   9  11
BRANCH   1  21
HETATM   21  C1  UNL     1      23.873   6.325  51.269  1.00  0.00     0.194 C 
BRANCH  21  22
HETATM   22  O1  UNL     1      24.313   6.534  52.558  1.00  0.00    -0.399 OA
HETATM   23  H1  UNL     1      25.075   5.915  52.746  1.00  0.00     0.209 HD
ENDBRANCH  21  22
ENDBRANCH   1  21
TORSDOF 4
ENDMDL
MODEL 6
REMARK VINA RESULT:      -7.0      4.401      6.674
REMARK  4 active torsions:
REMARK  status: ('A' for Active; 'I' for Inactive)
REMARK    1  A    between atoms: O1_1  and  C1_2 
REMARK    2  A    between atoms: C1_2  and  C2_3 
REMARK    3  A    between atoms: C8_11  and  N3_12 
REMARK    4  A    between atoms: N3_12  and  C9_13 
ROOT
HETATM    1  C2  UNL     1      23.127   3.637  49.513  1.00  0.00     0.163 C 
HETATM    2  N1  UNL     1      22.454   4.560  50.391  1.00  0.00    -0.278 NA
HETATM    3  C3  UNL     1      21.499   4.602  51.225  1.00  0.00     0.077 C 
HETATM    4  C4  UNL     1      21.415   3.732  52.221  1.00  0.00     0.021 C 
HETATM    5  C5  UNL     1      22.455   2.764  52.699  1.00  0.00     0.075 C 
HETATM    6  C6  UNL     1      22.364   1.573  51.792  1.00  0.00     0.097 C 
HETATM    7  N2  UNL     1      22.893   1.523  50.604  1.00  0.00    -0.291 NA
HETATM    8  C7  UNL     1      23.864   2.557  50.230  1.00  0.00     0.183 C 
HETATM    9  C8  UNL     1      24.565   2.946  51.457  1.00  0.00     0.034 C 
HETATM   10  C15 UNL     1      23.815   3.379  52.474  1.00  0.00     0.014 C 
ENDROOT
BRANCH   9  11
HETATM   11  N3  UNL     1      25.978   2.890  51.678  1.00  0.00    -0.358 N 
HETATM   12  H9  UNL     1      26.502   3.726  51.333  1.00  0.00     0.166 HD
BRANCH  11  13
HETATM   13  C9  UNL     1      26.818   1.915  52.269  1.00  0.00     0.034 A 
HETATM   14  C10 UNL     1      27.921   2.264  53.008  1.00  0.00     0.032 A 
HETATM   15  C11 UNL     1      28.661   1.225  53.547  1.00  0.00     0.046 A 
HETATM   16  C12 UNL     1      28.275  -0.081  53.326  1.00  0.00     0.138 A 
HETATM   17  F1  UNL     1      29.044  -1.043  53.880  1.00  0.00    -0.204 F 
HETATM   18  C13 UNL     1      27.176  -0.398  52.587  1.00  0.00     0.074 A 
HETATM   19 CL1  UNL     1      26.765  -2.088  52.366  1.00  0.00    -0.081 Cl
HETATM   20  C14 UNL     1      26.399   0.625  52.023  1.00  0.00     0.056 A 
ENDBRANCH  11  13
ENDBRANCH   9  11
BRANCH   1  21
HETATM   21  C1  UNL     1      22.101   2.892  48.637  1.00  0.00     0.194 C 
BRANCH  21  22
HETATM   22  O1  UNL     1      22.700   2.180  47.621  1.00  0.00    -0.399 OA
HETATM   23  H1  UNL     1      23.481   2.699  47.275  1.00  0.00     0.209 HD
ENDBRANCH  21  22
ENDBRANCH   1  21
TORSDOF 4
ENDMDL
MODEL 7
REMARK VINA RESULT:      -6.8      4.595      6.579
REMARK  4 active torsions:
REMARK  status: ('A' for Active; 'I' for Inactive)
REMARK    1  A    between atoms: O1_1  and  C1_2 
REMARK    2  A    between atoms: C1_2  and  C2_3 
REMARK    3  A    between atoms: C8_11  and  N3_12 
REMARK    4  A    between atoms: N3_12  and  C9_13 
ROOT
HETATM    1  C2  UNL     1      24.563   3.577  51.034  1.00  0.00     0.163 C 
HETATM    2  N1  UNL     1      23.831   4.271  52.062  1.00  0.00    -0.278 NA
HETATM    3  C3  UNL     1      22.656   4.668  52.333  1.00  0.00     0.077 C 
HETATM    4  C4  UNL     1      21.620   3.844  52.276  1.00  0.00     0.021 C 
HETATM    5  C5  UNL     1      21.626   2.350  52.147  1.00  0.00     0.075 C 
HETATM    6  C6  UNL     1      21.805   2.058  50.687  1.00  0.00     0.097 C 
HETATM    7  N2  UNL     1      22.951   2.095  50.074  1.00  0.00    -0.291 NA
HETATM    8  C7  UNL     1      24.173   2.145  50.884  1.00  0.00     0.183 C 
HETATM    9  C8  UNL     1      23.894   1.410  52.120  1.00  0.00     0.034 C 
HETATM   10  C15 UNL     1      22.853   1.820  52.849  1.00  0.00     0.014 C 
ENDROOT
BRANCH   9  11
HETATM   11  N3  UNL     1      24.620   0.280  52.615  1.00  0.00    -0.358 N 
HETATM   12  H9  UNL     1      24.027  -0.552  52.835  1.00  0.00     0.166 HD
BRANCH  11  13
HETATM   13  C9  UNL     1      25.995   0.063  52.877  1.00  0.00     0.034 A 
HETATM   14  C10 UNL     1      26.554  -1.188  52.818  1.00  0.00     0.032 A 
HETATM   15  C11 UNL     1      27.911  -1.276  53.083  1.00  0.00     0.046 A 
HETATM   16  C12 UNL     1      28.626  -0.137  53.387  1.00  0.00     0.138 A 
HETATM   17  F1  UNL     1      29.945  -0.296  53.636  1.00  0.00    -0.204 F 
HETATM   18  C13 UNL     1      28.046   1.094  53.440  1.00  0.00     0.074 A 
HETATM   19 CL1  UNL     1      29.041   2.482  53.833  1.00  0.00    -0.081 Cl
HETATM   20  C14 UNL     1      26.673   1.225  53.179  1.00  0.00     0.056 A 
ENDBRANCH  11  13
ENDBRANCH   9  11
BRANCH   1  21
HETATM   21  C1  UNL     1      24.273   4.205  49.657  1.00  0.00     0.194 C 
BRANCH  21  22
HETATM   22  O1  UNL     1      24.784   5.479  49.546  1.00  0.00    -0.399 OA
HETATM   23  H1  UNL     1      24.314   6.078  50.194  1.00  0.00     0.209 HD
ENDBRANCH  21  22
ENDBRANCH   1  21
TORSDOF 4
ENDMDL
MODEL 8
REMARK VINA RESULT:      -6.8      4.667      6.474
REMARK  4 active torsions:
REMARK  status: ('A' for Active; 'I' for Inactive)
REMARK    1  A    between atoms: O1_1  and  C1_2 
REMARK    2  A    between atoms: C1_2  and  C2_3 
REMARK    3  A    between atoms: C8_11  and  N3_12 
REMARK    4  A    between atoms: N3_12  and  C9_13 
ROOT
HETATM    1  C2  UNL     1      23.336   2.275  50.052  1.00  0.00     0.163 C 
HETATM    2  N1  UNL     1      23.956   3.573  49.969  1.00  0.00    -0.278 NA
HETATM    3  C3  UNL     1      23.677   4.804  50.098  1.00  0.00     0.077 C 
HETATM    4  C4  UNL     1      23.068   5.264  51.181  1.00  0.00     0.021 C 
HETATM    5  C5  UNL     1      22.828   4.557  52.482  1.00  0.00     0.075 C 
HETATM    6  C6  UNL     1      21.604   3.715  52.279  1.00  0.00     0.097 C 
HETATM    7  N2  UNL     1      21.606   2.562  51.677  1.00  0.00    -0.291 NA
HETATM    8  C7  UNL     1      22.897   1.909  51.429  1.00  0.00     0.183 C 
HETATM    9  C8  UNL     1      23.787   2.297  52.526  1.00  0.00     0.034 C 
HETATM   10  C15 UNL     1      23.974   3.606  52.723  1.00  0.00     0.014 C 
ENDROOT
BRANCH   9  11
HETATM   11  N3  UNL     1      24.464   1.409  53.422  1.00  0.00    -0.358 N 
HETATM   12  H9  UNL     1      23.966   1.244  54.325  1.00  0.00     0.166 HD
BRANCH  11  13
HETATM   13  C9  UNL     1      25.693   0.710  53.332  1.00  0.00     0.034 A 
HETATM   14  C10 UNL     1      25.778  -0.526  52.742  1.00  0.00     0.032 A 
HETATM   15  C11 UNL     1      27.034  -1.109  52.701  1.00  0.00     0.046 A 
HETATM   16  C12 UNL     1      28.117  -0.446  53.240  1.00  0.00     0.138 A 
HETATM   17  F1  UNL     1      29.311  -1.075  53.167  1.00  0.00    -0.204 F 
HETATM   18  C13 UNL     1      28.003   0.780  53.821  1.00  0.00     0.074 A 
HETATM   19 CL1  UNL     1      29.439   1.543  54.475  1.00  0.00    -0.081 Cl
HETATM   20  C14 UNL     1      26.748   1.404  53.883  1.00  0.00     0.056 A 
ENDBRANCH  11  13
ENDBRANCH   9  11
BRANCH   1  21
HETATM   21  C1  UNL     1      22.046   2.247  49.211  1.00  0.00     0.194 C 
BRANCH  21  22
HETATM   22  O1  UNL     1      21.572   0.967  49.024  1.00  0.00    -0.399 OA
HETATM   23  H1  UNL     1      22.103   0.526  48.300  1.00  0.00     0.209 HD
ENDBRANCH  21  22
ENDBRANCH   1  21
TORSDOF 4
ENDMDL
MODEL 9
REMARK VINA RESULT:      -6.8      5.846      7.374
REMARK  4 active torsions:
REMARK  status: ('A' for Active; 'I' for Inactive)
REMARK    1  A    between atoms: O1_1  and  C1_2 
REMARK    2  A    between atoms: C1_2  and  C2_3 
REMARK    3  A    between atoms: C8_11  and  N3_12 
REMARK    4  A    between atoms: N3_12  and  C9_13 
ROOT
HETATM    1  C2  UNL     1      23.278   5.737  49.792  1.00  0.00     0.163 C 
HETATM    2  N1  UNL     1      23.524   5.908  48.383  1.00  0.00    -0.278 NA
HETATM    3  C3  UNL     1      23.963   6.769  47.560  1.00  0.00     0.077 C 
HETATM    4  C4  UNL     1      25.131   7.367  47.744  1.00  0.00     0.021 C 
HETATM    5  C5  UNL     1      26.211   7.014  48.723  1.00  0.00     0.075 C 
HETATM    6  C6  UNL     1      25.807   7.630  50.029  1.00  0.00     0.097 C 
HETATM    7  N2  UNL     1      24.933   7.110  50.839  1.00  0.00    -0.291 NA
HETATM    8  C7  UNL     1      24.520   5.719  50.618  1.00  0.00     0.183 C 
HETATM    9  C8  UNL     1      25.675   5.018  50.050  1.00  0.00     0.034 C 
HETATM   10  C15 UNL     1      26.196   5.518  48.926  1.00  0.00     0.014 C 
ENDROOT
BRANCH   9  11
HETATM   11  N3  UNL     1      26.312   3.857  50.593  1.00  0.00    -0.358 N 
HETATM   12  H9  UNL     1      27.351   3.847  50.490  1.00  0.00     0.166 HD
BRANCH  11  13
HETATM   13  C9  UNL     1      25.809   2.702  51.240  1.00  0.00     0.034 A 
HETATM   14  C10 UNL     1      24.465   2.518  51.450  1.00  0.00     0.032 A 
HETATM   15  C11 UNL     1      24.090   1.345  52.083  1.00  0.00     0.046 A 
HETATM   16  C12 UNL     1      25.052   0.434  52.467  1.00  0.00     0.138 A 
HETATM   17  F1  UNL     1      24.615  -0.688  53.080  1.00  0.00    -0.204 F 
HETATM   18  C13 UNL     1      26.379   0.642  52.247  1.00  0.00     0.074 A 
HETATM   19 CL1  UNL     1      27.525  -0.577  52.770  1.00  0.00    -0.081 Cl
HETATM   20  C14 UNL     1      26.801   1.819  51.609  1.00  0.00     0.056 A 
ENDBRANCH  11  13
ENDBRANCH   9  11
BRANCH   1  21
HETATM   21  C1  UNL     1      22.465   6.926  50.338  1.00  0.00     0.194 C 
BRANCH  21  22
HETATM   22  O1  UNL     1      22.026   6.711  51.626  1.00  0.00    -0.399 OA
HETATM   23  H1  UNL     1      21.220   7.277  51.795  1.00  0.00     0.209 HD
ENDBRANCH  21  22
ENDBRANCH   1  21
TORSDOF 4
ENDMDL
