MODEL 1
REMARK VINA RESULT:      -7.7      0.000      0.000
REMARK  5 active torsions:
REMARK  status: ('A' for Active; 'I' for Inactive)
REMARK    1  A    between atoms: P1_2  and  C2_3 
REMARK    2  A    between atoms: N1_7  and  C6_8 
REMARK    3  A    between atoms: C10_15  and  C11_16 
REMARK    4  A    between atoms: C11_16  and  N5_17 
REMARK    5  A    between atoms: C14_20  and  N6_21 
ROOT
HETATM    1  C6  UNL     1      23.194   2.188  50.244  1.00  0.00     0.161 A 
HETATM    2  N2  UNL     1      22.445   2.074  49.132  1.00  0.00    -0.220 NA
HETATM    3  C7  UNL     1      21.391   1.201  49.146  1.00  0.00     0.258 A 
HETATM    4  N3  UNL     1      21.117   0.479  50.248  1.00  0.00    -0.161 NA
HETATM    5  N4  UNL     1      21.846   0.581  51.344  1.00  0.00    -0.240 N 
HETATM    6  C8  UNL     1      21.851   0.037  52.596  1.00  0.00     0.119 A 
HETATM    7  C9  UNL     1      22.920   0.595  53.308  1.00  0.00     0.030 A 
HETATM    8  C10 UNL     1      23.605   1.510  52.487  1.00  0.00     0.004 A 
HETATM    9  C17 UNL     1      22.869   1.425  51.334  1.00  0.00     0.112 A 
ENDROOT
BRANCH   8  10
HETATM   10  C11 UNL     1      24.797   2.044  53.112  1.00  0.00     0.313 C 
BRANCH  10  11
HETATM   11  N5  UNL     1      25.968   1.189  53.095  1.00  0.00     0.092 NA
HETATM   12  C12 UNL     1      27.029   1.605  52.245  1.00  0.00     0.275 C 
HETATM   13  C13 UNL     1      28.198   2.200  53.026  1.00  0.00     0.065 C 
HETATM   14  C14 UNL     1      28.778   1.127  53.925  1.00  0.00     0.221 C 
HETATM   15  C15 UNL     1      27.725   0.154  54.378  1.00  0.00     0.065 C 
HETATM   16  C16 UNL     1      26.357   0.822  54.405  1.00  0.00     0.275 C 
BRANCH  14  17
HETATM   17  N6  UNL     1      29.343   1.784  55.083  1.00  0.00     0.083 N 
HETATM   18  H18 UNL     1      28.654   1.993  55.811  1.00  0.00     0.313 HD
HETATM   19  H19 UNL     1      30.143   1.207  55.428  1.00  0.00     0.313 HD
ENDBRANCH  14  17
ENDBRANCH  10  11
ENDBRANCH   8  10
BRANCH   1  20
HETATM   20  N1  UNL     1      24.143   3.219  50.053  1.00  0.00    -0.336 N 
HETATM   21  C5  UNL     1      25.494   3.311  49.620  1.00  0.00     0.093 A 
HETATM   22  C4  UNL     1      26.143   4.456  49.543  1.00  0.00     0.018 A 
HETATM   23  C3  UNL     1      25.544   5.736  49.888  1.00  0.00     0.011 A 
HETATM   24  C2  UNL     1      24.288   5.654  50.283  1.00  0.00    -0.038 A 
HETATM   25  C18 UNL     1      23.437   4.471  50.392  1.00  0.00     0.169 A 
BRANCH  24  26
HETATM   26  P1  UNL     1      23.533   7.244  50.717  1.00  0.00    -0.101 P 
HETATM   27  C1  UNL     1      21.683   7.199  50.661  1.00  0.00     0.045 C 
HETATM   28  H4  UNL     1      23.914   7.726  52.038  1.00  0.00     0.062 HD
ENDBRANCH  24  26
ENDBRANCH   1  20
TORSDOF 5
ENDMDL
MODEL 2
REMARK VINA RESULT:      -7.5      2.124      3.040
REMARK  5 active torsions:
REMARK  status: ('A' for Active; 'I' for Inactive)
REMARK    1  A    between atoms: P1_2  and  C2_3 
REMARK    2  A    between atoms: N1_7  and  C6_8 
REMARK    3  A    between atoms: C10_15  and  C11_16 
REMARK    4  A    between atoms: C11_16  and  N5_17 
REMARK    5  A    between atoms: C14_20  and  N6_21 
ROOT
HETATM    1  C6  UNL     1      22.286   1.278  52.589  1.00  0.00     0.161 A 
HETATM    2  N2  UNL     1      20.982   1.608  52.565  1.00  0.00    -0.220 NA
HETATM    3  C7  UNL     1      20.138   0.977  53.438  1.00  0.00     0.258 A 
HETATM    4  N3  UNL     1      20.607   0.053  54.295  1.00  0.00    -0.161 NA
HETATM    5  N4  UNL     1      21.885  -0.280  54.327  1.00  0.00    -0.240 N 
HETATM    6  C8  UNL     1      22.680  -1.128  55.041  1.00  0.00     0.119 A 
HETATM    7  C9  UNL     1      23.992  -0.992  54.573  1.00  0.00     0.030 A 
HETATM    8  C10 UNL     1      24.026  -0.038  53.540  1.00  0.00     0.004 A 
HETATM    9  C17 UNL     1      22.706   0.327  53.482  1.00  0.00     0.112 A 
ENDROOT
BRANCH   8  10
HETATM   10  C11 UNL     1      25.330   0.076  52.921  1.00  0.00     0.313 C 
BRANCH  10  11
HETATM   11  N5  UNL     1      26.279   0.951  53.582  1.00  0.00     0.092 NA
HETATM   12  C12 UNL     1      26.818   0.471  54.807  1.00  0.00     0.275 C 
HETATM   13  C13 UNL     1      28.259  -0.011  54.657  1.00  0.00     0.065 C 
HETATM   14  C14 UNL     1      29.124   1.164  54.251  1.00  0.00     0.221 C 
HETATM   15  C15 UNL     1      28.359   2.155  53.419  1.00  0.00     0.065 C 
HETATM   16  C16 UNL     1      27.230   1.463  52.667  1.00  0.00     0.275 C 
BRANCH  14  17
HETATM   17  N6  UNL     1      30.228   0.647  53.472  1.00  0.00     0.083 N 
HETATM   18  H18 UNL     1      30.059  -0.291  53.096  1.00  0.00     0.313 HD
HETATM   19  H19 UNL     1      30.465   1.348  52.735  1.00  0.00     0.313 HD
ENDBRANCH  14  17
ENDBRANCH  10  11
ENDBRANCH   8  10
BRANCH   1  20
HETATM   20  N1  UNL     1      22.989   2.125  51.701  1.00  0.00    -0.336 N 
HETATM   21  C5  UNL     1      24.054   3.063  51.795  1.00  0.00     0.093 A 
HETATM   22  C4  UNL     1      24.513   3.729  50.753  1.00  0.00     0.018 A 
HETATM   23  C3  UNL     1      23.981   3.570  49.408  1.00  0.00     0.011 A 
HETATM   24  C2  UNL     1      22.998   2.695  49.318  1.00  0.00    -0.038 A 
HETATM   25  C18 UNL     1      22.407   1.869  50.368  1.00  0.00     0.169 A 
BRANCH  24  26
HETATM   26  P1  UNL     1      22.327   2.492  47.647  1.00  0.00    -0.101 P 
HETATM   27  C1  UNL     1      20.537   2.954  47.531  1.00  0.00     0.045 C 
HETATM   28  H4  UNL     1      23.038   3.264  46.637  1.00  0.00     0.062 HD
ENDBRANCH  24  26
ENDBRANCH   1  20
TORSDOF 5
ENDMDL
MODEL 3
REMARK VINA RESULT:      -7.4      1.834      2.753
REMARK  5 active torsions:
REMARK  status: ('A' for Active; 'I' for Inactive)
REMARK    1  A    between atoms: P1_2  and  C2_3 
REMARK    2  A    between atoms: N1_7  and  C6_8 
REMARK    3  A    between atoms: C10_15  and  C11_16 
REMARK    4  A    between atoms: C11_16  and  N5_17 
REMARK    5  A    between atoms: C14_20  and  N6_21 
ROOT
HETATM    1  C6  UNL     1      21.081   0.613  51.819  1.00  0.00     0.161 A 
HETATM    2  N2  UNL     1      19.765   0.571  51.542  1.00  0.00    -0.220 NA
HETATM    3  C7  UNL     1      18.951  -0.155  52.368  1.00  0.00     0.258 A 
HETATM    4  N3  UNL     1      19.461  -0.808  53.428  1.00  0.00    -0.161 NA
HETATM    5  N4  UNL     1      20.751  -0.776  53.709  1.00  0.00    -0.240 N 
HETATM    6  C8  UNL     1      21.579  -1.285  54.667  1.00  0.00     0.119 A 
HETATM    7  C9  UNL     1      22.882  -0.854  54.389  1.00  0.00     0.030 A 
HETATM    8  C10 UNL     1      22.876  -0.058  53.229  1.00  0.00     0.004 A 
HETATM    9  C17 UNL     1      21.544  -0.074  52.910  1.00  0.00     0.112 A 
ENDROOT
BRANCH   8  10
HETATM   10  C11 UNL     1      24.206   0.330  52.807  1.00  0.00     0.313 C 
BRANCH  10  11
HETATM   11  N5  UNL     1      25.306  -0.185  53.598  1.00  0.00     0.092 NA
HETATM   12  C12 UNL     1      26.152  -1.125  52.949  1.00  0.00     0.275 C 
HETATM   13  C13 UNL     1      27.494  -0.518  52.548  1.00  0.00     0.065 C 
HETATM   14  C14 UNL     1      28.228  -0.091  53.802  1.00  0.00     0.221 C 
HETATM   15  C15 UNL     1      27.276   0.332  54.885  1.00  0.00     0.065 C 
HETATM   16  C16 UNL     1      25.979   0.855  54.282  1.00  0.00     0.275 C 
BRANCH  14  17
HETATM   17  N6  UNL     1      29.075   1.029  53.455  1.00  0.00     0.083 N 
HETATM   18  H18 UNL     1      28.859   1.882  53.978  1.00  0.00     0.313 HD
HETATM   19  H19 UNL     1      30.071   0.728  53.552  1.00  0.00     0.313 HD
ENDBRANCH  14  17
ENDBRANCH  10  11
ENDBRANCH   8  10
BRANCH   1  20
HETATM   20  N1  UNL     1      21.710   1.506  50.921  1.00  0.00    -0.336 N 
HETATM   21  C5  UNL     1      22.266   1.434  49.614  1.00  0.00     0.093 A 
HETATM   22  C4  UNL     1      22.806   2.474  49.009  1.00  0.00     0.018 A 
HETATM   23  C3  UNL     1      22.884   3.795  49.614  1.00  0.00     0.011 A 
HETATM   24  C2  UNL     1      22.362   3.866  50.823  1.00  0.00    -0.038 A 
HETATM   25  C18 UNL     1      21.710   2.816  51.603  1.00  0.00     0.169 A 
BRANCH  24  26
HETATM   26  P1  UNL     1      22.457   5.507  51.586  1.00  0.00    -0.101 P 
HETATM   27  C1  UNL     1      24.034   6.394  51.188  1.00  0.00     0.045 C 
HETATM   28  H4  UNL     1      21.360   6.388  51.208  1.00  0.00     0.062 HD
ENDBRANCH  24  26
ENDBRANCH   1  20
TORSDOF 5
ENDMDL
MODEL 4
REMARK VINA RESULT:      -7.2      2.849      5.834
REMARK  5 active torsions:
REMARK  status: ('A' for Active; 'I' for Inactive)
REMARK    1  A    between atoms: P1_2  and  C2_3 
REMARK    2  A    between atoms: N1_7  and  C6_8 
REMARK    3  A    between atoms: C10_15  and  C11_16 
REMARK    4  A    between atoms: C11_16  and  N5_17 
REMARK    5  A    between atoms: C14_20  and  N6_21 
ROOT
HETATM    1  C6  UNL     1      23.603  -0.075  53.541  1.00  0.00     0.161 A 
HETATM    2  N2  UNL     1      23.901  -0.751  54.665  1.00  0.00    -0.220 NA
HETATM    3  C7  UNL     1      22.892  -1.414  55.310  1.00  0.00     0.258 A 
HETATM    4  N3  UNL     1      21.638  -1.386  54.826  1.00  0.00    -0.161 NA
HETATM    5  N4  UNL     1      21.332  -0.725  53.725  1.00  0.00    -0.240 N 
HETATM    6  C8  UNL     1      20.219  -0.499  52.970  1.00  0.00     0.119 A 
HETATM    7  C9  UNL     1      20.585   0.305  51.884  1.00  0.00     0.030 A 
HETATM    8  C10 UNL     1      21.959   0.595  51.956  1.00  0.00     0.004 A 
HETATM    9  C17 UNL     1      22.307  -0.080  53.097  1.00  0.00     0.112 A 
ENDROOT
BRANCH   8  10
HETATM   10  C11 UNL     1      22.394   1.522  50.932  1.00  0.00     0.313 C 
BRANCH  10  11
HETATM   11  N5  UNL     1      22.052   2.915  51.141  1.00  0.00     0.092 NA
HETATM   12  C12 UNL     1      22.266   3.417  52.454  1.00  0.00     0.275 C 
HETATM   13  C13 UNL     1      23.498   4.315  52.537  1.00  0.00     0.065 C 
HETATM   14  C14 UNL     1      23.277   5.527  51.657  1.00  0.00     0.221 C 
HETATM   15  C15 UNL     1      22.414   5.201  50.470  1.00  0.00     0.065 C 
HETATM   16  C16 UNL     1      22.552   3.730  50.098  1.00  0.00     0.275 C 
BRANCH  14  17
HETATM   17  N6  UNL     1      24.572   5.973  51.190  1.00  0.00     0.083 N 
HETATM   18  H18 UNL     1      24.634   6.987  51.066  1.00  0.00     0.313 HD
HETATM   19  H19 UNL     1      25.300   5.592  51.835  1.00  0.00     0.313 HD
ENDBRANCH  14  17
ENDBRANCH  10  11
ENDBRANCH   8  10
BRANCH   1  20
HETATM   20  N1  UNL     1      24.799   0.429  52.979  1.00  0.00    -0.336 N 
HETATM   21  C5  UNL     1      25.165   1.153  51.811  1.00  0.00     0.093 A 
HETATM   22  C4  UNL     1      26.410   1.494  51.544  1.00  0.00     0.018 A 
HETATM   23  C3  UNL     1      27.530   1.169  52.414  1.00  0.00     0.011 A 
HETATM   24  C2  UNL     1      27.191   0.504  53.502  1.00  0.00    -0.038 A 
HETATM   25  C18 UNL     1      25.863   0.084  53.943  1.00  0.00     0.169 A 
BRANCH  24  26
HETATM   26  P1  UNL     1      28.580   0.093  54.592  1.00  0.00    -0.101 P 
HETATM   27  C1  UNL     1      29.852  -0.967  53.763  1.00  0.00     0.045 C 
HETATM   28  H4  UNL     1      29.269   1.261  55.121  1.00  0.00     0.062 HD
ENDBRANCH  24  26
ENDBRANCH   1  20
TORSDOF 5
ENDMDL
MODEL 5
REMARK VINA RESULT:      -7.1      2.383      5.594
REMARK  5 active torsions:
REMARK  status: ('A' for Active; 'I' for Inactive)
REMARK    1  A    between atoms: P1_2  and  C2_3 
REMARK    2  A    between atoms: N1_7  and  C6_8 
REMARK    3  A    between atoms: C10_15  and  C11_16 
REMARK    4  A    between atoms: C11_16  and  N5_17 
REMARK    5  A    between atoms: C14_20  and  N6_21 
ROOT
HETATM    1  C6  UNL     1      26.908   1.709  53.341  1.00  0.00     0.161 A 
HETATM    2  N2  UNL     1      27.918   2.460  53.818  1.00  0.00    -0.220 NA
HETATM    3  C7  UNL     1      29.096   1.838  54.130  1.00  0.00     0.258 A 
HETATM    4  N3  UNL     1      29.233   0.510  53.962  1.00  0.00    -0.161 NA
HETATM    5  N4  UNL     1      28.249  -0.237  53.497  1.00  0.00    -0.240 N 
HETATM    6  C8  UNL     1      28.047  -1.553  53.198  1.00  0.00     0.119 A 
HETATM    7  C9  UNL     1      26.740  -1.694  52.715  1.00  0.00     0.030 A 
HETATM    8  C10 UNL     1      26.103  -0.439  52.711  1.00  0.00     0.004 A 
HETATM    9  C17 UNL     1      27.105   0.362  53.194  1.00  0.00     0.112 A 
ENDROOT
BRANCH   8  10
HETATM   10  C11 UNL     1      24.707  -0.518  52.336  1.00  0.00     0.313 C 
BRANCH  10  11
HETATM   11  N5  UNL     1      23.751  -0.058  53.324  1.00  0.00     0.092 NA
HETATM   12  C12 UNL     1      22.616   0.632  52.816  1.00  0.00     0.275 C 
HETATM   13  C13 UNL     1      21.353  -0.226  52.850  1.00  0.00     0.065 C 
HETATM   14  C14 UNL     1      21.030  -0.558  54.292  1.00  0.00     0.221 C 
HETATM   15  C15 UNL     1      22.273  -0.659  55.130  1.00  0.00     0.065 C 
HETATM   16  C16 UNL     1      23.464  -1.069  54.272  1.00  0.00     0.275 C 
BRANCH  14  17
HETATM   17  N6  UNL     1      20.346  -1.833  54.306  1.00  0.00     0.083 N 
HETATM   18  H18 UNL     1      20.643  -2.463  53.555  1.00  0.00     0.313 HD
HETATM   19  H19 UNL     1      20.451  -2.249  55.258  1.00  0.00     0.313 HD
ENDBRANCH  14  17
ENDBRANCH  10  11
ENDBRANCH   8  10
BRANCH   1  20
HETATM   20  N1  UNL     1      25.839   2.560  52.975  1.00  0.00    -0.336 N 
HETATM   21  C5  UNL     1      24.714   3.141  53.623  1.00  0.00     0.093 A 
HETATM   22  C4  UNL     1      23.855   3.923  52.998  1.00  0.00     0.018 A 
HETATM   23  C3  UNL     1      23.974   4.272  51.590  1.00  0.00     0.011 A 
HETATM   24  C2  UNL     1      25.021   3.740  50.989  1.00  0.00    -0.038 A 
HETATM   25  C18 UNL     1      26.064   2.885  51.552  1.00  0.00     0.169 A 
BRANCH  24  26
HETATM   26  P1  UNL     1      25.175   4.167  49.235  1.00  0.00    -0.101 P 
HETATM   27  C1  UNL     1      26.599   5.301  48.894  1.00  0.00     0.045 C 
HETATM   28  H4  UNL     1      25.329   3.008  48.366  1.00  0.00     0.062 HD
ENDBRANCH  24  26
ENDBRANCH   1  20
TORSDOF 5
ENDMDL
MODEL 6
REMARK VINA RESULT:      -6.9      2.673      6.324
REMARK  5 active torsions:
REMARK  status: ('A' for Active; 'I' for Inactive)
REMARK    1  A    between atoms: P1_2  and  C2_3 
REMARK    2  A    between atoms: N1_7  and  C6_8 
REMARK    3  A    between atoms: C10_15  and  C11_16 
REMARK    4  A    between atoms: C11_16  and  N5_17 
REMARK    5  A    between atoms: C14_20  and  N6_21 
ROOT
HETATM    1  C6  UNL     1      23.583   0.806  52.441  1.00  0.00     0.161 A 
HETATM    2  N2  UNL     1      24.890   0.854  52.126  1.00  0.00    -0.220 NA
HETATM    3  C7  UNL     1      25.769   0.141  52.895  1.00  0.00     0.258 A 
HETATM    4  N3  UNL     1      25.330  -0.588  53.937  1.00  0.00    -0.161 NA
HETATM    5  N4  UNL     1      24.050  -0.641  54.258  1.00  0.00    -0.240 N 
HETATM    6  C8  UNL     1      23.280  -1.259  55.199  1.00  0.00     0.119 A 
HETATM    7  C9  UNL     1      21.946  -0.895  54.976  1.00  0.00     0.030 A 
HETATM    8  C10 UNL     1      21.874  -0.027  53.872  1.00  0.00     0.004 A 
HETATM    9  C17 UNL     1      23.195   0.050  53.516  1.00  0.00     0.112 A 
ENDROOT
BRANCH   8  10
HETATM   10  C11 UNL     1      20.540   0.490  53.648  1.00  0.00     0.313 C 
BRANCH  10  11
HETATM   11  N5  UNL     1      19.733  -0.218  52.674  1.00  0.00     0.092 NA
HETATM   12  C12 UNL     1      19.036  -1.360  53.157  1.00  0.00     0.275 C 
HETATM   13  C13 UNL     1      17.543  -1.096  53.333  1.00  0.00     0.065 C 
HETATM   14  C14 UNL     1      16.942  -0.780  51.978  1.00  0.00     0.221 C 
HETATM   15  C15 UNL     1      17.932  -0.095  51.078  1.00  0.00     0.065 C 
HETATM   16  C16 UNL     1      18.956   0.677  51.901  1.00  0.00     0.275 C 
BRANCH  14  17
HETATM   17  N6  UNL     1      15.812   0.098  52.193  1.00  0.00     0.083 N 
HETATM   18  H18 UNL     1      14.928  -0.401  52.331  1.00  0.00     0.313 HD
HETATM   19  H19 UNL     1      16.047   0.745  52.979  1.00  0.00     0.313 HD
ENDBRANCH  14  17
ENDBRANCH  10  11
ENDBRANCH   8  10
BRANCH   1  20
HETATM   20  N1  UNL     1      22.849   1.509  51.458  1.00  0.00    -0.336 N 
HETATM   21  C5  UNL     1      22.139   1.181  50.270  1.00  0.00     0.093 A 
HETATM   22  C4  UNL     1      21.531   2.086  49.529  1.00  0.00     0.018 A 
HETATM   23  C3  UNL     1      21.522   3.505  49.852  1.00  0.00     0.011 A 
HETATM   24  C2  UNL     1      22.174   3.811  50.957  1.00  0.00    -0.038 A 
HETATM   25  C18 UNL     1      22.867   2.921  51.888  1.00  0.00     0.169 A 
BRANCH  24  26
HETATM   26  P1  UNL     1      22.172   5.576  51.366  1.00  0.00    -0.101 P 
HETATM   27  C1  UNL     1      23.843   6.355  51.192  1.00  0.00     0.045 C 
HETATM   28  H4  UNL     1      21.244   6.358  50.560  1.00  0.00     0.062 HD
ENDBRANCH  24  26
ENDBRANCH   1  20
TORSDOF 5
ENDMDL
MODEL 7
REMARK VINA RESULT:      -6.9      2.633      6.518
REMARK  5 active torsions:
REMARK  status: ('A' for Active; 'I' for Inactive)
REMARK    1  A    between atoms: P1_2  and  C2_3 
REMARK    2  A    between atoms: N1_7  and  C6_8 
REMARK    3  A    between atoms: C10_15  and  C11_16 
REMARK    4  A    between atoms: C11_16  and  N5_17 
REMARK    5  A    between atoms: C14_20  and  N6_21 
ROOT
HETATM    1  C6  UNL     1      25.691   3.149  50.740  1.00  0.00     0.161 A 
HETATM    2  N2  UNL     1      26.835   3.213  50.035  1.00  0.00    -0.220 NA
HETATM    3  C7  UNL     1      27.027   4.287  49.208  1.00  0.00     0.258 A 
HETATM    4  N3  UNL     1      26.092   5.248  49.108  1.00  0.00    -0.161 NA
HETATM    5  N4  UNL     1      24.964   5.195  49.793  1.00  0.00    -0.240 N 
HETATM    6  C8  UNL     1      23.847   5.964  49.942  1.00  0.00     0.119 A 
HETATM    7  C9  UNL     1      23.000   5.328  50.857  1.00  0.00     0.030 A 
HETATM    8  C10 UNL     1      23.595   4.130  51.294  1.00  0.00     0.004 A 
HETATM    9  C17 UNL     1      24.773   4.156  50.595  1.00  0.00     0.112 A 
ENDROOT
BRANCH   8  10
HETATM   10  C11 UNL     1      22.728   3.352  52.154  1.00  0.00     0.313 C 
BRANCH  10  11
HETATM   11  N5  UNL     1      21.502   2.863  51.556  1.00  0.00     0.092 NA
HETATM   12  C12 UNL     1      21.638   1.753  50.677  1.00  0.00     0.275 C 
HETATM   13  C13 UNL     1      21.159   0.450  51.311  1.00  0.00     0.065 C 
HETATM   14  C14 UNL     1      19.678   0.569  51.607  1.00  0.00     0.221 C 
HETATM   15  C15 UNL     1      19.289   1.985  51.927  1.00  0.00     0.065 C 
HETATM   16  C16 UNL     1      20.471   2.743  52.518  1.00  0.00     0.275 C 
BRANCH  14  17
HETATM   17  N6  UNL     1      19.389  -0.270  52.749  1.00  0.00     0.083 N 
HETATM   18  H18 UNL     1      18.621   0.080  53.329  1.00  0.00     0.313 HD
HETATM   19  H19 UNL     1      19.235  -1.245  52.408  1.00  0.00     0.313 HD
ENDBRANCH  14  17
ENDBRANCH  10  11
ENDBRANCH   8  10
BRANCH   1  20
HETATM   20  N1  UNL     1      25.751   2.035  51.609  1.00  0.00    -0.336 N 
HETATM   21  C5  UNL     1      24.874   0.988  52.006  1.00  0.00     0.093 A 
HETATM   22  C4  UNL     1      25.222   0.055  52.871  1.00  0.00     0.018 A 
HETATM   23  C3  UNL     1      26.533   0.001  53.500  1.00  0.00     0.011 A 
HETATM   24  C2  UNL     1      27.350   0.967  53.127  1.00  0.00    -0.038 A 
HETATM   25  C18 UNL     1      27.118   2.044  52.168  1.00  0.00     0.169 A 
BRANCH  24  26
HETATM   26  P1  UNL     1      28.985   0.909  53.908  1.00  0.00    -0.101 P 
HETATM   27  C1  UNL     1      29.799  -0.746  53.747  1.00  0.00     0.045 C 
HETATM   28  H4  UNL     1      29.914   1.900  53.383  1.00  0.00     0.062 HD
ENDBRANCH  24  26
ENDBRANCH   1  20
TORSDOF 5
ENDMDL
MODEL 8
REMARK VINA RESULT:      -6.7      2.315      4.699
REMARK  5 active torsions:
REMARK  status: ('A' for Active; 'I' for Inactive)
REMARK    1  A    between atoms: P1_2  and  C2_3 
REMARK    2  A    between atoms: N1_7  and  C6_8 
REMARK    3  A    between atoms: C10_15  and  C11_16 
REMARK    4  A    between atoms: C11_16  and  N5_17 
REMARK    5  A    between atoms: C14_20  and  N6_21 
ROOT
HETATM    1  C6  UNL     1      23.557   3.840  51.421  1.00  0.00     0.161 A 
HETATM    2  N2  UNL     1      22.775   4.915  51.628  1.00  0.00    -0.220 NA
HETATM    3  C7  UNL     1      23.191   6.122  51.136  1.00  0.00     0.258 A 
HETATM    4  N3  UNL     1      24.351   6.223  50.463  1.00  0.00    -0.161 NA
HETATM    5  N4  UNL     1      25.127   5.175  50.255  1.00  0.00    -0.240 N 
HETATM    6  C8  UNL     1      26.313   4.916  49.632  1.00  0.00     0.119 A 
HETATM    7  C9  UNL     1      26.588   3.551  49.770  1.00  0.00     0.030 A 
HETATM    8  C10 UNL     1      25.555   2.934  50.499  1.00  0.00     0.004 A 
HETATM    9  C17 UNL     1      24.729   4.003  50.732  1.00  0.00     0.112 A 
ENDROOT
BRANCH   8  10
HETATM   10  C11 UNL     1      25.823   1.541  50.787  1.00  0.00     0.313 C 
BRANCH  10  11
HETATM   11  N5  UNL     1      26.851   1.277  51.774  1.00  0.00     0.092 NA
HETATM   12  C12 UNL     1      26.933   2.203  52.850  1.00  0.00     0.275 C 
HETATM   13  C13 UNL     1      26.365   1.635  54.148  1.00  0.00     0.065 C 
HETATM   14  C14 UNL     1      27.199   0.440  54.561  1.00  0.00     0.221 C 
HETATM   15  C15 UNL     1      27.760  -0.283  53.369  1.00  0.00     0.065 C 
HETATM   16  C16 UNL     1      26.864  -0.086  52.154  1.00  0.00     0.275 C 
BRANCH  14  17
HETATM   17  N6  UNL     1      26.340  -0.461  55.298  1.00  0.00     0.083 N 
HETATM   18  H18 UNL     1      25.800  -1.093  54.698  1.00  0.00     0.313 HD
HETATM   19  H19 UNL     1      26.922  -0.963  56.005  1.00  0.00     0.313 HD
ENDBRANCH  14  17
ENDBRANCH  10  11
ENDBRANCH   8  10
BRANCH   1  20
HETATM   20  N1  UNL     1      22.889   2.689  51.903  1.00  0.00    -0.336 N 
HETATM   21  C5  UNL     1      23.101   1.727  52.928  1.00  0.00     0.093 A 
HETATM   22  C4  UNL     1      22.273   0.724  53.147  1.00  0.00     0.018 A 
HETATM   23  C3  UNL     1      21.064   0.503  52.368  1.00  0.00     0.011 A 
HETATM   24  C2  UNL     1      20.862   1.399  51.421  1.00  0.00    -0.038 A 
HETATM   25  C18 UNL     1      21.668   2.570  51.080  1.00  0.00     0.169 A 
BRANCH  24  26
HETATM   26  P1  UNL     1      19.360   1.132  50.443  1.00  0.00    -0.101 P 
HETATM   27  C1  UNL     1      18.176  -0.040  51.253  1.00  0.00     0.045 C 
HETATM   28  H4  UNL     1      18.627   2.357  50.157  1.00  0.00     0.062 HD
ENDBRANCH  24  26
ENDBRANCH   1  20
TORSDOF 5
ENDMDL
MODEL 9
REMARK VINA RESULT:      -6.7      2.768      6.288
REMARK  5 active torsions:
REMARK  status: ('A' for Active; 'I' for Inactive)
REMARK    1  A    between atoms: P1_2  and  C2_3 
REMARK    2  A    between atoms: N1_7  and  C6_8 
REMARK    3  A    between atoms: C10_15  and  C11_16 
REMARK    4  A    between atoms: C11_16  and  N5_17 
REMARK    5  A    between atoms: C14_20  and  N6_21 
ROOT
HETATM    1  C6  UNL     1      23.554   1.336  52.804  1.00  0.00     0.161 A 
HETATM    2  N2  UNL     1      24.893   1.249  52.709  1.00  0.00    -0.220 NA
HETATM    3  C7  UNL     1      25.519   0.203  53.332  1.00  0.00     0.258 A 
HETATM    4  N3  UNL     1      24.807  -0.709  54.018  1.00  0.00    -0.161 NA
HETATM    5  N4  UNL     1      23.493  -0.633  54.119  1.00  0.00    -0.240 N 
HETATM    6  C8  UNL     1      22.491  -1.355  54.697  1.00  0.00     0.119 A 
HETATM    7  C9  UNL     1      21.276  -0.720  54.412  1.00  0.00     0.030 A 
HETATM    8  C10 UNL     1      21.518   0.430  53.639  1.00  0.00     0.004 A 
HETATM    9  C17 UNL     1      22.882   0.380  53.518  1.00  0.00     0.112 A 
ENDROOT
BRANCH   8  10
HETATM   10  C11 UNL     1      20.322   1.211  53.401  1.00  0.00     0.313 C 
BRANCH  10  11
HETATM   11  N5  UNL     1      19.935   1.385  52.015  1.00  0.00     0.092 NA
HETATM   12  C12 UNL     1      19.392   0.238  51.372  1.00  0.00     0.275 C 
HETATM   13  C13 UNL     1      17.879   0.333  51.196  1.00  0.00     0.065 C 
HETATM   14  C14 UNL     1      17.568   1.507  50.290  1.00  0.00     0.221 C 
HETATM   15  C15 UNL     1      18.582   2.607  50.439  1.00  0.00     0.065 C 
HETATM   16  C16 UNL     1      19.199   2.579  51.832  1.00  0.00     0.275 C 
BRANCH  14  17
HETATM   17  N6  UNL     1      16.265   2.013  50.659  1.00  0.00     0.083 N 
HETATM   18  H18 UNL     1      15.679   2.259  49.855  1.00  0.00     0.313 HD
HETATM   19  H19 UNL     1      15.815   1.322  51.300  1.00  0.00     0.313 HD
ENDBRANCH  14  17
ENDBRANCH  10  11
ENDBRANCH   8  10
BRANCH   1  20
HETATM   20  N1  UNL     1      23.107   2.409  51.997  1.00  0.00    -0.336 N 
HETATM   21  C5  UNL     1      22.787   3.781  52.190  1.00  0.00     0.093 A 
HETATM   22  C4  UNL     1      22.380   4.563  51.210  1.00  0.00     0.018 A 
HETATM   23  C3  UNL     1      22.221   4.105  49.838  1.00  0.00     0.011 A 
HETATM   24  C2  UNL     1      22.525   2.835  49.655  1.00  0.00    -0.038 A 
HETATM   25  C18 UNL     1      23.012   1.860  50.630  1.00  0.00     0.169 A 
BRANCH  24  26
HETATM   26  P1  UNL     1      22.328   2.254  47.950  1.00  0.00    -0.101 P 
HETATM   27  C1  UNL     1      21.300   3.397  46.917  1.00  0.00     0.045 C 
HETATM   28  H4  UNL     1      23.592   2.061  47.252  1.00  0.00     0.062 HD
ENDBRANCH  24  26
ENDBRANCH   1  20
TORSDOF 5
ENDMDL
