MODEL 1
REMARK VINA RESULT:      -8.1      0.000      0.000
REMARK  3 active torsions:
REMARK  status: ('A' for Active; 'I' for Inactive)
REMARK    1  A    between atoms: C5_5  and  C6_6 
REMARK    2  A    between atoms: C14_21  and  C15_22 
REMARK    3  A    between atoms: C18_25  and  O1_26 
ROOT
HETATM    1  C1  UNL     1      25.419   6.759  50.356  1.00  0.00     0.047 C 
HETATM    2  C2  UNL     1      24.384   6.063  49.609  1.00  0.00    -0.033 C 
HETATM    3  C3  UNL     1      24.134   6.099  48.306  1.00  0.00    -0.010 C 
HETATM    4  C4  UNL     1      23.005   5.260  47.904  1.00  0.00     0.058 C 
HETATM    5  C5  UNL     1      22.224   4.819  46.940  1.00  0.00     0.034 C 
HETATM    6  C7  UNL     1      21.306   3.836  47.480  1.00  0.00     0.008 C 
HETATM    7  C8  UNL     1      20.746   3.063  48.382  1.00  0.00    -0.026 C 
HETATM    8  C9  UNL     1      20.030   2.159  49.265  1.00  0.00     0.032 C 
HETATM    9  C10 UNL     1      20.939   1.080  49.775  1.00  0.00     0.041 C 
HETATM   10  P1  UNL     1      22.448   1.577  50.662  1.00  0.00    -0.076 P 
HETATM   11  C11 UNL     1      22.332   3.151  51.579  1.00  0.00     0.074 C 
HETATM   12  N1  UNL     1      21.265   3.918  51.752  1.00  0.00    -0.244 NA
HETATM   13  C12 UNL     1      21.327   5.323  51.360  1.00  0.00     0.230 C 
HETATM   14  N2  UNL     1      22.341   6.067  50.919  1.00  0.00    -0.243 NA
HETATM   15  C13 UNL     1      23.561   5.305  50.535  1.00  0.00     0.373 C 
HETATM   16  N3  UNL     1      24.220   4.760  51.660  1.00  0.00     0.127 N 
HETATM   17  C14 UNL     1      23.645   3.557  52.194  1.00  0.00     0.308 C 
HETATM   18  H12 UNL     1      23.522   1.742  49.690  1.00  0.00     0.064 HD
HETATM   19  H15 UNL     1      24.372   5.507  52.372  1.00  0.00     0.320 HD
ENDROOT
BRANCH  17  20
HETATM   20  C15 UNL     1      24.605   2.446  52.308  1.00  0.00    -0.019 A 
HETATM   21  C16 UNL     1      25.766   2.366  51.528  1.00  0.00     0.012 A 
HETATM   22  C17 UNL     1      26.686   1.340  51.603  1.00  0.00     0.037 A 
HETATM   23  C18 UNL     1      26.473   0.313  52.497  1.00  0.00     0.065 A 
HETATM   24  C19 UNL     1      25.357   0.335  53.287  1.00  0.00     0.037 A 
HETATM   25  C20 UNL     1      24.478   1.377  53.169  1.00  0.00     0.012 A 
BRANCH  23  26
HETATM   26  O1  UNL     1      27.380  -0.717  52.584  1.00  0.00    -0.361 OA
HETATM   27  H19 UNL     1      27.509  -1.394  51.855  1.00  0.00     0.217 HD
ENDBRANCH  23  26
ENDBRANCH  17  20
BRANCH   5  28
HETATM   28  C6  UNL     1      21.855   4.818  45.487  1.00  0.00     0.414 C 
HETATM   29  F1  UNL     1      20.544   5.115  45.332  1.00  0.00    -0.166 F 
HETATM   30  F2  UNL     1      22.591   5.696  44.745  1.00  0.00    -0.166 F 
HETATM   31  F3  UNL     1      22.038   3.525  45.027  1.00  0.00    -0.166 F 
ENDBRANCH   5  28
TORSDOF 3
ENDMDL
MODEL 2
REMARK VINA RESULT:      -7.8      4.293      6.953
REMARK  3 active torsions:
REMARK  status: ('A' for Active; 'I' for Inactive)
REMARK    1  A    between atoms: C5_5  and  C6_6 
REMARK    2  A    between atoms: C14_21  and  C15_22 
REMARK    3  A    between atoms: C18_25  and  O1_26 
ROOT
HETATM    1  C1  UNL     1      19.290   3.466  51.946  1.00  0.00     0.047 C 
HETATM    2  C2  UNL     1      20.610   2.881  52.110  1.00  0.00    -0.033 C 
HETATM    3  C3  UNL     1      20.939   1.709  52.639  1.00  0.00    -0.010 C 
HETATM    4  C4  UNL     1      22.378   1.447  52.634  1.00  0.00     0.058 C 
HETATM    5  C5  UNL     1      23.373   0.640  52.941  1.00  0.00     0.034 C 
HETATM    6  C7  UNL     1      24.613   1.198  52.442  1.00  0.00     0.008 C 
HETATM    7  C8  UNL     1      25.403   2.050  51.831  1.00  0.00    -0.026 C 
HETATM    8  C9  UNL     1      26.397   2.900  51.196  1.00  0.00     0.032 C 
HETATM    9  C10 UNL     1      26.176   2.962  49.714  1.00  0.00     0.041 C 
HETATM   10  P1  UNL     1      24.555   3.528  49.110  1.00  0.00    -0.076 P 
HETATM   11  C11 UNL     1      23.693   4.720  50.190  1.00  0.00     0.074 C 
HETATM   12  N1  UNL     1      24.141   5.288  51.301  1.00  0.00    -0.244 NA
HETATM   13  C12 UNL     1      23.365   5.160  52.531  1.00  0.00     0.230 C 
HETATM   14  N2  UNL     1      22.164   4.629  52.758  1.00  0.00    -0.243 NA
HETATM   15  C13 UNL     1      21.608   3.823  51.636  1.00  0.00     0.373 C 
HETATM   16  N3  UNL     1      21.237   4.631  50.538  1.00  0.00     0.127 N 
HETATM   17  C14 UNL     1      22.314   5.058  49.690  1.00  0.00     0.308 C 
HETATM   18  H12 UNL     1      23.678   2.370  48.988  1.00  0.00     0.064 HD
HETATM   19  H15 UNL     1      20.626   5.410  50.868  1.00  0.00     0.320 HD
ENDROOT
BRANCH  17  20
HETATM   20  C15 UNL     1      22.111   4.726  48.268  1.00  0.00    -0.019 A 
HETATM   21  C16 UNL     1      22.479   5.590  47.230  1.00  0.00     0.012 A 
HETATM   22  C17 UNL     1      22.302   5.317  45.888  1.00  0.00     0.037 A 
HETATM   23  C18 UNL     1      21.726   4.120  45.519  1.00  0.00     0.065 A 
HETATM   24  C19 UNL     1      21.345   3.235  46.488  1.00  0.00     0.037 A 
HETATM   25  C20 UNL     1      21.544   3.559  47.803  1.00  0.00     0.012 A 
BRANCH  23  26
HETATM   26  O1  UNL     1      21.542   3.832  44.187  1.00  0.00    -0.361 OA
HETATM   27  H19 UNL     1      22.230   4.036  43.485  1.00  0.00     0.217 HD
ENDBRANCH  23  26
ENDBRANCH  17  20
BRANCH   5  28
HETATM   28  C6  UNL     1      23.836  -0.652  53.543  1.00  0.00     0.414 C 
HETATM   29  F1  UNL     1      25.056  -0.987  53.063  1.00  0.00    -0.166 F 
HETATM   30  F2  UNL     1      23.899  -0.619  54.906  1.00  0.00    -0.166 F 
HETATM   31  F3  UNL     1      22.950  -1.630  53.124  1.00  0.00    -0.166 F 
ENDBRANCH   5  28
TORSDOF 3
ENDMDL
MODEL 3
REMARK VINA RESULT:      -7.7      1.917      2.585
REMARK  3 active torsions:
REMARK  status: ('A' for Active; 'I' for Inactive)
REMARK    1  A    between atoms: C5_5  and  C6_6 
REMARK    2  A    between atoms: C14_21  and  C15_22 
REMARK    3  A    between atoms: C18_25  and  O1_26 
ROOT
HETATM    1  C1  UNL     1      26.458   4.433  49.282  1.00  0.00     0.047 C 
HETATM    2  C2  UNL     1      25.046   4.111  49.413  1.00  0.00    -0.033 C 
HETATM    3  C3  UNL     1      24.126   4.012  48.463  1.00  0.00    -0.010 C 
HETATM    4  C4  UNL     1      22.797   3.664  48.969  1.00  0.00     0.058 C 
HETATM    5  C5  UNL     1      21.528   3.424  48.714  1.00  0.00     0.034 C 
HETATM    6  C7  UNL     1      20.861   3.031  49.938  1.00  0.00     0.008 C 
HETATM    7  C8  UNL     1      20.731   2.740  51.212  1.00  0.00    -0.026 C 
HETATM    8  C9  UNL     1      20.435   2.395  52.592  1.00  0.00     0.032 C 
HETATM    9  C10 UNL     1      21.161   1.147  52.997  1.00  0.00     0.041 C 
HETATM   10  P1  UNL     1      22.974   1.118  52.838  1.00  0.00    -0.076 P 
HETATM   11  C11 UNL     1      23.800   2.734  53.036  1.00  0.00     0.074 C 
HETATM   12  N1  UNL     1      23.254   3.895  53.370  1.00  0.00    -0.244 NA
HETATM   13  C12 UNL     1      23.440   5.048  52.495  1.00  0.00     0.230 C 
HETATM   14  N2  UNL     1      24.179   5.206  51.397  1.00  0.00    -0.243 NA
HETATM   15  C13 UNL     1      24.727   3.948  50.821  1.00  0.00     0.373 C 
HETATM   16  N3  UNL     1      25.740   3.391  51.634  1.00  0.00     0.127 N 
HETATM   17  C14 UNL     1      25.282   2.658  52.780  1.00  0.00     0.308 C 
HETATM   18  H12 UNL     1      23.313   0.641  51.503  1.00  0.00     0.064 HD
HETATM   19  H15 UNL     1      26.451   4.121  51.856  1.00  0.00     0.320 HD
ENDROOT
BRANCH  17  20
HETATM   20  C15 UNL     1      25.818   1.287  52.855  1.00  0.00    -0.019 A 
HETATM   21  C16 UNL     1      25.929   0.584  54.061  1.00  0.00     0.012 A 
HETATM   22  C17 UNL     1      26.429  -0.698  54.173  1.00  0.00     0.037 A 
HETATM   23  C18 UNL     1      26.855  -1.352  53.036  1.00  0.00     0.065 A 
HETATM   24  C19 UNL     1      26.772  -0.716  51.829  1.00  0.00     0.037 A 
HETATM   25  C20 UNL     1      26.268   0.555  51.778  1.00  0.00     0.012 A 
BRANCH  23  26
HETATM   26  O1  UNL     1      27.356  -2.629  53.130  1.00  0.00    -0.361 OA
HETATM   27  H19 UNL     1      27.139  -3.350  52.467  1.00  0.00     0.217 HD
ENDBRANCH  23  26
ENDBRANCH  17  20
BRANCH   5  28
HETATM   28  C6  UNL     1      20.420   3.314  47.710  1.00  0.00     0.414 C 
HETATM   29  F1  UNL     1      19.603   4.390  47.789  1.00  0.00    -0.166 F 
HETATM   30  F2  UNL     1      20.867   3.200  46.426  1.00  0.00    -0.166 F 
HETATM   31  F3  UNL     1      19.669   2.205  48.060  1.00  0.00    -0.166 F 
ENDBRANCH   5  28
TORSDOF 3
ENDMDL
MODEL 4
REMARK VINA RESULT:      -7.5      8.697     10.823
REMARK  3 active torsions:
REMARK  status: ('A' for Active; 'I' for Inactive)
REMARK    1  A    between atoms: C5_5  and  C6_6 
REMARK    2  A    between atoms: C14_21  and  C15_22 
REMARK    3  A    between atoms: C18_25  and  O1_26 
ROOT
HETATM    1  C1  UNL     1      33.141   3.331  47.835  1.00  0.00     0.047 C 
HETATM    2  C2  UNL     1      33.072   4.127  46.620  1.00  0.00    -0.033 C 
HETATM    3  C3  UNL     1      33.255   3.741  45.364  1.00  0.00    -0.010 C 
HETATM    4  C4  UNL     1      33.102   4.823  44.391  1.00  0.00     0.058 C 
HETATM    5  C5  UNL     1      33.131   5.212  43.133  1.00  0.00     0.034 C 
HETATM    6  C7  UNL     1      32.728   6.601  43.054  1.00  0.00     0.008 C 
HETATM    7  C8  UNL     1      32.320   7.774  43.480  1.00  0.00    -0.026 C 
HETATM    8  C9  UNL     1      31.877   9.121  43.801  1.00  0.00     0.032 C 
HETATM    9  C10 UNL     1      30.478   9.107  44.341  1.00  0.00     0.041 C 
HETATM   10  P1  UNL     1      30.134   8.089  45.810  1.00  0.00    -0.076 P 
HETATM   11  C11 UNL     1      31.536   7.881  46.961  1.00  0.00     0.074 C 
HETATM   12  N1  UNL     1      32.731   8.453  46.904  1.00  0.00    -0.244 NA
HETATM   13  C12 UNL     1      33.924   7.612  46.902  1.00  0.00     0.230 C 
HETATM   14  N2  UNL     1      34.070   6.296  47.051  1.00  0.00    -0.243 NA
HETATM   15  C13 UNL     1      32.808   5.510  46.975  1.00  0.00     0.373 C 
HETATM   16  N3  UNL     1      31.983   5.723  48.102  1.00  0.00     0.127 N 
HETATM   17  C14 UNL     1      31.219   6.938  48.091  1.00  0.00     0.308 C 
HETATM   18  H12 UNL     1      29.762   6.751  45.367  1.00  0.00     0.064 HD
HETATM   19  H15 UNL     1      32.539   5.582  48.973  1.00  0.00     0.320 HD
ENDROOT
BRANCH  17  20
HETATM   20  C15 UNL     1      29.774   6.727  48.287  1.00  0.00    -0.019 A 
HETATM   21  C16 UNL     1      29.182   5.459  48.236  1.00  0.00     0.012 A 
HETATM   22  C17 UNL     1      27.833   5.220  48.410  1.00  0.00     0.037 A 
HETATM   23  C18 UNL     1      26.990   6.285  48.650  1.00  0.00     0.065 A 
HETATM   24  C19 UNL     1      27.510   7.548  48.711  1.00  0.00     0.037 A 
HETATM   25  C20 UNL     1      28.855   7.725  48.531  1.00  0.00     0.012 A 
BRANCH  23  26
HETATM   26  O1  UNL     1      25.645   6.065  48.826  1.00  0.00    -0.361 OA
HETATM   27  H19 UNL     1      25.135   6.408  49.619  1.00  0.00     0.217 HD
ENDBRANCH  23  26
ENDBRANCH  17  20
BRANCH   5  28
HETATM   28  C6  UNL     1      33.345   4.870  41.690  1.00  0.00     0.414 C 
HETATM   29  F1  UNL     1      34.181   5.763  41.111  1.00  0.00    -0.166 F 
HETATM   30  F2  UNL     1      33.851   3.617  41.503  1.00  0.00    -0.166 F 
HETATM   31  F3  UNL     1      32.117   4.994  41.061  1.00  0.00    -0.166 F 
ENDBRANCH   5  28
TORSDOF 3
ENDMDL
MODEL 5
REMARK VINA RESULT:      -7.4      4.417      7.062
REMARK  3 active torsions:
REMARK  status: ('A' for Active; 'I' for Inactive)
REMARK    1  A    between atoms: C5_5  and  C6_6 
REMARK    2  A    between atoms: C14_21  and  C15_22 
REMARK    3  A    between atoms: C18_25  and  O1_26 
ROOT
HETATM    1  C1  UNL     1      24.534   2.786  50.441  1.00  0.00     0.047 C 
HETATM    2  C2  UNL     1      25.298   3.866  49.837  1.00  0.00    -0.033 C 
HETATM    3  C3  UNL     1      26.575   3.881  49.479  1.00  0.00    -0.010 C 
HETATM    4  C4  UNL     1      27.005   5.151  48.893  1.00  0.00     0.058 C 
HETATM    5  C5  UNL     1      27.974   5.874  48.372  1.00  0.00     0.034 C 
HETATM    6  C7  UNL     1      27.437   7.146  47.932  1.00  0.00     0.008 C 
HETATM    7  C8  UNL     1      26.533   8.071  47.709  1.00  0.00    -0.026 C 
HETATM    8  C9  UNL     1      25.649   9.184  47.404  1.00  0.00     0.032 C 
HETATM    9  C10 UNL     1      24.636   8.792  46.370  1.00  0.00     0.041 C 
HETATM   10  P1  UNL     1      23.563   7.364  46.715  1.00  0.00    -0.076 P 
HETATM   11  C11 UNL     1      23.192   7.076  48.480  1.00  0.00     0.074 C 
HETATM   12  N1  UNL     1      23.529   7.827  49.518  1.00  0.00    -0.244 NA
HETATM   13  C12 UNL     1      24.272   7.226  50.622  1.00  0.00     0.230 C 
HETATM   14  N2  UNL     1      24.624   5.962  50.857  1.00  0.00    -0.243 NA
HETATM   15  C13 UNL     1      24.444   5.034  49.707  1.00  0.00     0.373 C 
HETATM   16  N3  UNL     1      23.080   4.788  49.435  1.00  0.00     0.127 N 
HETATM   17  C14 UNL     1      22.397   5.817  48.702  1.00  0.00     0.308 C 
HETATM   18  H12 UNL     1      24.227   6.160  46.230  1.00  0.00     0.064 HD
HETATM   19  H15 UNL     1      22.594   4.502  50.313  1.00  0.00     0.320 HD
ENDROOT
BRANCH  17  20
HETATM   20  C15 UNL     1      21.726   5.327  47.485  1.00  0.00    -0.019 A 
HETATM   21  C16 UNL     1      22.213   4.249  46.736  1.00  0.00     0.012 A 
HETATM   22  C17 UNL     1      21.616   3.763  45.589  1.00  0.00     0.037 A 
HETATM   23  C18 UNL     1      20.462   4.363  45.130  1.00  0.00     0.065 A 
HETATM   24  C19 UNL     1      19.938   5.420  45.820  1.00  0.00     0.037 A 
HETATM   25  C20 UNL     1      20.573   5.860  46.950  1.00  0.00     0.012 A 
BRANCH  23  26
HETATM   26  O1  UNL     1      19.855   3.892  43.990  1.00  0.00    -0.361 OA
HETATM   27  H19 UNL     1      19.831   4.409  43.131  1.00  0.00     0.217 HD
ENDBRANCH  23  26
ENDBRANCH  17  20
BRANCH   5  28
HETATM   28  C6  UNL     1      29.411   5.988  47.961  1.00  0.00     0.414 C 
HETATM   29  F1  UNL     1      29.520   6.688  46.809  1.00  0.00    -0.166 F 
HETATM   30  F2  UNL     1      30.195   6.581  48.907  1.00  0.00    -0.166 F 
HETATM   31  F3  UNL     1      29.857   4.703  47.701  1.00  0.00    -0.166 F 
ENDBRANCH   5  28
TORSDOF 3
ENDMDL
MODEL 6
REMARK VINA RESULT:      -7.4      4.706      6.869
REMARK  3 active torsions:
REMARK  status: ('A' for Active; 'I' for Inactive)
REMARK    1  A    between atoms: C5_5  and  C6_6 
REMARK    2  A    between atoms: C14_21  and  C15_22 
REMARK    3  A    between atoms: C18_25  and  O1_26 
ROOT
HETATM    1  C1  UNL     1      25.340   4.142  49.356  1.00  0.00     0.047 C 
HETATM    2  C2  UNL     1      24.373   3.254  49.983  1.00  0.00    -0.033 C 
HETATM    3  C3  UNL     1      24.518   2.500  51.065  1.00  0.00    -0.010 C 
HETATM    4  C4  UNL     1      23.321   1.732  51.408  1.00  0.00     0.058 C 
HETATM    5  C5  UNL     1      22.736   0.866  52.209  1.00  0.00     0.034 C 
HETATM    6  C7  UNL     1      21.349   0.716  51.819  1.00  0.00     0.008 C 
HETATM    7  C8  UNL     1      20.250   0.927  51.131  1.00  0.00    -0.026 C 
HETATM    8  C9  UNL     1      18.966   1.053  50.463  1.00  0.00     0.032 C 
HETATM    9  C10 UNL     1      18.406   2.433  50.641  1.00  0.00     0.041 C 
HETATM   10  P1  UNL     1      19.411   3.846  50.092  1.00  0.00    -0.076 P 
HETATM   11  C11 UNL     1      20.524   3.511  48.683  1.00  0.00     0.074 C 
HETATM   12  N1  UNL     1      20.617   2.403  47.962  1.00  0.00    -0.244 NA
HETATM   13  C12 UNL     1      21.913   1.744  47.833  1.00  0.00     0.230 C 
HETATM   14  N2  UNL     1      23.127   2.108  48.245  1.00  0.00    -0.243 NA
HETATM   15  C13 UNL     1      23.153   3.253  49.195  1.00  0.00     0.373 C 
HETATM   16  N3  UNL     1      22.810   4.470  48.566  1.00  0.00     0.127 N 
HETATM   17  C14 UNL     1      21.406   4.686  48.355  1.00  0.00     0.308 C 
HETATM   18  H12 UNL     1      20.261   4.267  51.199  1.00  0.00     0.064 HD
HETATM   19  H15 UNL     1      23.390   4.596  47.708  1.00  0.00     0.320 HD
ENDROOT
BRANCH  17  20
HETATM   20  C15 UNL     1      20.915   5.959  48.912  1.00  0.00    -0.019 A 
HETATM   21  C16 UNL     1      19.816   6.644  48.379  1.00  0.00     0.012 A 
HETATM   22  C17 UNL     1      19.329   7.839  48.870  1.00  0.00     0.037 A 
HETATM   23  C18 UNL     1      19.949   8.419  49.956  1.00  0.00     0.065 A 
HETATM   24  C19 UNL     1      21.029   7.797  50.520  1.00  0.00     0.037 A 
HETATM   25  C20 UNL     1      21.469   6.614  49.991  1.00  0.00     0.012 A 
BRANCH  23  26
HETATM   26  O1  UNL     1      19.477   9.608  50.457  1.00  0.00    -0.361 OA
HETATM   27  H19 UNL     1      19.342   9.772  51.438  1.00  0.00     0.217 HD
ENDBRANCH  23  26
ENDBRANCH  17  20
BRANCH   5  28
HETATM   28  C6  UNL     1      22.819  -0.034  53.404  1.00  0.00     0.414 C 
HETATM   29  F1  UNL     1      24.062  -0.001  53.936  1.00  0.00    -0.166 F 
HETATM   30  F2  UNL     1      21.920   0.284  54.380  1.00  0.00    -0.166 F 
HETATM   31  F3  UNL     1      22.602  -1.325  52.951  1.00  0.00    -0.166 F 
ENDBRANCH   5  28
TORSDOF 3
ENDMDL
MODEL 7
REMARK VINA RESULT:      -7.3      7.968      9.705
REMARK  3 active torsions:
REMARK  status: ('A' for Active; 'I' for Inactive)
REMARK    1  A    between atoms: C5_5  and  C6_6 
REMARK    2  A    between atoms: C14_21  and  C15_22 
REMARK    3  A    between atoms: C18_25  and  O1_26 
ROOT
HETATM    1  C1  UNL     1      33.324  10.628  45.384  1.00  0.00     0.047 C 
HETATM    2  C2  UNL     1      31.989  10.077  45.550  1.00  0.00    -0.033 C 
HETATM    3  C3  UNL     1      30.941  10.185  44.744  1.00  0.00    -0.010 C 
HETATM    4  C4  UNL     1      29.751   9.491  45.235  1.00  0.00     0.058 C 
HETATM    5  C5  UNL     1      28.485   9.171  45.058  1.00  0.00     0.034 C 
HETATM    6  C7  UNL     1      28.064   8.278  46.118  1.00  0.00     0.008 C 
HETATM    7  C8  UNL     1      28.170   7.541  47.200  1.00  0.00    -0.026 C 
HETATM    8  C9  UNL     1      28.134   6.692  48.378  1.00  0.00     0.032 C 
HETATM    9  C10 UNL     1      29.031   5.502  48.205  1.00  0.00     0.041 C 
HETATM   10  P1  UNL     1      30.789   5.798  47.838  1.00  0.00    -0.076 P 
HETATM   11  C11 UNL     1      31.480   7.343  48.523  1.00  0.00     0.074 C 
HETATM   12  N1  UNL     1      30.888   8.217  49.324  1.00  0.00    -0.244 NA
HETATM   13  C12 UNL     1      30.820   9.619  48.924  1.00  0.00     0.230 C 
HETATM   14  N2  UNL     1      31.354  10.261  47.884  1.00  0.00    -0.243 NA
HETATM   15  C13 UNL     1      31.918   9.383  46.824  1.00  0.00     0.373 C 
HETATM   16  N3  UNL     1      33.097   8.730  47.249  1.00  0.00     0.127 N 
HETATM   17  C14 UNL     1      32.901   7.581  48.088  1.00  0.00     0.308 C 
HETATM   18  H12 UNL     1      30.952   5.878  46.392  1.00  0.00     0.064 HD
HETATM   19  H15 UNL     1      33.762   9.431  47.643  1.00  0.00     0.320 HD
ENDROOT
BRANCH  17  20
HETATM   20  C15 UNL     1      33.570   6.366  47.587  1.00  0.00    -0.019 A 
HETATM   21  C16 UNL     1      33.679   6.071  46.223  1.00  0.00     0.012 A 
HETATM   22  C17 UNL     1      34.294   4.944  45.715  1.00  0.00     0.037 A 
HETATM   23  C18 UNL     1      34.844   4.031  46.589  1.00  0.00     0.065 A 
HETATM   24  C19 UNL     1      34.768   4.263  47.934  1.00  0.00     0.037 A 
HETATM   25  C20 UNL     1      34.147   5.398  48.381  1.00  0.00     0.012 A 
BRANCH  23  26
HETATM   26  O1  UNL     1      35.459   2.903  46.101  1.00  0.00    -0.361 OA
HETATM   27  H19 UNL     1      36.419   2.888  45.806  1.00  0.00     0.217 HD
ENDBRANCH  23  26
ENDBRANCH  17  20
BRANCH   5  28
HETATM   28  C6  UNL     1      27.245   9.262  44.221  1.00  0.00     0.414 C 
HETATM   29  F1  UNL     1      26.866   8.033  43.802  1.00  0.00    -0.166 F 
HETATM   30  F2  UNL     1      26.196   9.842  44.874  1.00  0.00    -0.166 F 
HETATM   31  F3  UNL     1      27.575   9.994  43.093  1.00  0.00    -0.166 F 
ENDBRANCH   5  28
TORSDOF 3
ENDMDL
MODEL 8
REMARK VINA RESULT:      -7.0      6.207      9.342
REMARK  3 active torsions:
REMARK  status: ('A' for Active; 'I' for Inactive)
REMARK    1  A    between atoms: C5_5  and  C6_6 
REMARK    2  A    between atoms: C14_21  and  C15_22 
REMARK    3  A    between atoms: C18_25  and  O1_26 
ROOT
HETATM    1  C1  UNL     1      24.831   5.254  49.053  1.00  0.00     0.047 C 
HETATM    2  C2  UNL     1      26.157   5.788  48.791  1.00  0.00    -0.033 C 
HETATM    3  C3  UNL     1      27.296   5.132  48.611  1.00  0.00    -0.010 C 
HETATM    4  C4  UNL     1      28.443   6.006  48.364  1.00  0.00     0.058 C 
HETATM    5  C5  UNL     1      29.735   6.124  48.134  1.00  0.00     0.034 C 
HETATM    6  C7  UNL     1      30.054   7.518  47.903  1.00  0.00     0.008 C 
HETATM    7  C8  UNL     1      29.841   8.806  47.763  1.00  0.00    -0.026 C 
HETATM    8  C9  UNL     1      29.762  10.247  47.586  1.00  0.00     0.032 C 
HETATM    9  C10 UNL     1      28.952  10.590  46.371  1.00  0.00     0.041 C 
HETATM   10  P1  UNL     1      27.246   9.965  46.269  1.00  0.00    -0.076 P 
HETATM   11  C11 UNL     1      26.399   9.747  47.872  1.00  0.00     0.074 C 
HETATM   12  N1  UNL     1      26.839  10.074  49.079  1.00  0.00    -0.244 NA
HETATM   13  C12 UNL     1      26.892   9.052  50.120  1.00  0.00     0.230 C 
HETATM   14  N2  UNL     1      26.470   7.788  50.129  1.00  0.00    -0.243 NA
HETATM   15  C13 UNL     1      26.092   7.239  48.798  1.00  0.00     0.373 C 
HETATM   16  N3  UNL     1      24.900   7.817  48.307  1.00  0.00     0.127 N 
HETATM   17  C14 UNL     1      25.038   9.122  47.723  1.00  0.00     0.308 C 
HETATM   18  H12 UNL     1      27.272   8.653  45.634  1.00  0.00     0.064 HD
HETATM   19  H15 UNL     1      24.157   7.758  49.036  1.00  0.00     0.320 HD
ENDROOT
BRANCH  17  20
HETATM   20  C15 UNL     1      24.499   9.214  46.354  1.00  0.00    -0.019 A 
HETATM   21  C16 UNL     1      24.525   8.138  45.458  1.00  0.00     0.012 A 
HETATM   22  C17 UNL     1      24.034   8.186  44.168  1.00  0.00     0.037 A 
HETATM   23  C18 UNL     1      23.478   9.360  43.707  1.00  0.00     0.065 A 
HETATM   24  C19 UNL     1      23.425  10.446  44.536  1.00  0.00     0.037 A 
HETATM   25  C20 UNL     1      23.927  10.341  45.805  1.00  0.00     0.012 A 
BRANCH  23  26
HETATM   26  O1  UNL     1      22.985   9.425  42.425  1.00  0.00    -0.361 OA
HETATM   27  H19 UNL     1      22.659  10.277  42.008  1.00  0.00     0.217 HD
ENDBRANCH  23  26
ENDBRANCH  17  20
BRANCH   5  28
HETATM   28  C6  UNL     1      31.068   5.467  47.945  1.00  0.00     0.414 C 
HETATM   29  F1  UNL     1      31.818   6.164  47.061  1.00  0.00    -0.166 F 
HETATM   30  F2  UNL     1      31.773   5.337  49.106  1.00  0.00    -0.166 F 
HETATM   31  F3  UNL     1      30.827   4.224  47.385  1.00  0.00    -0.166 F 
ENDBRANCH   5  28
TORSDOF 3
ENDMDL
MODEL 9
REMARK VINA RESULT:      -6.9      7.481      9.843
REMARK  3 active torsions:
REMARK  status: ('A' for Active; 'I' for Inactive)
REMARK    1  A    between atoms: C5_5  and  C6_6 
REMARK    2  A    between atoms: C14_21  and  C15_22 
REMARK    3  A    between atoms: C18_25  and  O1_26 
ROOT
HETATM    1  C1  UNL     1      31.862   5.982  49.993  1.00  0.00     0.047 C 
HETATM    2  C2  UNL     1      31.865   6.364  48.590  1.00  0.00    -0.033 C 
HETATM    3  C3  UNL     1      32.438   5.749  47.564  1.00  0.00    -0.010 C 
HETATM    4  C4  UNL     1      32.227   6.425  46.284  1.00  0.00     0.058 C 
HETATM    5  C5  UNL     1      32.443   6.460  44.985  1.00  0.00     0.034 C 
HETATM    6  C7  UNL     1      31.703   7.564  44.407  1.00  0.00     0.008 C 
HETATM    7  C8  UNL     1      30.899   8.601  44.371  1.00  0.00    -0.026 C 
HETATM    8  C9  UNL     1      30.039   9.756  44.177  1.00  0.00     0.032 C 
HETATM    9  C10 UNL     1      28.612   9.416  44.489  1.00  0.00     0.041 C 
HETATM   10  P1  UNL     1      28.226   8.761  46.142  1.00  0.00    -0.076 P 
HETATM   11  C11 UNL     1      29.317   9.341  47.485  1.00  0.00     0.074 C 
HETATM   12  N1  UNL     1      30.286  10.244  47.418  1.00  0.00    -0.244 NA
HETATM   13  C12 UNL     1      31.630   9.880  47.856  1.00  0.00     0.230 C 
HETATM   14  N2  UNL     1      32.094   8.775  48.439  1.00  0.00    -0.243 NA
HETATM   15  C13 UNL     1      31.153   7.621  48.440  1.00  0.00     0.373 C 
HETATM   16  N3  UNL     1      30.060   7.832  49.310  1.00  0.00     0.127 N 
HETATM   17  C14 UNL     1      29.015   8.674  48.801  1.00  0.00     0.308 C 
HETATM   18  H12 UNL     1      28.352   7.309  46.104  1.00  0.00     0.064 HD
HETATM   19  H15 UNL     1      30.411   8.116  50.250  1.00  0.00     0.320 HD
ENDROOT
BRANCH  17  20
HETATM   20  C15 UNL     1      27.681   8.051  48.847  1.00  0.00    -0.019 A 
HETATM   21  C16 UNL     1      26.520   8.770  49.156  1.00  0.00     0.012 A 
HETATM   22  C17 UNL     1      25.254   8.222  49.213  1.00  0.00     0.037 A 
HETATM   23  C18 UNL     1      25.095   6.877  48.952  1.00  0.00     0.065 A 
HETATM   24  C19 UNL     1      26.191   6.122  48.644  1.00  0.00     0.037 A 
HETATM   25  C20 UNL     1      27.423   6.719  48.603  1.00  0.00     0.012 A 
BRANCH  23  26
HETATM   26  O1  UNL     1      23.841   6.315  49.004  1.00  0.00    -0.361 OA
HETATM   27  H19 UNL     1      23.315   6.078  48.183  1.00  0.00     0.217 HD
ENDBRANCH  23  26
ENDBRANCH  17  20
BRANCH   5  28
HETATM   28  C6  UNL     1      33.078   5.847  43.774  1.00  0.00     0.414 C 
HETATM   29  F1  UNL     1      32.389   6.181  42.658  1.00  0.00    -0.166 F 
HETATM   30  F2  UNL     1      34.382   6.214  43.606  1.00  0.00    -0.166 F 
HETATM   31  F3  UNL     1      32.978   4.474  43.920  1.00  0.00    -0.166 F 
ENDBRANCH   5  28
TORSDOF 3
ENDMDL
