MODEL 1
REMARK VINA RESULT:      -8.4      0.000      0.000
REMARK  7 active torsions:
REMARK  status: ('A' for Active; 'I' for Inactive)
REMARK    1  A    between atoms: N1_2  and  C2_3 
REMARK    2  A    between atoms: C2_3  and  C3_4 
REMARK    3  A    between atoms: C3_4  and  O1_5 
REMARK    4  A    between atoms: O1_5  and  C4_6 
REMARK    5  A    between atoms: C7_9  and  O2_10 
REMARK    6  A    between atoms: C12_15  and  N2_16 
REMARK    7  A    between atoms: N2_16  and  C13_17 
ROOT
HETATM    1  C2  UNL     1      27.434   0.130  53.984  1.00  0.00     0.274 A 
HETATM    2  C11 UNL     1      26.938   0.980  52.870  1.00  0.00     0.089 A 
HETATM    3  C12 UNL     1      27.516   2.138  52.596  1.00  0.00     0.129 A 
HETATM    4  N3  UNL     1      28.625   2.662  53.310  1.00  0.00    -0.227 NA
HETATM    5  C19 UNL     1      29.133   2.013  54.287  1.00  0.00     0.207 A 
HETATM    6  N4  UNL     1      28.560   0.764  54.636  1.00  0.00    -0.345 N 
HETATM    7  H22 UNL     1      28.899   0.164  55.410  1.00  0.00     0.163 HD
ENDROOT
BRANCH   1   8
HETATM    8  N1  UNL     1      27.763  -1.202  53.504  1.00  0.00     0.114 N 
HETATM    9  C1  UNL     1      29.169  -1.461  53.420  1.00  0.00     0.310 C 
HETATM   10  H4  UNL     1      27.251  -1.942  54.025  1.00  0.00     0.319 HD
ENDBRANCH   1   8
BRANCH   1  11
HETATM   11  C3  UNL     1      26.264  -0.018  54.938  1.00  0.00     0.244 C 
BRANCH  11  12
HETATM   12  O1  UNL     1      25.452  -1.107  54.638  1.00  0.00    -0.346 OA
BRANCH  12  13
HETATM   13  C4  UNL     1      24.089  -0.834  54.412  1.00  0.00     0.069 A 
HETATM   14  C5  UNL     1      23.787  -0.114  53.254  1.00  0.00     0.039 A 
HETATM   15  C6  UNL     1      22.481   0.198  52.952  1.00  0.00     0.039 A 
HETATM   16  C7  UNL     1      21.461  -0.195  53.786  1.00  0.00     0.068 A 
HETATM   17  C9  UNL     1      21.757  -0.915  54.947  1.00  0.00     0.039 A 
HETATM   18  C10 UNL     1      23.080  -1.232  55.253  1.00  0.00     0.039 A 
BRANCH  16  19
HETATM   19  O2  UNL     1      20.096   0.019  53.661  1.00  0.00    -0.356 OA
HETATM   20  C8  UNL     1      19.443   0.027  52.414  1.00  0.00     0.210 C 
ENDBRANCH  16  19
ENDBRANCH  12  13
ENDBRANCH  11  12
ENDBRANCH   1  11
BRANCH   3  21
HETATM   21  N2  UNL     1      27.019   2.917  51.534  1.00  0.00    -0.341 N 
HETATM   22  H15 UNL     1      27.582   3.490  50.853  1.00  0.00     0.167 HD
BRANCH  21  23
HETATM   23  C13 UNL     1      25.679   3.135  51.106  1.00  0.00     0.033 A 
HETATM   24  C14 UNL     1      25.543   3.198  49.721  1.00  0.00     0.029 A 
HETATM   25  C15 UNL     1      24.306   3.404  49.146  1.00  0.00     0.002 A 
HETATM   26  C16 UNL     1      23.189   3.550  49.946  1.00  0.00     0.000 A 
HETATM   27  C17 UNL     1      23.322   3.488  51.324  1.00  0.00     0.002 A 
HETATM   28  C18 UNL     1      24.553   3.283  51.900  1.00  0.00     0.029 A 
ENDBRANCH  21  23
ENDBRANCH   3  21
TORSDOF 7
ENDMDL
MODEL 2
REMARK VINA RESULT:      -8.0      2.114      5.204
REMARK  7 active torsions:
REMARK  status: ('A' for Active; 'I' for Inactive)
REMARK    1  A    between atoms: N1_2  and  C2_3 
REMARK    2  A    between atoms: C2_3  and  C3_4 
REMARK    3  A    between atoms: C3_4  and  O1_5 
REMARK    4  A    between atoms: O1_5  and  C4_6 
REMARK    5  A    between atoms: C7_9  and  O2_10 
REMARK    6  A    between atoms: C12_15  and  N2_16 
REMARK    7  A    between atoms: N2_16  and  C13_17 
ROOT
HETATM    1  C2  UNL     1      27.606   0.792  53.957  1.00  0.00     0.274 A 
HETATM    2  C11 UNL     1      26.315   0.468  54.618  1.00  0.00     0.089 A 
HETATM    3  C12 UNL     1      25.645  -0.625  54.290  1.00  0.00     0.129 A 
HETATM    4  N3  UNL     1      26.077  -1.560  53.314  1.00  0.00    -0.227 NA
HETATM    5  C19 UNL     1      27.174  -1.380  52.683  1.00  0.00     0.207 A 
HETATM    6  N4  UNL     1      27.942  -0.227  52.985  1.00  0.00    -0.345 N 
HETATM    7  H22 UNL     1      28.844   0.008  52.530  1.00  0.00     0.163 HD
ENDROOT
BRANCH   1   8
HETATM    8  N1  UNL     1      28.657   0.968  54.945  1.00  0.00     0.114 N 
HETATM    9  C1  UNL     1      29.570   2.030  54.644  1.00  0.00     0.310 C 
HETATM   10  H4  UNL     1      28.278   1.029  55.912  1.00  0.00     0.319 HD
ENDBRANCH   1   8
BRANCH   1  11
HETATM   11  C3  UNL     1      27.396   2.137  53.287  1.00  0.00     0.244 C 
BRANCH  11  12
HETATM   12  O1  UNL     1      27.555   2.088  51.906  1.00  0.00    -0.346 OA
BRANCH  12  13
HETATM   13  C4  UNL     1      26.478   2.562  51.131  1.00  0.00     0.069 A 
HETATM   14  C5  UNL     1      25.213   2.074  51.468  1.00  0.00     0.039 A 
HETATM   15  C6  UNL     1      24.103   2.483  50.765  1.00  0.00     0.039 A 
HETATM   16  C7  UNL     1      24.227   3.372  49.723  1.00  0.00     0.068 A 
HETATM   17  C9  UNL     1      25.491   3.862  49.381  1.00  0.00     0.039 A 
HETATM   18  C10 UNL     1      26.616   3.449  50.094  1.00  0.00     0.039 A 
BRANCH  16  19
HETATM   19  O2  UNL     1      23.243   3.900  48.900  1.00  0.00    -0.356 OA
HETATM   20  C8  UNL     1      23.207   5.259  48.539  1.00  0.00     0.210 C 
ENDBRANCH  16  19
ENDBRANCH  12  13
ENDBRANCH  11  12
ENDBRANCH   1  11
BRANCH   3  21
HETATM   21  N2  UNL     1      24.425  -0.900  54.937  1.00  0.00    -0.341 N 
HETATM   22  H15 UNL     1      24.295  -1.208  55.935  1.00  0.00     0.167 HD
BRANCH  21  23
HETATM   23  C13 UNL     1      23.092  -0.840  54.441  1.00  0.00     0.033 A 
HETATM   24  C14 UNL     1      22.889   0.187  53.522  1.00  0.00     0.029 A 
HETATM   25  C15 UNL     1      21.649   0.379  52.947  1.00  0.00     0.002 A 
HETATM   26  C16 UNL     1      20.598  -0.451  53.282  1.00  0.00     0.000 A 
HETATM   27  C17 UNL     1      20.797  -1.473  54.196  1.00  0.00     0.002 A 
HETATM   28  C18 UNL     1      22.030  -1.668  54.770  1.00  0.00     0.029 A 
ENDBRANCH  21  23
ENDBRANCH   3  21
TORSDOF 7
ENDMDL
MODEL 3
REMARK VINA RESULT:      -7.9      2.304      5.507
REMARK  7 active torsions:
REMARK  status: ('A' for Active; 'I' for Inactive)
REMARK    1  A    between atoms: N1_2  and  C2_3 
REMARK    2  A    between atoms: C2_3  and  C3_4 
REMARK    3  A    between atoms: C3_4  and  O1_5 
REMARK    4  A    between atoms: O1_5  and  C4_6 
REMARK    5  A    between atoms: C7_9  and  O2_10 
REMARK    6  A    between atoms: C12_15  and  N2_16 
REMARK    7  A    between atoms: N2_16  and  C13_17 
ROOT
HETATM    1  C2  UNL     1      22.430   4.650  51.293  1.00  0.00     0.274 A 
HETATM    2  C11 UNL     1      23.715   4.198  51.885  1.00  0.00     0.089 A 
HETATM    3  C12 UNL     1      24.647   3.642  51.129  1.00  0.00     0.129 A 
HETATM    4  N3  UNL     1      24.518   3.431  49.732  1.00  0.00    -0.227 NA
HETATM    5  C19 UNL     1      23.453   3.782  49.119  1.00  0.00     0.207 A 
HETATM    6  N4  UNL     1      22.412   4.385  49.870  1.00  0.00    -0.345 N 
HETATM    7  H22 UNL     1      21.512   4.703  49.466  1.00  0.00     0.163 HD
ENDROOT
BRANCH   1   8
HETATM    8  N1  UNL     1      22.197   6.055  51.585  1.00  0.00     0.114 N 
HETATM    9  C1  UNL     1      22.932   6.956  50.750  1.00  0.00     0.310 C 
HETATM   10  H4  UNL     1      21.182   6.283  51.622  1.00  0.00     0.319 HD
ENDBRANCH   1   8
BRANCH   1  11
HETATM   11  C3  UNL     1      21.350   3.862  52.009  1.00  0.00     0.244 C 
BRANCH  11  12
HETATM   12  O1  UNL     1      21.225   2.558  51.540  1.00  0.00    -0.346 OA
BRANCH  12  13
HETATM   13  C4  UNL     1      21.515   1.528  52.456  1.00  0.00     0.069 A 
HETATM   14  C5  UNL     1      20.538   1.265  53.419  1.00  0.00     0.039 A 
HETATM   15  C6  UNL     1      20.735   0.276  54.355  1.00  0.00     0.039 A 
HETATM   16  C7  UNL     1      21.896  -0.463  54.352  1.00  0.00     0.068 A 
HETATM   17  C9  UNL     1      22.877  -0.203  53.392  1.00  0.00     0.039 A 
HETATM   18  C10 UNL     1      22.677   0.800  52.444  1.00  0.00     0.039 A 
BRANCH  16  19
HETATM   19  O2  UNL     1      22.281  -1.491  55.201  1.00  0.00    -0.356 OA
HETATM   20  C8  UNL     1      23.567  -1.561  55.768  1.00  0.00     0.210 C 
ENDBRANCH  16  19
ENDBRANCH  12  13
ENDBRANCH  11  12
ENDBRANCH   1  11
BRANCH   3  21
HETATM   21  N2  UNL     1      25.854   3.225  51.725  1.00  0.00    -0.341 N 
HETATM   22  H15 UNL     1      26.778   3.728  51.698  1.00  0.00     0.167 HD
BRANCH  21  23
HETATM   23  C13 UNL     1      26.142   2.061  52.492  1.00  0.00     0.033 A 
HETATM   24  C14 UNL     1      26.461   0.951  51.713  1.00  0.00     0.029 A 
HETATM   25  C15 UNL     1      26.767  -0.257  52.306  1.00  0.00     0.002 A 
HETATM   26  C16 UNL     1      26.759  -0.372  53.682  1.00  0.00     0.000 A 
HETATM   27  C17 UNL     1      26.441   0.731  54.459  1.00  0.00     0.002 A 
HETATM   28  C18 UNL     1      26.137   1.936  53.872  1.00  0.00     0.029 A 
ENDBRANCH  21  23
ENDBRANCH   3  21
TORSDOF 7
ENDMDL
MODEL 4
REMARK VINA RESULT:      -7.8      1.746      4.982
REMARK  7 active torsions:
REMARK  status: ('A' for Active; 'I' for Inactive)
REMARK    1  A    between atoms: N1_2  and  C2_3 
REMARK    2  A    between atoms: C2_3  and  C3_4 
REMARK    3  A    between atoms: C3_4  and  O1_5 
REMARK    4  A    between atoms: O1_5  and  C4_6 
REMARK    5  A    between atoms: C7_9  and  O2_10 
REMARK    6  A    between atoms: C12_15  and  N2_16 
REMARK    7  A    between atoms: N2_16  and  C13_17 
ROOT
HETATM    1  C2  UNL     1      24.346   3.181  52.240  1.00  0.00     0.274 A 
HETATM    2  C11 UNL     1      25.276   2.513  53.186  1.00  0.00     0.089 A 
HETATM    3  C12 UNL     1      26.504   2.194  52.812  1.00  0.00     0.129 A 
HETATM    4  N3  UNL     1      27.035   2.450  51.521  1.00  0.00    -0.227 NA
HETATM    5  C19 UNL     1      26.321   3.022  50.628  1.00  0.00     0.207 A 
HETATM    6  N4  UNL     1      24.993   3.390  50.962  1.00  0.00    -0.345 N 
HETATM    7  H22 UNL     1      24.337   3.856  50.309  1.00  0.00     0.163 HD
ENDROOT
BRANCH   1   8
HETATM    8  N1  UNL     1      23.847   4.424  52.804  1.00  0.00     0.114 N 
HETATM    9  C1  UNL     1      23.650   5.466  51.841  1.00  0.00     0.310 C 
HETATM   10  H4  UNL     1      23.011   4.272  53.405  1.00  0.00     0.319 HD
ENDBRANCH   1   8
BRANCH   1  11
HETATM   11  C3  UNL     1      23.159   2.247  52.104  1.00  0.00     0.244 C 
BRANCH  11  12
HETATM   12  O1  UNL     1      23.119   1.270  53.094  1.00  0.00    -0.346 OA
BRANCH  12  13
HETATM   13  C4  UNL     1      21.931   0.519  53.190  1.00  0.00     0.069 A 
HETATM   14  C5  UNL     1      21.960  -0.572  54.063  1.00  0.00     0.039 A 
HETATM   15  C6  UNL     1      20.845  -1.362  54.221  1.00  0.00     0.039 A 
HETATM   16  C7  UNL     1      19.692  -1.089  53.523  1.00  0.00     0.068 A 
HETATM   17  C9  UNL     1      19.659   0.001  52.647  1.00  0.00     0.039 A 
HETATM   18  C10 UNL     1      20.788   0.802  52.487  1.00  0.00     0.039 A 
BRANCH  16  19
HETATM   19  O2  UNL     1      18.477  -1.758  53.542  1.00  0.00    -0.356 OA
HETATM   20  C8  UNL     1      17.281  -1.164  53.099  1.00  0.00     0.210 C 
ENDBRANCH  16  19
ENDBRANCH  12  13
ENDBRANCH  11  12
ENDBRANCH   1  11
BRANCH   3  21
HETATM   21  N2  UNL     1      27.359   1.561  53.735  1.00  0.00    -0.341 N 
HETATM   22  H15 UNL     1      27.589   1.887  54.709  1.00  0.00     0.167 HD
BRANCH  21  23
HETATM   23  C13 UNL     1      28.113   0.360  53.611  1.00  0.00     0.033 A 
HETATM   24  C14 UNL     1      27.357  -0.724  53.170  1.00  0.00     0.029 A 
HETATM   25  C15 UNL     1      27.941  -1.963  52.997  1.00  0.00     0.002 A 
HETATM   26  C16 UNL     1      29.286  -2.134  53.261  1.00  0.00     0.000 A 
HETATM   27  C17 UNL     1      30.039  -1.057  53.701  1.00  0.00     0.002 A 
HETATM   28  C18 UNL     1      29.461   0.177  53.874  1.00  0.00     0.029 A 
ENDBRANCH  21  23
ENDBRANCH   3  21
TORSDOF 7
ENDMDL
MODEL 5
REMARK VINA RESULT:      -7.7      3.239      6.785
REMARK  7 active torsions:
REMARK  status: ('A' for Active; 'I' for Inactive)
REMARK    1  A    between atoms: N1_2  and  C2_3 
REMARK    2  A    between atoms: C2_3  and  C3_4 
REMARK    3  A    between atoms: C3_4  and  O1_5 
REMARK    4  A    between atoms: O1_5  and  C4_6 
REMARK    5  A    between atoms: C7_9  and  O2_10 
REMARK    6  A    between atoms: C12_15  and  N2_16 
REMARK    7  A    between atoms: N2_16  and  C13_17 
ROOT
HETATM    1  C2  UNL     1      21.746   0.840  52.165  1.00  0.00     0.274 A 
HETATM    2  C11 UNL     1      22.974   0.201  52.704  1.00  0.00     0.089 A 
HETATM    3  C12 UNL     1      22.982  -0.329  53.916  1.00  0.00     0.129 A 
HETATM    4  N3  UNL     1      21.862  -0.341  54.787  1.00  0.00    -0.227 NA
HETATM    5  C19 UNL     1      20.753   0.182  54.424  1.00  0.00     0.207 A 
HETATM    6  N4  UNL     1      20.675   0.769  53.136  1.00  0.00    -0.345 N 
HETATM    7  H22 UNL     1      19.823   1.217  52.751  1.00  0.00     0.163 HD
ENDROOT
BRANCH   1   8
HETATM    8  N1  UNL     1      21.370   0.238  50.897  1.00  0.00     0.114 N 
HETATM    9  C1  UNL     1      21.467   1.125  49.777  1.00  0.00     0.310 C 
HETATM   10  H4  UNL     1      21.858  -0.666  50.734  1.00  0.00     0.319 HD
ENDBRANCH   1   8
BRANCH   1  11
HETATM   11  C3  UNL     1      22.127   2.280  51.877  1.00  0.00     0.244 C 
BRANCH  11  12
HETATM   12  O1  UNL     1      23.352   2.640  52.429  1.00  0.00    -0.346 OA
BRANCH  12  13
HETATM   13  C4  UNL     1      24.371   2.996  51.525  1.00  0.00     0.069 A 
HETATM   14  C5  UNL     1      25.636   2.462  51.779  1.00  0.00     0.039 A 
HETATM   15  C6  UNL     1      26.693   2.755  50.947  1.00  0.00     0.039 A 
HETATM   16  C7  UNL     1      26.515   3.577  49.859  1.00  0.00     0.068 A 
HETATM   17  C9  UNL     1      25.251   4.116  49.601  1.00  0.00     0.039 A 
HETATM   18  C10 UNL     1      24.180   3.818  50.443  1.00  0.00     0.039 A 
BRANCH  16  19
HETATM   19  O2  UNL     1      27.441   3.990  48.913  1.00  0.00    -0.356 OA
HETATM   20  C8  UNL     1      27.608   5.341  48.557  1.00  0.00     0.210 C 
ENDBRANCH  16  19
ENDBRANCH  12  13
ENDBRANCH  11  12
ENDBRANCH   1  11
BRANCH   3  21
HETATM   21  N2  UNL     1      24.164  -0.927  54.395  1.00  0.00    -0.341 N 
HETATM   22  H15 UNL     1      24.242  -1.664  55.142  1.00  0.00     0.167 HD
BRANCH  21  23
HETATM   23  C13 UNL     1      25.519  -0.707  54.017  1.00  0.00     0.033 A 
HETATM   24  C14 UNL     1      26.200   0.155  54.874  1.00  0.00     0.029 A 
HETATM   25  C15 UNL     1      27.524   0.470  54.646  1.00  0.00     0.002 A 
HETATM   26  C16 UNL     1      28.185  -0.072  53.561  1.00  0.00     0.000 A 
HETATM   27  C17 UNL     1      27.509  -0.929  52.707  1.00  0.00     0.002 A 
HETATM   28  C18 UNL     1      26.191  -1.245  52.931  1.00  0.00     0.029 A 
ENDBRANCH  21  23
ENDBRANCH   3  21
TORSDOF 7
ENDMDL
MODEL 6
REMARK VINA RESULT:      -7.5      2.408      3.728
REMARK  7 active torsions:
REMARK  status: ('A' for Active; 'I' for Inactive)
REMARK    1  A    between atoms: N1_2  and  C2_3 
REMARK    2  A    between atoms: C2_3  and  C3_4 
REMARK    3  A    between atoms: C3_4  and  O1_5 
REMARK    4  A    between atoms: O1_5  and  C4_6 
REMARK    5  A    between atoms: C7_9  and  O2_10 
REMARK    6  A    between atoms: C12_15  and  N2_16 
REMARK    7  A    between atoms: N2_16  and  C13_17 
ROOT
HETATM    1  C2  UNL     1      25.472   2.354  52.712  1.00  0.00     0.274 A 
HETATM    2  C11 UNL     1      25.908   2.727  51.341  1.00  0.00     0.089 A 
HETATM    3  C12 UNL     1      25.302   3.703  50.683  1.00  0.00     0.129 A 
HETATM    4  N3  UNL     1      24.221   4.461  51.202  1.00  0.00    -0.227 NA
HETATM    5  C19 UNL     1      23.766   4.224  52.373  1.00  0.00     0.207 A 
HETATM    6  N4  UNL     1      24.368   3.190  53.133  1.00  0.00    -0.345 N 
HETATM    7  H22 UNL     1      24.072   2.923  54.090  1.00  0.00     0.163 HD
ENDROOT
BRANCH   1   8
HETATM    8  N1  UNL     1      26.589   2.422  53.640  1.00  0.00     0.114 N 
HETATM    9  C1  UNL     1      27.852   2.075  53.060  1.00  0.00     0.310 C 
HETATM   10  H4  UNL     1      26.619   3.328  54.149  1.00  0.00     0.319 HD
ENDBRANCH   1   8
BRANCH   1  11
HETATM   11  C3  UNL     1      25.053   0.899  52.626  1.00  0.00     0.244 C 
BRANCH  11  12
HETATM   12  O1  UNL     1      24.482   0.426  53.803  1.00  0.00    -0.346 OA
BRANCH  12  13
HETATM   13  C4  UNL     1      23.145  -0.009  53.724  1.00  0.00     0.069 A 
HETATM   14  C5  UNL     1      22.730  -0.910  54.708  1.00  0.00     0.039 A 
HETATM   15  C6  UNL     1      21.440  -1.389  54.710  1.00  0.00     0.039 A 
HETATM   16  C7  UNL     1      20.547  -0.987  53.744  1.00  0.00     0.068 A 
HETATM   17  C9  UNL     1      20.957  -0.087  52.757  1.00  0.00     0.039 A 
HETATM   18  C10 UNL     1      22.264   0.398  52.755  1.00  0.00     0.039 A 
BRANCH  16  19
HETATM   19  O2  UNL     1      19.219  -1.351  53.574  1.00  0.00    -0.356 OA
HETATM   20  C8  UNL     1      18.369  -0.703  52.659  1.00  0.00     0.210 C 
ENDBRANCH  16  19
ENDBRANCH  12  13
ENDBRANCH  11  12
ENDBRANCH   1  11
BRANCH   3  21
HETATM   21  N2  UNL     1      25.742   4.029  49.386  1.00  0.00    -0.341 N 
HETATM   22  H15 UNL     1      25.539   3.499  48.499  1.00  0.00     0.167 HD
BRANCH  21  23
HETATM   23  C13 UNL     1      26.544   5.116  48.936  1.00  0.00     0.033 A 
HETATM   24  C14 UNL     1      27.861   4.754  48.663  1.00  0.00     0.029 A 
HETATM   25  C15 UNL     1      28.769   5.694  48.217  1.00  0.00     0.002 A 
HETATM   26  C16 UNL     1      28.372   7.004  48.038  1.00  0.00     0.000 A 
HETATM   27  C17 UNL     1      27.063   7.366  48.310  1.00  0.00     0.002 A 
HETATM   28  C18 UNL     1      26.156   6.433  48.754  1.00  0.00     0.029 A 
ENDBRANCH  21  23
ENDBRANCH   3  21
TORSDOF 7
ENDMDL
MODEL 7
REMARK VINA RESULT:      -7.5      3.180      6.556
REMARK  7 active torsions:
REMARK  status: ('A' for Active; 'I' for Inactive)
REMARK    1  A    between atoms: N1_2  and  C2_3 
REMARK    2  A    between atoms: C2_3  and  C3_4 
REMARK    3  A    between atoms: C3_4  and  O1_5 
REMARK    4  A    between atoms: O1_5  and  C4_6 
REMARK    5  A    between atoms: C7_9  and  O2_10 
REMARK    6  A    between atoms: C12_15  and  N2_16 
REMARK    7  A    between atoms: N2_16  and  C13_17 
ROOT
HETATM    1  C2  UNL     1      23.433   3.595  50.311  1.00  0.00     0.274 A 
HETATM    2  C11 UNL     1      22.656   2.454  50.863  1.00  0.00     0.089 A 
HETATM    3  C12 UNL     1      21.693   2.659  51.746  1.00  0.00     0.129 A 
HETATM    4  N3  UNL     1      21.319   3.938  52.234  1.00  0.00    -0.227 NA
HETATM    5  C19 UNL     1      21.921   4.989  51.826  1.00  0.00     0.207 A 
HETATM    6  N4  UNL     1      22.965   4.842  50.879  1.00  0.00    -0.345 N 
HETATM    7  H22 UNL     1      23.513   5.631  50.488  1.00  0.00     0.163 HD
ENDROOT
BRANCH   1   8
HETATM    8  N1  UNL     1      23.370   3.603  48.859  1.00  0.00     0.114 N 
HETATM    9  C1  UNL     1      22.693   2.472  48.297  1.00  0.00     0.310 C 
HETATM   10  H4  UNL     1      23.011   4.506  48.489  1.00  0.00     0.319 HD
ENDBRANCH   1   8
BRANCH   1  11
HETATM   11  C3  UNL     1      24.877   3.329  50.692  1.00  0.00     0.244 C 
BRANCH  11  12
HETATM   12  O1  UNL     1      25.057   3.161  52.060  1.00  0.00    -0.346 OA
BRANCH  12  13
HETATM   13  C4  UNL     1      25.783   2.024  52.466  1.00  0.00     0.069 A 
HETATM   14  C5  UNL     1      26.150   1.974  53.813  1.00  0.00     0.039 A 
HETATM   15  C6  UNL     1      26.860   0.900  54.299  1.00  0.00     0.039 A 
HETATM   16  C7  UNL     1      27.217  -0.133  53.464  1.00  0.00     0.068 A 
HETATM   17  C9  UNL     1      26.853  -0.088  52.115  1.00  0.00     0.039 A 
HETATM   18  C10 UNL     1      26.133   1.000  51.623  1.00  0.00     0.039 A 
BRANCH  16  19
HETATM   19  O2  UNL     1      27.925  -1.290  53.756  1.00  0.00    -0.356 OA
HETATM   20  C8  UNL     1      29.292  -1.435  53.457  1.00  0.00     0.210 C 
ENDBRANCH  16  19
ENDBRANCH  12  13
ENDBRANCH  11  12
ENDBRANCH   1  11
BRANCH   3  21
HETATM   21  N2  UNL     1      20.978   1.554  52.248  1.00  0.00    -0.341 N 
HETATM   22  H15 UNL     1      19.959   1.338  52.092  1.00  0.00     0.167 HD
BRANCH  21  23
HETATM   23  C13 UNL     1      21.415   0.476  53.067  1.00  0.00     0.033 A 
HETATM   24  C14 UNL     1      20.393  -0.404  53.415  1.00  0.00     0.029 A 
HETATM   25  C15 UNL     1      20.653  -1.504  54.207  1.00  0.00     0.002 A 
HETATM   26  C16 UNL     1      21.936  -1.740  54.660  1.00  0.00     0.000 A 
HETATM   27  C17 UNL     1      22.955  -0.865  54.315  1.00  0.00     0.002 A 
HETATM   28  C18 UNL     1      22.699   0.231  53.527  1.00  0.00     0.029 A 
ENDBRANCH  21  23
ENDBRANCH   3  21
TORSDOF 7
ENDMDL
MODEL 8
REMARK VINA RESULT:      -7.3      3.169      5.976
REMARK  7 active torsions:
REMARK  status: ('A' for Active; 'I' for Inactive)
REMARK    1  A    between atoms: N1_2  and  C2_3 
REMARK    2  A    between atoms: C2_3  and  C3_4 
REMARK    3  A    between atoms: C3_4  and  O1_5 
REMARK    4  A    between atoms: O1_5  and  C4_6 
REMARK    5  A    between atoms: C7_9  and  O2_10 
REMARK    6  A    between atoms: C12_15  and  N2_16 
REMARK    7  A    between atoms: N2_16  and  C13_17 
ROOT
HETATM    1  C2  UNL     1      21.692   1.677  52.052  1.00  0.00     0.274 A 
HETATM    2  C11 UNL     1      22.361   2.919  51.588  1.00  0.00     0.089 A 
HETATM    3  C12 UNL     1      22.607   3.113  50.302  1.00  0.00     0.129 A 
HETATM    4  N3  UNL     1      22.267   2.189  49.280  1.00  0.00    -0.227 NA
HETATM    5  C19 UNL     1      21.688   1.087  49.567  1.00  0.00     0.207 A 
HETATM    6  N4  UNL     1      21.396   0.815  50.928  1.00  0.00    -0.345 N 
HETATM    7  H22 UNL     1      20.930  -0.048  51.262  1.00  0.00     0.163 HD
ENDROOT
BRANCH   1   8
HETATM    8  N1  UNL     1      20.500   1.994  52.822  1.00  0.00     0.114 N 
HETATM    9  C1  UNL     1      19.419   2.510  52.037  1.00  0.00     0.310 C 
HETATM   10  H4  UNL     1      20.209   1.204  53.433  1.00  0.00     0.319 HD
ENDBRANCH   1   8
BRANCH   1  11
HETATM   11  C3  UNL     1      22.672   1.016  53.003  1.00  0.00     0.244 C 
BRANCH  11  12
HETATM   12  O1  UNL     1      23.603   0.213  52.354  1.00  0.00    -0.346 OA
BRANCH  12  13
HETATM   13  C4  UNL     1      24.921   0.247  52.852  1.00  0.00     0.069 A 
HETATM   14  C5  UNL     1      25.074  -0.029  54.213  1.00  0.00     0.039 A 
HETATM   15  C6  UNL     1      26.325  -0.019  54.786  1.00  0.00     0.039 A 
HETATM   16  C7  UNL     1      27.436   0.263  54.026  1.00  0.00     0.068 A 
HETATM   17  C9  UNL     1      27.288   0.541  52.664  1.00  0.00     0.039 A 
HETATM   18  C10 UNL     1      26.021   0.530  52.083  1.00  0.00     0.039 A 
BRANCH  16  19
HETATM   19  O2  UNL     1      28.768   0.323  54.411  1.00  0.00    -0.356 OA
HETATM   20  C8  UNL     1      29.792  -0.322  53.694  1.00  0.00     0.210 C 
ENDBRANCH  16  19
ENDBRANCH  12  13
ENDBRANCH  11  12
ENDBRANCH   1  11
BRANCH   3  21
HETATM   21  N2  UNL     1      23.243   4.302  49.898  1.00  0.00    -0.341 N 
HETATM   22  H15 UNL     1      22.803   5.254  49.805  1.00  0.00     0.167 HD
BRANCH  21  23
HETATM   23  C13 UNL     1      24.595   4.535  49.519  1.00  0.00     0.033 A 
HETATM   24  C14 UNL     1      25.433   3.450  49.767  1.00  0.00     0.029 A 
HETATM   25  C15 UNL     1      26.776   3.515  49.456  1.00  0.00     0.002 A 
HETATM   26  C16 UNL     1      27.299   4.662  48.893  1.00  0.00     0.000 A 
HETATM   27  C17 UNL     1      26.467   5.743  48.645  1.00  0.00     0.002 A 
HETATM   28  C18 UNL     1      25.129   5.682  48.953  1.00  0.00     0.029 A 
ENDBRANCH  21  23
ENDBRANCH   3  21
TORSDOF 7
ENDMDL
MODEL 9
REMARK VINA RESULT:      -7.1      7.373     10.064
REMARK  7 active torsions:
REMARK  status: ('A' for Active; 'I' for Inactive)
REMARK    1  A    between atoms: N1_2  and  C2_3 
REMARK    2  A    between atoms: C2_3  and  C3_4 
REMARK    3  A    between atoms: C3_4  and  O1_5 
REMARK    4  A    between atoms: O1_5  and  C4_6 
REMARK    5  A    between atoms: C7_9  and  O2_10 
REMARK    6  A    between atoms: C12_15  and  N2_16 
REMARK    7  A    between atoms: N2_16  and  C13_17 
ROOT
HETATM    1  C2  UNL     1      30.491   9.445  48.876  1.00  0.00     0.274 A 
HETATM    2  C11 UNL     1      31.247   8.257  49.348  1.00  0.00     0.089 A 
HETATM    3  C12 UNL     1      32.106   7.643  48.549  1.00  0.00     0.129 A 
HETATM    4  N3  UNL     1      32.379   8.044  47.216  1.00  0.00    -0.227 NA
HETATM    5  C19 UNL     1      31.784   9.055  46.708  1.00  0.00     0.207 A 
HETATM    6  N4  UNL     1      30.850   9.759  47.509  1.00  0.00    -0.345 N 
HETATM    7  H22 UNL     1      30.318  10.589  47.189  1.00  0.00     0.163 HD
ENDROOT
BRANCH   1   8
HETATM    8  N1  UNL     1      30.705  10.574  49.765  1.00  0.00     0.114 N 
HETATM    9  C1  UNL     1      30.763  11.841  49.099  1.00  0.00     0.310 C 
HETATM   10  H4  UNL     1      30.038  10.574  50.564  1.00  0.00     0.319 HD
ENDBRANCH   1   8
BRANCH   1  11
HETATM   11  C3  UNL     1      29.026   9.067  48.983  1.00  0.00     0.244 C 
BRANCH  11  12
HETATM   12  O1  UNL     1      28.597   8.253  47.940  1.00  0.00    -0.346 OA
BRANCH  12  13
HETATM   13  C4  UNL     1      27.945   7.057  48.300  1.00  0.00     0.069 A 
HETATM   14  C5  UNL     1      26.611   7.176  48.696  1.00  0.00     0.039 A 
HETATM   15  C6  UNL     1      25.895   6.061  49.065  1.00  0.00     0.039 A 
HETATM   16  C7  UNL     1      26.485   4.818  49.049  1.00  0.00     0.068 A 
HETATM   17  C9  UNL     1      27.820   4.694  48.655  1.00  0.00     0.039 A 
HETATM   18  C10 UNL     1      28.546   5.824  48.280  1.00  0.00     0.039 A 
BRANCH  16  19
HETATM   19  O2  UNL     1      25.941   3.586  49.382  1.00  0.00    -0.356 OA
HETATM   20  C8  UNL     1      24.565   3.405  49.612  1.00  0.00     0.210 C 
ENDBRANCH  16  19
ENDBRANCH  12  13
ENDBRANCH  11  12
ENDBRANCH   1  11
BRANCH   3  21
HETATM   21  N2  UNL     1      32.805   6.519  49.030  1.00  0.00    -0.341 N 
HETATM   22  H15 UNL     1      33.147   6.361  50.013  1.00  0.00     0.167 HD
BRANCH  21  23
HETATM   23  C13 UNL     1      33.223   5.340  48.349  1.00  0.00     0.033 A 
HETATM   24  C14 UNL     1      32.165   4.587  47.846  1.00  0.00     0.029 A 
HETATM   25  C15 UNL     1      32.402   3.415  47.159  1.00  0.00     0.002 A 
HETATM   26  C16 UNL     1      33.698   2.979  46.966  1.00  0.00     0.000 A 
HETATM   27  C17 UNL     1      34.753   3.726  47.466  1.00  0.00     0.002 A 
HETATM   28  C18 UNL     1      34.520   4.895  48.151  1.00  0.00     0.029 A 
ENDBRANCH  21  23
ENDBRANCH   3  21
TORSDOF 7
ENDMDL
