MODEL 1
REMARK VINA RESULT:      -7.6      0.000      0.000
REMARK  4 active torsions:
REMARK  status: ('A' for Active; 'I' for Inactive)
REMARK    1  A    between atoms: C6_6  and  C7_7 
REMARK    2  A    between atoms: C8_11  and  C9_12 
REMARK    3  A    between atoms: C14_19  and  O1_20 
REMARK    4  A    between atoms: C16_22  and  O2_23 
ROOT
HETATM    1  C9  UNL     1      21.709   1.275  50.511  1.00  0.00     0.100 C 
HETATM    2  C10 UNL     1      21.669   0.687  51.829  1.00  0.00     0.052 A 
HETATM    3  N1  UNL     1      20.450   0.437  52.409  1.00  0.00    -0.245 NA
HETATM    4  C11 UNL     1      20.504  -0.150  53.620  1.00  0.00     0.234 A 
HETATM    5  N2  UNL     1      21.639  -0.502  54.292  1.00  0.00    -0.241 NA
HETATM    6  C12 UNL     1      22.849  -0.255  53.721  1.00  0.00     0.073 A 
HETATM    7  C13 UNL     1      24.030  -0.585  54.347  1.00  0.00     0.072 A 
HETATM    8  C14 UNL     1      25.262  -0.343  53.783  1.00  0.00     0.103 A 
HETATM    9  C16 UNL     1      25.274   0.256  52.542  1.00  0.00     0.102 A 
HETATM   10  C18 UNL     1      24.093   0.589  51.912  1.00  0.00     0.055 A 
HETATM   11  C19 UNL     1      22.871   0.346  52.478  1.00  0.00     0.021 A 
ENDROOT
BRANCH   1  12
HETATM   12  C8  UNL     1      22.021   2.643  50.237  1.00  0.00    -0.032 A 
HETATM   13  C2  UNL     1      22.296   2.774  48.774  1.00  0.00    -0.039 A 
HETATM   14  C1  UNL     1      22.220   1.748  47.903  1.00  0.00     0.024 C 
HETATM   15  C3  UNL     1      22.683   3.983  48.058  1.00  0.00     0.007 A 
HETATM   16  C4  UNL     1      22.797   5.064  48.802  1.00  0.00    -0.021 A 
HETATM   17  C5  UNL     1      22.575   5.152  50.253  1.00  0.00     0.071 A 
HETATM   18  C6  UNL     1      22.189   3.817  50.774  1.00  0.00     0.036 A 
BRANCH  18  19
HETATM   19  C7  UNL     1      21.955   4.041  52.180  1.00  0.00     0.414 C 
HETATM   20  F1  UNL     1      20.808   3.687  52.768  1.00  0.00    -0.166 F 
HETATM   21  F2  UNL     1      23.073   3.592  52.933  1.00  0.00    -0.166 F 
HETATM   22  F3  UNL     1      22.026   5.450  52.397  1.00  0.00    -0.166 F 
ENDBRANCH  18  19
ENDBRANCH   1  12
BRANCH   9  23
HETATM   23  O2  UNL     1      26.500   0.527  51.918  1.00  0.00    -0.353 OA
HETATM   24  C17 UNL     1      26.838   1.850  51.545  1.00  0.00     0.210 C 
ENDBRANCH   9  23
BRANCH   8  25
HETATM   25  O1  UNL     1      26.476  -0.650  54.357  1.00  0.00    -0.353 OA
HETATM   26  C15 UNL     1      27.343   0.255  54.980  1.00  0.00     0.210 C 
ENDBRANCH   8  25
TORSDOF 4
ENDMDL
MODEL 2
REMARK VINA RESULT:      -7.4      1.666      2.178
REMARK  4 active torsions:
REMARK  status: ('A' for Active; 'I' for Inactive)
REMARK    1  A    between atoms: C6_6  and  C7_7 
REMARK    2  A    between atoms: C8_11  and  C9_12 
REMARK    3  A    between atoms: C14_19  and  O1_20 
REMARK    4  A    between atoms: C16_22  and  O2_23 
ROOT
HETATM    1  C9  UNL     1      23.203   2.621  49.890  1.00  0.00     0.100 C 
HETATM    2  C10 UNL     1      22.548   1.680  50.768  1.00  0.00     0.052 A 
HETATM    3  N1  UNL     1      21.224   1.388  50.560  1.00  0.00    -0.245 NA
HETATM    4  C11 UNL     1      20.703   0.472  51.399  1.00  0.00     0.234 A 
HETATM    5  N2  UNL     1      21.369  -0.166  52.406  1.00  0.00    -0.241 NA
HETATM    6  C12 UNL     1      22.682   0.122  52.616  1.00  0.00     0.073 A 
HETATM    7  C13 UNL     1      23.410  -0.485  53.614  1.00  0.00     0.072 A 
HETATM    8  C14 UNL     1      24.739  -0.206  53.840  1.00  0.00     0.103 A 
HETATM    9  C16 UNL     1      25.330   0.725  53.013  1.00  0.00     0.102 A 
HETATM   10  C18 UNL     1      24.604   1.337  52.012  1.00  0.00     0.055 A 
HETATM   11  C19 UNL     1      23.284   1.054  51.793  1.00  0.00     0.021 A 
ENDROOT
BRANCH   1  12
HETATM   12  C8  UNL     1      23.516   3.973  50.230  1.00  0.00    -0.032 A 
HETATM   13  C2  UNL     1      24.930   4.240  49.827  1.00  0.00    -0.039 A 
HETATM   14  C1  UNL     1      25.721   3.331  49.223  1.00  0.00     0.024 C 
HETATM   15  C3  UNL     1      25.676   5.479  50.011  1.00  0.00     0.007 A 
HETATM   16  C4  UNL     1      25.013   6.453  50.598  1.00  0.00    -0.021 A 
HETATM   17  C5  UNL     1      23.622   6.399  51.073  1.00  0.00     0.071 A 
HETATM   18  C6  UNL     1      23.055   5.058  50.784  1.00  0.00     0.036 A 
BRANCH  18  19
HETATM   19  C7  UNL     1      21.691   5.145  51.247  1.00  0.00     0.414 C 
HETATM   20  F1  UNL     1      21.236   4.377  52.243  1.00  0.00    -0.166 F 
HETATM   21  F2  UNL     1      21.335   6.505  51.449  1.00  0.00    -0.166 F 
HETATM   22  F3  UNL     1      20.853   4.802  50.145  1.00  0.00    -0.166 F 
ENDBRANCH  18  19
ENDBRANCH   1  12
BRANCH   9  23
HETATM   23  O2  UNL     1      26.681   1.051  53.195  1.00  0.00    -0.353 OA
HETATM   24  C17 UNL     1      27.269   2.112  52.467  1.00  0.00     0.210 C 
ENDBRANCH   9  23
BRANCH   8  25
HETATM   25  O1  UNL     1      25.519  -0.779  54.820  1.00  0.00    -0.353 OA
HETATM   26  C15 UNL     1      25.153  -0.963  56.158  1.00  0.00     0.210 C 
ENDBRANCH   8  25
TORSDOF 4
ENDMDL
MODEL 3
REMARK VINA RESULT:      -7.4      1.669      2.168
REMARK  4 active torsions:
REMARK  status: ('A' for Active; 'I' for Inactive)
REMARK    1  A    between atoms: C6_6  and  C7_7 
REMARK    2  A    between atoms: C8_11  and  C9_12 
REMARK    3  A    between atoms: C14_19  and  O1_20 
REMARK    4  A    between atoms: C16_22  and  O2_23 
ROOT
HETATM    1  C9  UNL     1      22.477   1.858  49.906  1.00  0.00     0.100 C 
HETATM    2  C10 UNL     1      22.952   1.400  51.190  1.00  0.00     0.052 A 
HETATM    3  N1  UNL     1      22.102   0.686  51.997  1.00  0.00    -0.245 NA
HETATM    4  C11 UNL     1      22.638   0.264  53.158  1.00  0.00     0.234 A 
HETATM    5  N2  UNL     1      23.918   0.485  53.580  1.00  0.00    -0.241 NA
HETATM    6  C12 UNL     1      24.763   1.193  52.783  1.00  0.00     0.073 A 
HETATM    7  C13 UNL     1      26.065   1.451  53.149  1.00  0.00     0.072 A 
HETATM    8  C14 UNL     1      26.933   2.165  52.355  1.00  0.00     0.103 A 
HETATM    9  C16 UNL     1      26.443   2.624  51.152  1.00  0.00     0.102 A 
HETATM   10  C18 UNL     1      25.139   2.370  50.781  1.00  0.00     0.055 A 
HETATM   11  C19 UNL     1      24.282   1.659  51.575  1.00  0.00     0.021 A 
ENDROOT
BRANCH   1  12
HETATM   12  C8  UNL     1      22.099   3.203  49.607  1.00  0.00    -0.032 A 
HETATM   13  C2  UNL     1      22.078   3.363  48.122  1.00  0.00    -0.039 A 
HETATM   14  C1  UNL     1      22.351   2.365  47.257  1.00  0.00     0.024 C 
HETATM   15  C3  UNL     1      21.776   4.577  47.373  1.00  0.00     0.007 A 
HETATM   16  C4  UNL     1      21.495   5.634  48.106  1.00  0.00    -0.021 A 
HETATM   17  C5  UNL     1      21.463   5.693  49.575  1.00  0.00     0.071 A 
HETATM   18  C6  UNL     1      21.794   4.357  50.129  1.00  0.00     0.036 A 
BRANCH  18  19
HETATM   19  C7  UNL     1      21.684   4.530  51.558  1.00  0.00     0.414 C 
HETATM   20  F1  UNL     1      20.793   3.846  52.283  1.00  0.00    -0.166 F 
HETATM   21  F2  UNL     1      22.974   4.474  52.152  1.00  0.00    -0.166 F 
HETATM   22  F3  UNL     1      21.334   5.894  51.788  1.00  0.00    -0.166 F 
ENDBRANCH  18  19
ENDBRANCH   1  12
BRANCH   9  23
HETATM   23  O2  UNL     1      27.281   3.358  50.300  1.00  0.00    -0.353 OA
HETATM   24  C17 UNL     1      26.733   4.199  49.303  1.00  0.00     0.210 C 
ENDBRANCH   9  23
BRANCH   8  25
HETATM   25  O1  UNL     1      28.243   2.454  52.666  1.00  0.00    -0.353 OA
HETATM   26  C15 UNL     1      28.902   2.112  53.853  1.00  0.00     0.210 C 
ENDBRANCH   8  25
TORSDOF 4
ENDMDL
MODEL 4
REMARK VINA RESULT:      -7.4      3.076      4.408
REMARK  4 active torsions:
REMARK  status: ('A' for Active; 'I' for Inactive)
REMARK    1  A    between atoms: C6_6  and  C7_7 
REMARK    2  A    between atoms: C8_11  and  C9_12 
REMARK    3  A    between atoms: C14_19  and  O1_20 
REMARK    4  A    between atoms: C16_22  and  O2_23 
ROOT
HETATM    1  C9  UNL     1      22.793   3.773  50.993  1.00  0.00     0.100 C 
HETATM    2  C10 UNL     1      24.202   3.493  50.845  1.00  0.00     0.052 A 
HETATM    3  N1  UNL     1      24.987   4.383  50.155  1.00  0.00    -0.245 NA
HETATM    4  C11 UNL     1      26.294   4.065  50.099  1.00  0.00     0.234 A 
HETATM    5  N2  UNL     1      26.878   2.964  50.656  1.00  0.00    -0.241 NA
HETATM    6  C12 UNL     1      26.103   2.080  51.340  1.00  0.00     0.073 A 
HETATM    7  C13 UNL     1      26.630   0.950  51.925  1.00  0.00     0.072 A 
HETATM    8  C14 UNL     1      25.860   0.046  52.620  1.00  0.00     0.103 A 
HETATM    9  C16 UNL     1      24.512   0.315  52.713  1.00  0.00     0.102 A 
HETATM   10  C18 UNL     1      23.980   1.445  52.128  1.00  0.00     0.055 A 
HETATM   11  C19 UNL     1      24.750   2.340  51.439  1.00  0.00     0.021 A 
ENDROOT
BRANCH   1  12
HETATM   12  C8  UNL     1      21.751   3.131  50.255  1.00  0.00    -0.032 A 
HETATM   13  C2  UNL     1      20.676   2.736  51.215  1.00  0.00    -0.039 A 
HETATM   14  C1  UNL     1      20.720   2.993  52.537  1.00  0.00     0.024 C 
HETATM   15  C3  UNL     1      19.439   2.028  50.905  1.00  0.00     0.007 A 
HETATM   16  C4  UNL     1      19.275   1.712  49.637  1.00  0.00    -0.021 A 
HETATM   17  C5  UNL     1      20.207   2.003  48.538  1.00  0.00     0.071 A 
HETATM   18  C6  UNL     1      21.387   2.727  49.072  1.00  0.00     0.036 A 
BRANCH  18  19
HETATM   19  C7  UNL     1      22.195   2.994  47.905  1.00  0.00     0.414 C 
HETATM   20  F1  UNL     1      22.891   4.129  47.776  1.00  0.00    -0.166 F 
HETATM   21  F2  UNL     1      23.004   1.864  47.609  1.00  0.00    -0.166 F 
HETATM   22  F3  UNL     1      21.315   3.006  46.782  1.00  0.00    -0.166 F 
ENDBRANCH  18  19
ENDBRANCH   1  12
BRANCH   9  23
HETATM   23  O2  UNL     1      23.677  -0.570  53.410  1.00  0.00    -0.353 OA
HETATM   24  C17 UNL     1      22.290  -0.314  53.518  1.00  0.00     0.210 C 
ENDBRANCH   9  23
BRANCH   8  25
HETATM   25  O1  UNL     1      26.327  -1.099  53.227  1.00  0.00    -0.353 OA
HETATM   26  C15 UNL     1      27.025  -2.137  52.597  1.00  0.00     0.210 C 
ENDBRANCH   8  25
TORSDOF 4
ENDMDL
MODEL 5
REMARK VINA RESULT:      -7.3      2.685      4.225
REMARK  4 active torsions:
REMARK  status: ('A' for Active; 'I' for Inactive)
REMARK    1  A    between atoms: C6_6  and  C7_7 
REMARK    2  A    between atoms: C8_11  and  C9_12 
REMARK    3  A    between atoms: C14_19  and  O1_20 
REMARK    4  A    between atoms: C16_22  and  O2_23 
ROOT
HETATM    1  C9  UNL     1      22.979   2.663  52.366  1.00  0.00     0.100 C 
HETATM    2  C10 UNL     1      24.327   2.647  51.849  1.00  0.00     0.052 A 
HETATM    3  N1  UNL     1      24.726   3.650  51.001  1.00  0.00    -0.245 NA
HETATM    4  C11 UNL     1      26.010   3.580  50.599  1.00  0.00     0.234 A 
HETATM    5  N2  UNL     1      26.913   2.621  50.957  1.00  0.00    -0.241 NA
HETATM    6  C12 UNL     1      26.521   1.624  51.797  1.00  0.00     0.073 A 
HETATM    7  C13 UNL     1      27.382   0.628  52.196  1.00  0.00     0.072 A 
HETATM    8  C14 UNL     1      27.002  -0.386  53.046  1.00  0.00     0.103 A 
HETATM    9  C16 UNL     1      25.699  -0.370  53.493  1.00  0.00     0.102 A 
HETATM   10  C18 UNL     1      24.832   0.626  53.095  1.00  0.00     0.055 A 
HETATM   11  C19 UNL     1      25.216   1.631  52.251  1.00  0.00     0.021 A 
ENDROOT
BRANCH   1  12
HETATM   12  C8  UNL     1      21.920   1.820  51.908  1.00  0.00    -0.032 A 
HETATM   13  C2  UNL     1      21.385   2.393  50.636  1.00  0.00    -0.039 A 
HETATM   14  C1  UNL     1      21.875   3.503  50.049  1.00  0.00     0.024 C 
HETATM   15  C3  UNL     1      20.279   1.877  49.837  1.00  0.00     0.007 A 
HETATM   16  C4  UNL     1      19.706   0.789  50.308  1.00  0.00    -0.021 A 
HETATM   17  C5  UNL     1      20.074   0.071  51.537  1.00  0.00     0.071 A 
HETATM   18  C6  UNL     1      21.217   0.760  52.186  1.00  0.00     0.036 A 
BRANCH  18  19
HETATM   19  C7  UNL     1      21.511  -0.056  53.340  1.00  0.00     0.414 C 
HETATM   20  F1  UNL     1      22.096   0.452  54.430  1.00  0.00    -0.166 F 
HETATM   21  F2  UNL     1      20.372  -0.831  53.688  1.00  0.00    -0.166 F 
HETATM   22  F3  UNL     1      22.416  -1.073  52.913  1.00  0.00    -0.166 F 
ENDBRANCH  18  19
ENDBRANCH   1  12
BRANCH   9  23
HETATM   23  O2  UNL     1      25.254  -1.378  54.360  1.00  0.00    -0.353 OA
HETATM   24  C17 UNL     1      24.784  -1.055  55.655  1.00  0.00     0.210 C 
ENDBRANCH   9  23
BRANCH   8  25
HETATM   25  O1  UNL     1      27.816  -1.409  53.481  1.00  0.00    -0.353 OA
HETATM   26  C15 UNL     1      29.215  -1.427  53.425  1.00  0.00     0.210 C 
ENDBRANCH   8  25
TORSDOF 4
ENDMDL
MODEL 6
REMARK VINA RESULT:      -7.2      2.427      3.783
REMARK  4 active torsions:
REMARK  status: ('A' for Active; 'I' for Inactive)
REMARK    1  A    between atoms: C6_6  and  C7_7 
REMARK    2  A    between atoms: C8_11  and  C9_12 
REMARK    3  A    between atoms: C14_19  and  O1_20 
REMARK    4  A    between atoms: C16_22  and  O2_23 
ROOT
HETATM    1  C9  UNL     1      24.076   3.868  49.017  1.00  0.00     0.100 C 
HETATM    2  C10 UNL     1      23.018   2.895  49.148  1.00  0.00     0.052 A 
HETATM    3  N1  UNL     1      22.166   2.693  48.091  1.00  0.00    -0.245 NA
HETATM    4  C11 UNL     1      21.235   1.740  48.283  1.00  0.00     0.234 A 
HETATM    5  N2  UNL     1      21.078   0.985  49.410  1.00  0.00    -0.241 NA
HETATM    6  C12 UNL     1      21.919   1.183  50.460  1.00  0.00     0.073 A 
HETATM    7  C13 UNL     1      21.814   0.456  51.624  1.00  0.00     0.072 A 
HETATM    8  C14 UNL     1      22.658   0.643  52.695  1.00  0.00     0.103 A 
HETATM    9  C16 UNL     1      23.634   1.606  52.560  1.00  0.00     0.102 A 
HETATM   10  C18 UNL     1      23.743   2.337  51.396  1.00  0.00     0.055 A 
HETATM   11  C19 UNL     1      22.901   2.146  50.335  1.00  0.00     0.021 A 
ENDROOT
BRANCH   1  12
HETATM   12  C8  UNL     1      24.067   5.169  49.610  1.00  0.00    -0.032 A 
HETATM   13  C2  UNL     1      25.445   5.738  49.507  1.00  0.00    -0.039 A 
HETATM   14  C1  UNL     1      26.477   5.100  48.919  1.00  0.00     0.024 C 
HETATM   15  C3  UNL     1      25.901   7.029  50.007  1.00  0.00     0.007 A 
HETATM   16  C4  UNL     1      24.983   7.754  50.611  1.00  0.00    -0.021 A 
HETATM   17  C5  UNL     1      23.576   7.382  50.820  1.00  0.00     0.071 A 
HETATM   18  C6  UNL     1      23.329   6.041  50.234  1.00  0.00     0.036 A 
BRANCH  18  19
HETATM   19  C7  UNL     1      21.921   5.812  50.458  1.00  0.00     0.414 C 
HETATM   20  F1  UNL     1      21.095   5.482  49.460  1.00  0.00    -0.166 F 
HETATM   21  F2  UNL     1      21.744   4.949  51.573  1.00  0.00    -0.166 F 
HETATM   22  F3  UNL     1      21.375   7.030  50.962  1.00  0.00    -0.166 F 
ENDBRANCH  18  19
ENDBRANCH   1  12
BRANCH   9  23
HETATM   23  O2  UNL     1      24.523   1.841  53.619  1.00  0.00    -0.353 OA
HETATM   24  C17 UNL     1      25.884   2.132  53.362  1.00  0.00     0.210 C 
ENDBRANCH   9  23
BRANCH   8  25
HETATM   25  O1  UNL     1      22.603  -0.052  53.884  1.00  0.00    -0.353 OA
HETATM   26  C15 UNL     1      21.461  -0.251  54.668  1.00  0.00     0.210 C 
ENDBRANCH   8  25
TORSDOF 4
ENDMDL
MODEL 7
REMARK VINA RESULT:      -7.2      3.349      4.809
REMARK  4 active torsions:
REMARK  status: ('A' for Active; 'I' for Inactive)
REMARK    1  A    between atoms: C6_6  and  C7_7 
REMARK    2  A    between atoms: C8_11  and  C9_12 
REMARK    3  A    between atoms: C14_19  and  O1_20 
REMARK    4  A    between atoms: C16_22  and  O2_23 
ROOT
HETATM    1  C9  UNL     1      24.252   3.184  52.947  1.00  0.00     0.100 C 
HETATM    2  C10 UNL     1      24.036   1.782  53.218  1.00  0.00     0.052 A 
HETATM    3  N1  UNL     1      25.069   1.037  53.728  1.00  0.00    -0.245 NA
HETATM    4  C11 UNL     1      24.770  -0.250  53.989  1.00  0.00     0.234 A 
HETATM    5  N2  UNL     1      23.559  -0.849  53.792  1.00  0.00    -0.241 NA
HETATM    6  C12 UNL     1      22.532  -0.113  53.285  1.00  0.00     0.073 A 
HETATM    7  C13 UNL     1      21.288  -0.657  53.063  1.00  0.00     0.072 A 
HETATM    8  C14 UNL     1      20.239   0.073  52.552  1.00  0.00     0.103 A 
HETATM    9  C16 UNL     1      20.482   1.398  52.264  1.00  0.00     0.102 A 
HETATM   10  C18 UNL     1      21.728   1.947  52.485  1.00  0.00     0.055 A 
HETATM   11  C19 UNL     1      22.767   1.216  52.993  1.00  0.00     0.021 A 
ENDROOT
BRANCH   1  12
HETATM   12  C8  UNL     1      24.446   3.743  51.646  1.00  0.00    -0.032 A 
HETATM   13  C2  UNL     1      23.451   4.842  51.459  1.00  0.00    -0.039 A 
HETATM   14  C1  UNL     1      22.565   5.219  52.401  1.00  0.00     0.024 C 
HETATM   15  C3  UNL     1      23.268   5.667  50.270  1.00  0.00     0.007 A 
HETATM   16  C4  UNL     1      24.075   5.395  49.267  1.00  0.00    -0.021 A 
HETATM   17  C5  UNL     1      25.117   4.357  49.243  1.00  0.00     0.071 A 
HETATM   18  C6  UNL     1      25.134   3.646  50.545  1.00  0.00     0.036 A 
BRANCH  18  19
HETATM   19  C7  UNL     1      26.215   2.698  50.415  1.00  0.00     0.414 C 
HETATM   20  F1  UNL     1      26.060   1.407  50.728  1.00  0.00    -0.166 F 
HETATM   21  F2  UNL     1      26.835   2.843  49.145  1.00  0.00    -0.166 F 
HETATM   22  F3  UNL     1      27.260   3.134  51.283  1.00  0.00    -0.166 F 
ENDBRANCH  18  19
ENDBRANCH   1  12
BRANCH   9  23
HETATM   23  O2  UNL     1      19.452   2.192  51.741  1.00  0.00    -0.353 OA
HETATM   24  C17 UNL     1      19.618   3.591  51.612  1.00  0.00     0.210 C 
ENDBRANCH   9  23
BRANCH   8  25
HETATM   25  O1  UNL     1      18.973  -0.413  52.308  1.00  0.00    -0.353 OA
HETATM   26  C15 UNL     1      18.214  -1.204  53.178  1.00  0.00     0.210 C 
ENDBRANCH   8  25
TORSDOF 4
ENDMDL
MODEL 8
REMARK VINA RESULT:      -7.1      3.816      6.704
REMARK  4 active torsions:
REMARK  status: ('A' for Active; 'I' for Inactive)
REMARK    1  A    between atoms: C6_6  and  C7_7 
REMARK    2  A    between atoms: C8_11  and  C9_12 
REMARK    3  A    between atoms: C14_19  and  O1_20 
REMARK    4  A    between atoms: C16_22  and  O2_23 
ROOT
HETATM    1  C9  UNL     1      23.660   2.506  49.681  1.00  0.00     0.100 C 
HETATM    2  C10 UNL     1      24.194   3.845  49.768  1.00  0.00     0.052 A 
HETATM    3  N1  UNL     1      25.550   4.028  49.656  1.00  0.00    -0.245 NA
HETATM    4  C11 UNL     1      25.958   5.310  49.708  1.00  0.00     0.234 A 
HETATM    5  N2  UNL     1      25.155   6.404  49.859  1.00  0.00    -0.241 NA
HETATM    6  C12 UNL     1      23.810   6.226  49.971  1.00  0.00     0.073 A 
HETATM    7  C13 UNL     1      22.946   7.286  50.125  1.00  0.00     0.072 A 
HETATM    8  C14 UNL     1      21.584   7.124  50.239  1.00  0.00     0.103 A 
HETATM    9  C16 UNL     1      21.103   5.833  50.193  1.00  0.00     0.102 A 
HETATM   10  C18 UNL     1      21.966   4.768  50.040  1.00  0.00     0.055 A 
HETATM   11  C19 UNL     1      23.319   4.936  49.926  1.00  0.00     0.021 A 
ENDROOT
BRANCH   1  12
HETATM   12  C8  UNL     1      23.207   1.734  50.795  1.00  0.00    -0.032 A 
HETATM   13  C2  UNL     1      21.927   1.067  50.409  1.00  0.00    -0.039 A 
HETATM   14  C1  UNL     1      21.356   1.185  49.194  1.00  0.00     0.024 C 
HETATM   15  C3  UNL     1      21.098   0.207  51.246  1.00  0.00     0.007 A 
HETATM   16  C4  UNL     1      21.546   0.013  52.469  1.00  0.00    -0.021 A 
HETATM   17  C5  UNL     1      22.775   0.576  53.048  1.00  0.00     0.071 A 
HETATM   18  C6  UNL     1      23.461   1.409  52.030  1.00  0.00     0.036 A 
BRANCH  18  19
HETATM   19  C7  UNL     1      24.661   1.860  52.694  1.00  0.00     0.414 C 
HETATM   20  F1  UNL     1      25.851   1.845  52.084  1.00  0.00    -0.166 F 
HETATM   21  F2  UNL     1      24.425   3.115  53.318  1.00  0.00    -0.166 F 
HETATM   22  F3  UNL     1      24.851   1.019  53.830  1.00  0.00    -0.166 F 
ENDBRANCH  18  19
ENDBRANCH   1  12
BRANCH   9  23
HETATM   23  O2  UNL     1      19.725   5.606  50.305  1.00  0.00    -0.353 OA
HETATM   24  C17 UNL     1      19.224   4.291  50.459  1.00  0.00     0.210 C 
ENDBRANCH   9  23
BRANCH   8  25
HETATM   25  O1  UNL     1      20.670   8.142  50.395  1.00  0.00    -0.353 OA
HETATM   26  C15 UNL     1      20.376   9.135  49.452  1.00  0.00     0.210 C 
ENDBRANCH   8  25
TORSDOF 4
ENDMDL
MODEL 9
REMARK VINA RESULT:      -7.1      3.450      6.427
REMARK  4 active torsions:
REMARK  status: ('A' for Active; 'I' for Inactive)
REMARK    1  A    between atoms: C6_6  and  C7_7 
REMARK    2  A    between atoms: C8_11  and  C9_12 
REMARK    3  A    between atoms: C14_19  and  O1_20 
REMARK    4  A    between atoms: C16_22  and  O2_23 
ROOT
HETATM    1  C9  UNL     1      24.452   1.245  51.581  1.00  0.00     0.100 C 
HETATM    2  C10 UNL     1      23.981   2.601  51.425  1.00  0.00     0.052 A 
HETATM    3  N1  UNL     1      24.878   3.582  51.083  1.00  0.00    -0.245 NA
HETATM    4  C11 UNL     1      24.348   4.808  50.919  1.00  0.00     0.234 A 
HETATM    5  N2  UNL     1      23.031   5.140  51.063  1.00  0.00    -0.241 NA
HETATM    6  C12 UNL     1      22.139   4.171  51.404  1.00  0.00     0.073 A 
HETATM    7  C13 UNL     1      20.799   4.440  51.565  1.00  0.00     0.072 A 
HETATM    8  C14 UNL     1      19.883   3.472  51.908  1.00  0.00     0.103 A 
HETATM    9  C16 UNL     1      20.364   2.194  52.090  1.00  0.00     0.102 A 
HETATM   10  C18 UNL     1      21.707   1.920  51.931  1.00  0.00     0.055 A 
HETATM   11  C19 UNL     1      22.612   2.887  51.589  1.00  0.00     0.021 A 
ENDROOT
BRANCH   1  12
HETATM   12  C8  UNL     1      24.663   0.593  52.836  1.00  0.00    -0.032 A 
HETATM   13  C2  UNL     1      26.040   0.927  53.309  1.00  0.00    -0.039 A 
HETATM   14  C1  UNL     1      26.888   1.734  52.640  1.00  0.00     0.024 C 
HETATM   15  C3  UNL     1      26.689   0.455  54.526  1.00  0.00     0.007 A 
HETATM   16  C4  UNL     1      25.963  -0.352  55.273  1.00  0.00    -0.021 A 
HETATM   17  C5  UNL     1      24.593  -0.805  54.990  1.00  0.00     0.071 A 
HETATM   18  C6  UNL     1      24.130  -0.206  53.715  1.00  0.00     0.036 A 
BRANCH  18  19
HETATM   19  C7  UNL     1      22.774  -0.682  53.573  1.00  0.00     0.414 C 
HETATM   20  F1  UNL     1      22.204  -0.836  52.374  1.00  0.00    -0.166 F 
HETATM   21  F2  UNL     1      22.581  -1.835  54.381  1.00  0.00    -0.166 F 
HETATM   22  F3  UNL     1      21.929   0.260  54.232  1.00  0.00    -0.166 F 
ENDBRANCH  18  19
ENDBRANCH   1  12
BRANCH   9  23
HETATM   23  O2  UNL     1      19.478   1.166  52.441  1.00  0.00    -0.353 OA
HETATM   24  C17 UNL     1      19.110   0.181  51.494  1.00  0.00     0.210 C 
ENDBRANCH   9  23
BRANCH   8  25
HETATM   25  O1  UNL     1      18.532   3.678  52.083  1.00  0.00    -0.353 OA
HETATM   26  C15 UNL     1      17.610   3.984  51.075  1.00  0.00     0.210 C 
ENDBRANCH   8  25
TORSDOF 4
ENDMDL
