MODEL 1
REMARK VINA RESULT:      -7.6      0.000      0.000
REMARK  7 active torsions:
REMARK  status: ('A' for Active; 'I' for Inactive)
REMARK    1  A    between atoms: O1_2  and  C2_3 
REMARK    2  A    between atoms: C2_3  and  C3_4 
REMARK    3  A    between atoms: C3_4  and  N4_22 
REMARK    4  A    between atoms: C4_5  and  C5_6 
REMARK       I    between atoms: N4_22  and  C17_23 
REMARK    5  A    between atoms: C17_23  and  C18_25 
REMARK    6  A    between atoms: C19_26  and  C20_27 
REMARK    7  A    between atoms: C20_27  and  N5_28 
ROOT
HETATM    1  C5  UNL     1      23.942   2.571  50.130  1.00  0.00     0.011 A 
HETATM    2  C6  UNL     1      24.649   3.354  49.259  1.00  0.00     0.130 A 
HETATM    3  N1  UNL     1      25.921   3.627  49.582  1.00  0.00    -0.272 NA
HETATM    4  C7  UNL     1      26.418   3.100  50.762  1.00  0.00     0.127 A 
HETATM    5  C8  UNL     1      25.757   2.284  51.715  1.00  0.00     0.006 A 
HETATM    6  C9  UNL     1      24.412   2.037  51.304  1.00  0.00     0.053 A 
HETATM    7  N2  UNL     1      23.530   1.235  52.117  1.00  0.00    -0.364 N 
HETATM    8  C10 UNL     1      22.750   1.176  53.299  1.00  0.00     0.100 C 
HETATM    9  C11 UNL     1      22.481  -0.061  53.703  1.00  0.00    -0.011 C 
HETATM   10  C12 UNL     1      23.603  -0.761  53.886  1.00  0.00     0.008 C 
HETATM   11  C13 UNL     1      24.894  -0.172  53.703  1.00  0.00     0.176 C 
HETATM   12  N3  UNL     1      25.977  -0.425  54.631  1.00  0.00    -0.300 NA
HETATM   13  C14 UNL     1      27.061   0.288  54.603  1.00  0.00     0.105 C 
HETATM   14  C15 UNL     1      27.165   1.376  53.585  1.00  0.00     0.062 A 
HETATM   15 CL1  UNL     1      28.669   2.346  53.637  1.00  0.00    -0.199 Cl
HETATM   16  C16 UNL     1      26.968   2.234  52.592  1.00  0.00     0.189 A 
HETATM   17  H9  UNL     1      23.527   0.410  51.473  1.00  0.00     0.165 HD
ENDROOT
BRANCH   1  18
HETATM   18  C4  UNL     1      22.570   2.235  49.928  1.00  0.00     0.042 C 
HETATM   19  C3  UNL     1      21.691   3.220  49.922  1.00  0.00     0.036 C 
BRANCH  19  20
HETATM   20  C2  UNL     1      20.231   3.026  49.724  1.00  0.00     0.224 C 
BRANCH  20  21
HETATM   21  O1  UNL     1      19.704   2.060  50.578  1.00  0.00    -0.390 OA
HETATM   22  C1  UNL     1      19.374   2.576  51.821  1.00  0.00     0.201 C 
ENDBRANCH  20  21
ENDBRANCH  19  20
BRANCH  19  23
HETATM   23  N4  UNL     1      21.892   4.612  50.076  1.00  0.00    -0.325 N 
HETATM   24  C17 UNL     1      22.051   5.468  51.191  1.00  0.00     0.245 C 
HETATM   25  O2  UNL     1      22.017   4.912  52.315  1.00  0.00    -0.268 OA
HETATM   26  H16 UNL     1      21.904   4.937  49.065  1.00  0.00     0.169 HD
BRANCH  24  27
HETATM   27  C18 UNL     1      22.230   6.872  50.936  1.00  0.00     0.072 C 
HETATM   28  C19 UNL     1      23.438   7.389  50.798  1.00  0.00     0.008 C 
BRANCH  28  29
HETATM   29  C20 UNL     1      24.836   6.944  50.821  1.00  0.00     0.299 C 
BRANCH  29  30
HETATM   30  N5  UNL     1      25.621   7.441  49.690  1.00  0.00     0.083 N 
HETATM   31  C21 UNL     1      25.019   7.066  48.422  1.00  0.00     0.309 C 
HETATM   32  C22 UNL     1      25.600   8.912  49.765  1.00  0.00     0.309 C 
ENDBRANCH  29  30
ENDBRANCH  28  29
ENDBRANCH  24  27
ENDBRANCH  19  23
ENDBRANCH   1  18
TORSDOF 7
ENDMDL
MODEL 2
REMARK VINA RESULT:      -7.0      1.818      2.595
REMARK  7 active torsions:
REMARK  status: ('A' for Active; 'I' for Inactive)
REMARK    1  A    between atoms: O1_2  and  C2_3 
REMARK    2  A    between atoms: C2_3  and  C3_4 
REMARK    3  A    between atoms: C3_4  and  N4_22 
REMARK    4  A    between atoms: C4_5  and  C5_6 
REMARK       I    between atoms: N4_22  and  C17_23 
REMARK    5  A    between atoms: C17_23  and  C18_25 
REMARK    6  A    between atoms: C19_26  and  C20_27 
REMARK    7  A    between atoms: C20_27  and  N5_28 
ROOT
HETATM    1  C5  UNL     1      22.151   1.189  50.804  1.00  0.00     0.011 A 
HETATM    2  C6  UNL     1      22.590   1.959  49.760  1.00  0.00     0.130 A 
HETATM    3  N1  UNL     1      23.820   2.481  49.864  1.00  0.00    -0.272 NA
HETATM    4  C7  UNL     1      24.547   2.205  51.009  1.00  0.00     0.127 A 
HETATM    5  C8  UNL     1      24.171   1.423  52.130  1.00  0.00     0.006 A 
HETATM    6  C9  UNL     1      22.854   0.901  51.947  1.00  0.00     0.053 A 
HETATM    7  N2  UNL     1      22.242   0.077  52.961  1.00  0.00    -0.364 N 
HETATM    8  C10 UNL     1      21.638   0.044  54.243  1.00  0.00     0.100 C 
HETATM    9  C11 UNL     1      21.653  -1.156  54.813  1.00  0.00    -0.011 C 
HETATM   10  C12 UNL     1      22.899  -1.627  54.905  1.00  0.00     0.008 C 
HETATM   11  C13 UNL     1      24.027  -0.860  54.475  1.00  0.00     0.176 C 
HETATM   12  N3  UNL     1      25.244  -0.804  55.259  1.00  0.00    -0.300 NA
HETATM   13  C14 UNL     1      26.166   0.071  54.997  1.00  0.00     0.105 C 
HETATM   14  C15 UNL     1      25.941   1.017  53.863  1.00  0.00     0.062 A 
HETATM   15 CL1  UNL     1      27.236   2.225  53.592  1.00  0.00    -0.199 Cl
HETATM   16  C16 UNL     1      25.469   1.692  52.823  1.00  0.00     0.189 A 
HETATM   17  H9  UNL     1      22.310  -0.814  52.418  1.00  0.00     0.165 HD
ENDROOT
BRANCH   1  18
HETATM   18  C4  UNL     1      20.851   0.604  50.840  1.00  0.00     0.042 C 
HETATM   19  C3  UNL     1      19.829   1.358  50.477  1.00  0.00     0.036 C 
BRANCH  19  20
HETATM   20  C2  UNL     1      18.419   0.889  50.463  1.00  0.00     0.224 C 
BRANCH  20  21
HETATM   21  O1  UNL     1      17.783   1.084  51.687  1.00  0.00    -0.390 OA
HETATM   22  C1  UNL     1      16.547   1.695  51.550  1.00  0.00     0.201 C 
ENDBRANCH  20  21
ENDBRANCH  19  20
BRANCH  19  23
HETATM   23  N4  UNL     1      19.809   2.699  50.027  1.00  0.00    -0.325 N 
HETATM   24  C17 UNL     1      19.590   3.947  50.657  1.00  0.00     0.245 C 
HETATM   25  O2  UNL     1      19.365   3.903  51.891  1.00  0.00    -0.268 OA
HETATM   26  H16 UNL     1      20.016   2.579  48.993  1.00  0.00     0.169 HD
BRANCH  24  27
HETATM   27  C18 UNL     1      19.644   5.128  49.838  1.00  0.00     0.072 C 
HETATM   28  C19 UNL     1      20.500   6.099  50.102  1.00  0.00     0.008 C 
BRANCH  28  29
HETATM   29  C20 UNL     1      21.549   6.408  51.079  1.00  0.00     0.299 C 
BRANCH  29  30
HETATM   30  N5  UNL     1      22.638   5.431  51.090  1.00  0.00     0.083 N 
HETATM   31  C21 UNL     1      23.919   6.062  50.825  1.00  0.00     0.309 C 
HETATM   32  C22 UNL     1      22.700   4.873  52.452  1.00  0.00     0.309 C 
ENDBRANCH  29  30
ENDBRANCH  28  29
ENDBRANCH  24  27
ENDBRANCH  19  23
ENDBRANCH   1  18
TORSDOF 7
ENDMDL
MODEL 3
REMARK VINA RESULT:      -6.9      2.448      5.141
REMARK  7 active torsions:
REMARK  status: ('A' for Active; 'I' for Inactive)
REMARK    1  A    between atoms: O1_2  and  C2_3 
REMARK    2  A    between atoms: C2_3  and  C3_4 
REMARK    3  A    between atoms: C3_4  and  N4_22 
REMARK    4  A    between atoms: C4_5  and  C5_6 
REMARK       I    between atoms: N4_22  and  C17_23 
REMARK    5  A    between atoms: C17_23  and  C18_25 
REMARK    6  A    between atoms: C19_26  and  C20_27 
REMARK    7  A    between atoms: C20_27  and  N5_28 
ROOT
HETATM    1  C5  UNL     1      23.259   3.980  51.895  1.00  0.00     0.011 A 
HETATM    2  C6  UNL     1      21.909   4.197  51.823  1.00  0.00     0.130 A 
HETATM    3  N1  UNL     1      21.111   3.207  52.247  1.00  0.00    -0.272 NA
HETATM    4  C7  UNL     1      21.706   2.051  52.722  1.00  0.00     0.127 A 
HETATM    5  C8  UNL     1      23.087   1.747  52.831  1.00  0.00     0.006 A 
HETATM    6  C9  UNL     1      23.872   2.844  52.362  1.00  0.00     0.053 A 
HETATM    7  N2  UNL     1      25.313   2.771  52.364  1.00  0.00    -0.364 N 
HETATM    8  C10 UNL     1      26.462   2.213  51.751  1.00  0.00     0.100 C 
HETATM    9  C11 UNL     1      27.543   2.227  52.524  1.00  0.00    -0.011 C 
HETATM   10  C12 UNL     1      27.315   1.597  53.678  1.00  0.00     0.008 C 
HETATM   11  C13 UNL     1      26.062   0.964  53.955  1.00  0.00     0.176 C 
HETATM   12  N3  UNL     1      25.998  -0.339  54.583  1.00  0.00    -0.300 NA
HETATM   13  C14 UNL     1      24.887  -1.011  54.614  1.00  0.00     0.105 C 
HETATM   14  C15 UNL     1      23.675  -0.402  53.988  1.00  0.00     0.062 A 
HETATM   15 CL1  UNL     1      22.193  -1.406  54.030  1.00  0.00    -0.199 Cl
HETATM   16  C16 UNL     1      22.798   0.384  53.376  1.00  0.00     0.189 A 
HETATM   17  H9  UNL     1      25.444   3.446  53.153  1.00  0.00     0.165 HD
ENDROOT
BRANCH   1  18
HETATM   18  C4  UNL     1      24.220   4.932  51.444  1.00  0.00     0.042 C 
HETATM   19  C3  UNL     1      24.400   5.051  50.141  1.00  0.00     0.036 C 
BRANCH  19  20
HETATM   20  C2  UNL     1      25.364   5.997  49.522  1.00  0.00     0.224 C 
BRANCH  20  21
HETATM   21  O1  UNL     1      24.818   7.265  49.337  1.00  0.00    -0.390 OA
HETATM   22  C1  UNL     1      25.472   8.237  50.078  1.00  0.00     0.201 C 
ENDBRANCH  20  21
ENDBRANCH  19  20
BRANCH  19  23
HETATM   23  N4  UNL     1      23.764   4.374  49.074  1.00  0.00    -0.325 N 
HETATM   24  C17 UNL     1      22.629   4.644  48.273  1.00  0.00     0.245 C 
HETATM   25  O2  UNL     1      22.024   5.714  48.527  1.00  0.00    -0.268 OA
HETATM   26  H16 UNL     1      24.377   3.514  48.973  1.00  0.00     0.169 HD
BRANCH  24  27
HETATM   27  C18 UNL     1      22.280   3.683  47.262  1.00  0.00     0.072 C 
HETATM   28  C19 UNL     1      21.643   2.569  47.575  1.00  0.00     0.008 C 
BRANCH  28  29
HETATM   29  C20 UNL     1      21.105   1.904  48.768  1.00  0.00     0.299 C 
BRANCH  29  30
HETATM   30  N5  UNL     1      19.646   1.970  48.859  1.00  0.00     0.083 N 
HETATM   31  C21 UNL     1      19.146   1.147  49.947  1.00  0.00     0.309 C 
HETATM   32  C22 UNL     1      19.297   3.367  49.174  1.00  0.00     0.309 C 
ENDBRANCH  29  30
ENDBRANCH  28  29
ENDBRANCH  24  27
ENDBRANCH  19  23
ENDBRANCH   1  18
TORSDOF 7
ENDMDL
MODEL 4
REMARK VINA RESULT:      -6.8      1.854      2.378
REMARK  7 active torsions:
REMARK  status: ('A' for Active; 'I' for Inactive)
REMARK    1  A    between atoms: O1_2  and  C2_3 
REMARK    2  A    between atoms: C2_3  and  C3_4 
REMARK    3  A    between atoms: C3_4  and  N4_22 
REMARK    4  A    between atoms: C4_5  and  C5_6 
REMARK       I    between atoms: N4_22  and  C17_23 
REMARK    5  A    between atoms: C17_23  and  C18_25 
REMARK    6  A    between atoms: C19_26  and  C20_27 
REMARK    7  A    between atoms: C20_27  and  N5_28 
ROOT
HETATM    1  C5  UNL     1      23.961   2.530  50.176  1.00  0.00     0.011 A 
HETATM    2  C6  UNL     1      24.665   3.349  49.334  1.00  0.00     0.130 A 
HETATM    3  N1  UNL     1      25.926   3.641  49.684  1.00  0.00    -0.272 NA
HETATM    4  C7  UNL     1      26.416   3.097  50.859  1.00  0.00     0.127 A 
HETATM    5  C8  UNL     1      25.759   2.244  51.782  1.00  0.00     0.006 A 
HETATM    6  C9  UNL     1      24.426   1.978  51.344  1.00  0.00     0.053 A 
HETATM    7  N2  UNL     1      23.549   1.138  52.124  1.00  0.00    -0.364 N 
HETATM    8  C10 UNL     1      22.752   1.034  53.291  1.00  0.00     0.100 C 
HETATM    9  C11 UNL     1      22.504  -0.218  53.662  1.00  0.00    -0.011 C 
HETATM   10  C12 UNL     1      23.638  -0.897  53.845  1.00  0.00     0.008 C 
HETATM   11  C13 UNL     1      24.919  -0.277  53.697  1.00  0.00     0.176 C 
HETATM   12  N3  UNL     1      25.992  -0.529  54.636  1.00  0.00    -0.300 NA
HETATM   13  C14 UNL     1      27.061   0.208  54.642  1.00  0.00     0.105 C 
HETATM   14  C15 UNL     1      27.157   1.322  53.652  1.00  0.00     0.062 A 
HETATM   15 CL1  UNL     1      28.639   2.323  53.751  1.00  0.00    -0.199 Cl
HETATM   16  C16 UNL     1      26.957   2.199  52.676  1.00  0.00     0.189 A 
HETATM   17  H9  UNL     1      23.573   0.329  51.461  1.00  0.00     0.165 HD
ENDROOT
BRANCH   1  18
HETATM   18  C4  UNL     1      22.601   2.169  49.944  1.00  0.00     0.042 C 
HETATM   19  C3  UNL     1      21.677   3.087  50.164  1.00  0.00     0.036 C 
BRANCH  19  20
HETATM   20  C2  UNL     1      20.222   2.860  49.968  1.00  0.00     0.224 C 
BRANCH  20  21
HETATM   21  O1  UNL     1      19.458   3.394  51.003  1.00  0.00    -0.390 OA
HETATM   22  C1  UNL     1      19.047   2.429  51.909  1.00  0.00     0.201 C 
ENDBRANCH  20  21
ENDBRANCH  19  20
BRANCH  19  23
HETATM   23  N4  UNL     1      21.818   4.427  50.595  1.00  0.00    -0.325 N 
HETATM   24  C17 UNL     1      21.969   5.666  49.929  1.00  0.00     0.245 C 
HETATM   25  O2  UNL     1      21.981   5.613  48.675  1.00  0.00    -0.268 OA
HETATM   26  H16 UNL     1      21.784   4.315  51.650  1.00  0.00     0.169 HD
BRANCH  24  27
HETATM   27  C18 UNL     1      22.094   6.849  50.737  1.00  0.00     0.072 C 
HETATM   28  C19 UNL     1      21.291   7.883  50.557  1.00  0.00     0.008 C 
BRANCH  28  29
HETATM   29  C20 UNL     1      20.170   8.271  49.694  1.00  0.00     0.299 C 
BRANCH  29  30
HETATM   30  N5  UNL     1      19.802   9.681  49.821  1.00  0.00     0.083 N 
HETATM   31  C21 UNL     1      20.725  10.536  49.095  1.00  0.00     0.309 C 
HETATM   32  C22 UNL     1      18.478   9.838  49.194  1.00  0.00     0.309 C 
ENDBRANCH  29  30
ENDBRANCH  28  29
ENDBRANCH  24  27
ENDBRANCH  19  23
ENDBRANCH   1  18
TORSDOF 7
ENDMDL
MODEL 5
REMARK VINA RESULT:      -6.7      4.476      7.531
REMARK  7 active torsions:
REMARK  status: ('A' for Active; 'I' for Inactive)
REMARK    1  A    between atoms: O1_2  and  C2_3 
REMARK    2  A    between atoms: C2_3  and  C3_4 
REMARK    3  A    between atoms: C3_4  and  N4_22 
REMARK    4  A    between atoms: C4_5  and  C5_6 
REMARK       I    between atoms: N4_22  and  C17_23 
REMARK    5  A    between atoms: C17_23  and  C18_25 
REMARK    6  A    between atoms: C19_26  and  C20_27 
REMARK    7  A    between atoms: C20_27  and  N5_28 
ROOT
HETATM    1  C5  UNL     1      26.733   6.494  48.649  1.00  0.00     0.011 A 
HETATM    2  C6  UNL     1      27.846   5.799  48.259  1.00  0.00     0.130 A 
HETATM    3  N1  UNL     1      27.948   4.530  48.676  1.00  0.00    -0.272 NA
HETATM    4  C7  UNL     1      26.930   4.021  49.464  1.00  0.00     0.127 A 
HETATM    5  C8  UNL     1      25.750   4.668  49.911  1.00  0.00     0.006 A 
HETATM    6  C9  UNL     1      25.711   6.012  49.428  1.00  0.00     0.053 A 
HETATM    7  N2  UNL     1      24.607   6.880  49.759  1.00  0.00    -0.364 N 
HETATM    8  C10 UNL     1      23.982   7.655  50.767  1.00  0.00     0.100 C 
HETATM    9  C11 UNL     1      22.698   7.907  50.533  1.00  0.00    -0.011 C 
HETATM   10  C12 UNL     1      22.011   6.775  50.363  1.00  0.00     0.008 C 
HETATM   11  C13 UNL     1      22.632   5.493  50.486  1.00  0.00     0.176 C 
HETATM   12  N3  UNL     1      21.981   4.404  51.185  1.00  0.00    -0.300 NA
HETATM   13  C14 UNL     1      22.636   3.329  51.504  1.00  0.00     0.105 C 
HETATM   14  C15 UNL     1      24.079   3.242  51.126  1.00  0.00     0.062 A 
HETATM   15 CL1  UNL     1      24.926   1.750  51.639  1.00  0.00    -0.199 Cl
HETATM   16  C16 UNL     1      25.304   3.454  50.662  1.00  0.00     0.189 A 
HETATM   17  H9  UNL     1      24.188   6.876  48.800  1.00  0.00     0.165 HD
ENDROOT
BRANCH   1  18
HETATM   18  C4  UNL     1      26.516   7.861  48.308  1.00  0.00     0.042 C 
HETATM   19  C3  UNL     1      27.495   8.716  48.544  1.00  0.00     0.036 C 
BRANCH  19  20
HETATM   20  C2  UNL     1      27.417  10.169  48.243  1.00  0.00     0.224 C 
BRANCH  20  21
HETATM   21  O1  UNL     1      27.799  10.956  49.326  1.00  0.00    -0.390 OA
HETATM   22  C1  UNL     1      28.488  12.094  48.936  1.00  0.00     0.201 C 
ENDBRANCH  20  21
ENDBRANCH  19  20
BRANCH  19  23
HETATM   23  N4  UNL     1      28.781   8.489  49.088  1.00  0.00    -0.325 N 
HETATM   24  C17 UNL     1      30.083   8.408  48.541  1.00  0.00     0.245 C 
HETATM   25  O2  UNL     1      30.164   8.573  47.300  1.00  0.00    -0.268 OA
HETATM   26  H16 UNL     1      28.558   8.377  50.120  1.00  0.00     0.169 HD
BRANCH  24  27
HETATM   27  C18 UNL     1      31.173   8.148  49.442  1.00  0.00     0.072 C 
HETATM   28  C19 UNL     1      31.740   6.956  49.496  1.00  0.00     0.008 C 
BRANCH  28  29
HETATM   29  C20 UNL     1      31.607   5.642  48.857  1.00  0.00     0.299 C 
BRANCH  29  30
HETATM   30  N5  UNL     1      32.725   5.311  47.974  1.00  0.00     0.083 N 
HETATM   31  C21 UNL     1      32.628   6.016  46.708  1.00  0.00     0.309 C 
HETATM   32  C22 UNL     1      33.953   5.780  48.640  1.00  0.00     0.309 C 
ENDBRANCH  29  30
ENDBRANCH  28  29
ENDBRANCH  24  27
ENDBRANCH  19  23
ENDBRANCH   1  18
TORSDOF 7
ENDMDL
MODEL 6
REMARK VINA RESULT:      -6.4      2.366      3.311
REMARK  7 active torsions:
REMARK  status: ('A' for Active; 'I' for Inactive)
REMARK    1  A    between atoms: O1_2  and  C2_3 
REMARK    2  A    between atoms: C2_3  and  C3_4 
REMARK    3  A    between atoms: C3_4  and  N4_22 
REMARK    4  A    between atoms: C4_5  and  C5_6 
REMARK       I    between atoms: N4_22  and  C17_23 
REMARK    5  A    between atoms: C17_23  and  C18_25 
REMARK    6  A    between atoms: C19_26  and  C20_27 
REMARK    7  A    between atoms: C20_27  and  N5_28 
ROOT
HETATM    1  C5  UNL     1      21.150   3.338  52.127  1.00  0.00     0.011 A 
HETATM    2  C6  UNL     1      21.497   4.573  51.650  1.00  0.00     0.130 A 
HETATM    3  N1  UNL     1      22.793   4.908  51.716  1.00  0.00    -0.272 NA
HETATM    4  C7  UNL     1      23.675   3.988  52.257  1.00  0.00     0.127 A 
HETATM    5  C8  UNL     1      23.400   2.695  52.771  1.00  0.00     0.006 A 
HETATM    6  C9  UNL     1      22.004   2.410  52.667  1.00  0.00     0.053 A 
HETATM    7  N2  UNL     1      21.474   1.152  53.134  1.00  0.00    -0.364 N 
HETATM    8  C10 UNL     1      21.136   0.365  54.264  1.00  0.00     0.100 C 
HETATM    9  C11 UNL     1      21.062  -0.937  54.008  1.00  0.00    -0.011 C 
HETATM   10  C12 UNL     1      22.205  -1.389  53.488  1.00  0.00     0.008 C 
HETATM   11  C13 UNL     1      23.339  -0.536  53.307  1.00  0.00     0.176 C 
HETATM   12  N3  UNL     1      24.677  -0.982  53.635  1.00  0.00    -0.300 NA
HETATM   13  C14 UNL     1      25.663  -0.140  53.700  1.00  0.00     0.105 C 
HETATM   14  C15 UNL     1      25.382   1.301  53.425  1.00  0.00     0.062 A 
HETATM   15 CL1  UNL     1      26.782   2.408  53.579  1.00  0.00    -0.199 Cl
HETATM   16  C16 UNL     1      24.835   2.473  53.130  1.00  0.00     0.189 A 
HETATM   17  H9  UNL     1      21.285   0.765  52.180  1.00  0.00     0.165 HD
ENDROOT
BRANCH   1  18
HETATM   18  C4  UNL     1      19.803   2.870  52.152  1.00  0.00     0.042 C 
HETATM   19  C3  UNL     1      19.259   2.506  51.004  1.00  0.00     0.036 C 
BRANCH  19  20
HETATM   20  C2  UNL     1      17.868   1.999  50.872  1.00  0.00     0.224 C 
BRANCH  20  21
HETATM   21  O1  UNL     1      17.587   0.979  51.778  1.00  0.00    -0.390 OA
HETATM   22  C1  UNL     1      18.066  -0.251  51.355  1.00  0.00     0.201 C 
ENDBRANCH  20  21
ENDBRANCH  19  20
BRANCH  19  23
HETATM   23  N4  UNL     1      19.817   2.488  49.705  1.00  0.00    -0.325 N 
HETATM   24  C17 UNL     1      19.765   3.368  48.598  1.00  0.00     0.245 C 
HETATM   25  O2  UNL     1      19.089   4.412  48.762  1.00  0.00    -0.268 OA
HETATM   26  H16 UNL     1      20.352   1.571  49.716  1.00  0.00     0.169 HD
BRANCH  24  27
HETATM   27  C18 UNL     1      20.478   2.988  47.408  1.00  0.00     0.072 C 
HETATM   28  C19 UNL     1      21.754   3.294  47.254  1.00  0.00     0.008 C 
BRANCH  28  29
HETATM   29  C20 UNL     1      22.820   3.980  47.992  1.00  0.00     0.299 C 
BRANCH  29  30
HETATM   30  N5  UNL     1      22.659   5.434  48.024  1.00  0.00     0.083 N 
HETATM   31  C21 UNL     1      23.872   6.092  48.478  1.00  0.00     0.309 C 
HETATM   32  C22 UNL     1      22.418   5.872  46.638  1.00  0.00     0.309 C 
ENDBRANCH  29  30
ENDBRANCH  28  29
ENDBRANCH  24  27
ENDBRANCH  19  23
ENDBRANCH   1  18
TORSDOF 7
ENDMDL
MODEL 7
REMARK VINA RESULT:      -6.2      3.944      6.578
REMARK  7 active torsions:
REMARK  status: ('A' for Active; 'I' for Inactive)
REMARK    1  A    between atoms: O1_2  and  C2_3 
REMARK    2  A    between atoms: C2_3  and  C3_4 
REMARK    3  A    between atoms: C3_4  and  N4_22 
REMARK    4  A    between atoms: C4_5  and  C5_6 
REMARK       I    between atoms: N4_22  and  C17_23 
REMARK    5  A    between atoms: C17_23  and  C18_25 
REMARK    6  A    between atoms: C19_26  and  C20_27 
REMARK    7  A    between atoms: C20_27  and  N5_28 
ROOT
HETATM    1  C5  UNL     1      19.724   0.620  50.741  1.00  0.00     0.011 A 
HETATM    2  C6  UNL     1      19.501   1.240  49.541  1.00  0.00     0.130 A 
HETATM    3  N1  UNL     1      20.502   1.980  49.045  1.00  0.00    -0.272 NA
HETATM    4  C7  UNL     1      21.675   2.062  49.776  1.00  0.00     0.127 A 
HETATM    5  C8  UNL     1      21.986   1.455  51.020  1.00  0.00     0.006 A 
HETATM    6  C9  UNL     1      20.876   0.684  51.484  1.00  0.00     0.053 A 
HETATM    7  N2  UNL     1      20.947  -0.025  52.738  1.00  0.00    -0.364 N 
HETATM    8  C10 UNL     1      20.942   0.082  54.151  1.00  0.00     0.100 C 
HETATM    9  C11 UNL     1      21.477  -0.965  54.771  1.00  0.00    -0.011 C 
HETATM   10  C12 UNL     1      22.726  -1.183  54.354  1.00  0.00     0.008 C 
HETATM   11  C13 UNL     1      23.361  -0.326  53.401  1.00  0.00     0.176 C 
HETATM   12  N3  UNL     1      24.738   0.093  53.563  1.00  0.00    -0.300 NA
HETATM   13  C14 UNL     1      25.234   1.050  52.840  1.00  0.00     0.105 C 
HETATM   14  C15 UNL     1      24.348   1.707  51.833  1.00  0.00     0.062 A 
HETATM   15 CL1  UNL     1      25.088   3.048  50.906  1.00  0.00    -0.199 Cl
HETATM   16  C16 UNL     1      23.347   2.076  51.044  1.00  0.00     0.189 A 
HETATM   17  H9  UNL     1      21.002  -0.978  52.309  1.00  0.00     0.165 HD
ENDROOT
BRANCH   1  18
HETATM   18  C4  UNL     1      18.733  -0.167  51.400  1.00  0.00     0.042 C 
HETATM   19  C3  UNL     1      17.586   0.415  51.698  1.00  0.00     0.036 C 
BRANCH  19  20
HETATM   20  C2  UNL     1      16.462  -0.274  52.383  1.00  0.00     0.224 C 
BRANCH  20  21
HETATM   21  O1  UNL     1      15.615   0.616  53.040  1.00  0.00    -0.390 OA
HETATM   22  C1  UNL     1      14.306   0.164  53.087  1.00  0.00     0.201 C 
ENDBRANCH  20  21
ENDBRANCH  19  20
BRANCH  19  23
HETATM   23  N4  UNL     1      17.153   1.739  51.452  1.00  0.00    -0.325 N 
HETATM   24  C17 UNL     1      16.331   2.340  50.469  1.00  0.00     0.245 C 
HETATM   25  O2  UNL     1      15.854   1.563  49.607  1.00  0.00    -0.268 OA
HETATM   26  H16 UNL     1      17.620   2.267  52.245  1.00  0.00     0.169 HD
BRANCH  24  27
HETATM   27  C18 UNL     1      16.124   3.761  50.548  1.00  0.00     0.072 C 
HETATM   28  C19 UNL     1      15.338   4.283  51.473  1.00  0.00     0.008 C 
BRANCH  28  29
HETATM   29  C20 UNL     1      14.499   3.832  52.590  1.00  0.00     0.299 C 
BRANCH  29  30
HETATM   30  N5  UNL     1      13.126   3.520  52.194  1.00  0.00     0.083 N 
HETATM   31  C21 UNL     1      12.222   3.578  53.330  1.00  0.00     0.309 C 
HETATM   32  C22 UNL     1      12.703   4.567  51.247  1.00  0.00     0.309 C 
ENDBRANCH  29  30
ENDBRANCH  28  29
ENDBRANCH  24  27
ENDBRANCH  19  23
ENDBRANCH   1  18
TORSDOF 7
ENDMDL
MODEL 8
REMARK VINA RESULT:      -6.0      9.119     12.369
REMARK  7 active torsions:
REMARK  status: ('A' for Active; 'I' for Inactive)
REMARK    1  A    between atoms: O1_2  and  C2_3 
REMARK    2  A    between atoms: C2_3  and  C3_4 
REMARK    3  A    between atoms: C3_4  and  N4_22 
REMARK    4  A    between atoms: C4_5  and  C5_6 
REMARK       I    between atoms: N4_22  and  C17_23 
REMARK    5  A    between atoms: C17_23  and  C18_25 
REMARK    6  A    between atoms: C19_26  and  C20_27 
REMARK    7  A    between atoms: C20_27  and  N5_28 
ROOT
HETATM    1  C5  UNL     1      34.073   7.321  47.917  1.00  0.00     0.011 A 
HETATM    2  C6  UNL     1      35.235   8.034  47.791  1.00  0.00     0.130 A 
HETATM    3  N1  UNL     1      35.123   9.317  47.418  1.00  0.00    -0.272 NA
HETATM    4  C7  UNL     1      33.853   9.818  47.191  1.00  0.00     0.127 A 
HETATM    5  C8  UNL     1      32.606   9.152  47.299  1.00  0.00     0.006 A 
HETATM    6  C9  UNL     1      32.804   7.796  47.699  1.00  0.00     0.053 A 
HETATM    7  N2  UNL     1      31.680   6.907  47.869  1.00  0.00    -0.364 N 
HETATM    8  C10 UNL     1      30.677   6.143  47.222  1.00  0.00     0.100 C 
HETATM    9  C11 UNL     1      29.640   5.851  48.000  1.00  0.00    -0.011 C 
HETATM   10  C12 UNL     1      29.089   6.959  48.501  1.00  0.00     0.008 C 
HETATM   11  C13 UNL     1      29.573   8.261  48.157  1.00  0.00     0.176 C 
HETATM   12  N3  UNL     1      28.665   9.350  47.866  1.00  0.00    -0.300 NA
HETATM   13  C14 UNL     1      29.093  10.450  47.326  1.00  0.00     0.105 C 
HETATM   14  C15 UNL     1      30.550  10.565  47.017  1.00  0.00     0.062 A 
HETATM   15 CL1  UNL     1      31.058  12.093  46.232  1.00  0.00    -0.199 Cl
HETATM   16  C16 UNL     1      31.855  10.374  46.873  1.00  0.00     0.189 A 
HETATM   17  H9  UNL     1      31.738   6.875  48.914  1.00  0.00     0.165 HD
ENDROOT
BRANCH   1  18
HETATM   18  C4  UNL     1      34.050   5.939  48.271  1.00  0.00     0.042 C 
HETATM   19  C3  UNL     1      34.361   5.061  47.335  1.00  0.00     0.036 C 
BRANCH  19  20
HETATM   20  C2  UNL     1      34.379   3.591  47.552  1.00  0.00     0.224 C 
BRANCH  20  21
HETATM   21  O1  UNL     1      33.702   2.898  46.552  1.00  0.00    -0.390 OA
HETATM   22  C1  UNL     1      32.348   2.769  46.821  1.00  0.00     0.201 C 
ENDBRANCH  20  21
ENDBRANCH  19  20
BRANCH  19  23
HETATM   23  N4  UNL     1      34.743   5.271  45.989  1.00  0.00    -0.325 N 
HETATM   24  C17 UNL     1      34.044   5.617  44.809  1.00  0.00     0.245 C 
HETATM   25  O2  UNL     1      32.809   5.792  44.937  1.00  0.00    -0.268 OA
HETATM   26  H16 UNL     1      35.789   5.097  46.036  1.00  0.00     0.169 HD
BRANCH  24  27
HETATM   27  C18 UNL     1      34.802   5.732  43.592  1.00  0.00     0.072 C 
HETATM   28  C19 UNL     1      34.351   5.223  42.459  1.00  0.00     0.008 C 
BRANCH  28  29
HETATM   29  C20 UNL     1      33.181   4.484  41.972  1.00  0.00     0.299 C 
BRANCH  29  30
HETATM   30  N5  UNL     1      33.242   4.181  40.542  1.00  0.00     0.083 N 
HETATM   31  C21 UNL     1      34.598   4.294  40.033  1.00  0.00     0.309 C 
HETATM   32  C22 UNL     1      32.832   2.775  40.383  1.00  0.00     0.309 C 
ENDBRANCH  29  30
ENDBRANCH  28  29
ENDBRANCH  24  27
ENDBRANCH  19  23
ENDBRANCH   1  18
TORSDOF 7
ENDMDL
MODEL 9
REMARK VINA RESULT:      -5.8      2.306      3.143
REMARK  7 active torsions:
REMARK  status: ('A' for Active; 'I' for Inactive)
REMARK    1  A    between atoms: O1_2  and  C2_3 
REMARK    2  A    between atoms: C2_3  and  C3_4 
REMARK    3  A    between atoms: C3_4  and  N4_22 
REMARK    4  A    between atoms: C4_5  and  C5_6 
REMARK       I    between atoms: N4_22  and  C17_23 
REMARK    5  A    between atoms: C17_23  and  C18_25 
REMARK    6  A    between atoms: C19_26  and  C20_27 
REMARK    7  A    between atoms: C20_27  and  N5_28 
ROOT
HETATM    1  C5  UNL     1      22.322   3.270  49.411  1.00  0.00     0.011 A 
HETATM    2  C6  UNL     1      23.526   3.723  48.942  1.00  0.00     0.130 A 
HETATM    3  N1  UNL     1      24.623   3.329  49.603  1.00  0.00    -0.272 NA
HETATM    4  C7  UNL     1      24.458   2.502  50.701  1.00  0.00     0.127 A 
HETATM    5  C8  UNL     1      23.256   1.990  51.250  1.00  0.00     0.006 A 
HETATM    6  C9  UNL     1      22.134   2.450  50.496  1.00  0.00     0.053 A 
HETATM    7  N2  UNL     1      20.792   2.069  50.866  1.00  0.00    -0.364 N 
HETATM    8  C10 UNL     1      19.731   2.250  51.788  1.00  0.00     0.100 C 
HETATM    9  C11 UNL     1      18.860   1.247  51.807  1.00  0.00    -0.011 C 
HETATM   10  C12 UNL     1      19.469   0.088  52.066  1.00  0.00     0.008 C 
HETATM   11  C13 UNL     1      20.873   0.019  52.331  1.00  0.00     0.176 C 
HETATM   12  N3  UNL     1      21.400  -0.815  53.392  1.00  0.00    -0.300 NA
HETATM   13  C14 UNL     1      22.631  -0.694  53.786  1.00  0.00     0.105 C 
HETATM   14  C15 UNL     1      23.492   0.325  53.114  1.00  0.00     0.062 A 
HETATM   15 CL1  UNL     1      25.163   0.464  53.742  1.00  0.00    -0.199 Cl
HETATM   16  C16 UNL     1      23.993   1.280  52.342  1.00  0.00     0.189 A 
HETATM   17  H9  UNL     1      20.648   1.420  50.058  1.00  0.00     0.165 HD
ENDROOT
BRANCH   1  18
HETATM   18  C4  UNL     1      21.076   3.641  48.826  1.00  0.00     0.042 C 
HETATM   19  C3  UNL     1      20.691   4.898  48.948  1.00  0.00     0.036 C 
BRANCH  19  20
HETATM   20  C2  UNL     1      19.420   5.432  48.393  1.00  0.00     0.224 C 
BRANCH  20  21
HETATM   21  O1  UNL     1      18.889   4.612  47.400  1.00  0.00    -0.390 OA
HETATM   22  C1  UNL     1      17.828   5.205  46.735  1.00  0.00     0.201 C 
ENDBRANCH  20  21
ENDBRANCH  19  20
BRANCH  19  23
HETATM   23  N4  UNL     1      21.342   5.987  49.574  1.00  0.00    -0.325 N 
HETATM   24  C17 UNL     1      22.173   7.035  49.115  1.00  0.00     0.245 C 
HETATM   25  O2  UNL     1      22.408   7.045  47.883  1.00  0.00    -0.268 OA
HETATM   26  H16 UNL     1      21.051   5.853  50.587  1.00  0.00     0.169 HD
BRANCH  24  27
HETATM   27  C18 UNL     1      22.663   7.975  50.087  1.00  0.00     0.072 C 
HETATM   28  C19 UNL     1      23.814   7.776  50.704  1.00  0.00     0.008 C 
BRANCH  28  29
HETATM   29  C20 UNL     1      24.895   6.784  50.727  1.00  0.00     0.299 C 
BRANCH  29  30
HETATM   30  N5  UNL     1      26.049   7.165  49.911  1.00  0.00     0.083 N 
HETATM   31  C21 UNL     1      25.862   6.788  48.521  1.00  0.00     0.309 C 
HETATM   32  C22 UNL     1      26.139   8.635  49.955  1.00  0.00     0.309 C 
ENDBRANCH  29  30
ENDBRANCH  28  29
ENDBRANCH  24  27
ENDBRANCH  19  23
ENDBRANCH   1  18
TORSDOF 7
ENDMDL
