MODEL 1
REMARK VINA RESULT:      -8.6      0.000      0.000
REMARK  6 active torsions:
REMARK  status: ('A' for Active; 'I' for Inactive)
REMARK    1  A    between atoms: C2_2  and  P1_3 
REMARK    2  A    between atoms: C4_6  and  N2_7 
REMARK    3  A    between atoms: N2_7  and  C5_8 
REMARK       I    between atoms: N3_11  and  C8_12 
REMARK    4  A    between atoms: C12_18  and  C13_19 
REMARK    5  A    between atoms: C13_19  and  C14_20 
REMARK    6  A    between atoms: C16_22  and  C17_23 
REMARK       I    between atoms: C17_23  and  N5_24 
ROOT
HETATM    1  P1  UNL     1      23.331   2.228  51.624  1.00  0.00    -0.027 P 
HETATM    2  C3  UNL     1      22.968   3.137  50.330  1.00  0.00     0.148 A 
HETATM    3  N1  UNL     1      23.833   4.208  49.976  1.00  0.00    -0.076 NA
HETATM    4  C4  UNL     1      24.901   4.499  50.632  1.00  0.00     0.700 A 
HETATM    5  N4  UNL     1      25.374   3.812  51.789  1.00  0.00    -0.193 N 
HETATM    6  C12 UNL     1      24.713   2.697  52.376  1.00  0.00     0.041 A 
HETATM    7  H20 UNL     1      26.240   4.149  52.217  1.00  0.00     0.184 HD
ENDROOT
BRANCH   6   8
HETATM    8  C13 UNL     1      25.182   1.971  53.571  1.00  0.00     0.117 C 
BRANCH   8   9
HETATM    9  C14 UNL     1      26.233   0.979  53.324  1.00  0.00     0.038 A 
HETATM   10  C15 UNL     1      26.011  -0.351  53.034  1.00  0.00     0.066 A 
HETATM   11  C16 UNL     1      27.249  -0.965  52.868  1.00  0.00     0.146 A 
HETATM   12  N6  UNL     1      28.195  -0.037  53.050  1.00  0.00    -0.167 NA
HETATM   13  N7  UNL     1      27.581   1.104  53.318  1.00  0.00    -0.277 N 
HETATM   14  C18 UNL     1      28.296   2.337  53.576  1.00  0.00     0.179 C 
BRANCH  11  15
HETATM   15  C17 UNL     1      27.422  -2.388  52.547  1.00  0.00     0.269 C 
HETATM   16  N5  UNL     1      28.499  -3.098  53.161  1.00  0.00    -0.365 N 
HETATM   17  H24 UNL     1      28.489  -4.136  53.307  1.00  0.00     0.159 HD
HETATM   18  H25 UNL     1      29.339  -2.553  53.483  1.00  0.00     0.159 HD
HETATM   19  O2  UNL     1      26.613  -2.921  51.744  1.00  0.00    -0.266 OA
ENDBRANCH  11  15
ENDBRANCH   8   9
ENDBRANCH   6   8
BRANCH   1  20
HETATM   20  C2  UNL     1      22.341   0.826  52.218  1.00  0.00     0.041 C 
HETATM   21  C1  UNL     1      21.444   0.278  51.159  1.00  0.00     0.010 C 
ENDBRANCH   1  20
BRANCH   4  22
HETATM   22  N2  UNL     1      25.644   5.603  50.131  1.00  0.00    -0.220 N 
HETATM   23  H7  UNL     1      25.686   6.487  50.718  1.00  0.00     0.178 HD
BRANCH  22  24
HETATM   24  C5  UNL     1      26.324   5.486  48.828  1.00  0.00     0.102 C 
HETATM   25  C6  UNL     1      27.589   4.729  48.898  1.00  0.00     0.045 C 
HETATM   26  C7  UNL     1      28.744   5.320  48.153  1.00  0.00     0.127 C 
HETATM   27  N3  UNL     1      28.986   6.699  48.428  1.00  0.00    -0.352 N 
HETATM   28  C8  UNL     1      30.305   7.234  48.424  1.00  0.00     0.215 C 
HETATM   29  C10 UNL     1      27.825   7.494  48.704  1.00  0.00     0.127 C 
HETATM   30  C9  UNL     1      30.617   8.650  48.701  1.00  0.00     0.117 C 
HETATM   31  O1  UNL     1      31.130   6.311  48.150  1.00  0.00    -0.274 OA
HETATM   32  C11 UNL     1      26.547   6.855  48.239  1.00  0.00     0.045 C 
ENDBRANCH  22  24
ENDBRANCH   4  22
TORSDOF 6
ENDMDL
MODEL 2
REMARK VINA RESULT:      -8.5      1.716      2.147
REMARK  6 active torsions:
REMARK  status: ('A' for Active; 'I' for Inactive)
REMARK    1  A    between atoms: C2_2  and  P1_3 
REMARK    2  A    between atoms: C4_6  and  N2_7 
REMARK    3  A    between atoms: N2_7  and  C5_8 
REMARK       I    between atoms: N3_11  and  C8_12 
REMARK    4  A    between atoms: C12_18  and  C13_19 
REMARK    5  A    between atoms: C13_19  and  C14_20 
REMARK    6  A    between atoms: C16_22  and  C17_23 
REMARK       I    between atoms: C17_23  and  N5_24 
ROOT
HETATM    1  P1  UNL     1      23.212   2.484  50.402  1.00  0.00    -0.027 P 
HETATM    2  C3  UNL     1      23.596   3.256  49.029  1.00  0.00     0.148 A 
HETATM    3  N1  UNL     1      24.583   4.278  49.067  1.00  0.00    -0.076 NA
HETATM    4  C4  UNL     1      25.196   4.628  50.143  1.00  0.00     0.700 A 
HETATM    5  N4  UNL     1      24.988   4.060  51.435  1.00  0.00    -0.193 N 
HETATM    6  C12 UNL     1      24.058   3.017  51.703  1.00  0.00     0.041 A 
HETATM    7  H20 UNL     1      25.543   4.433  52.209  1.00  0.00     0.184 HD
ENDROOT
BRANCH   6   8
HETATM    8  C13 UNL     1      23.825   2.414  53.029  1.00  0.00     0.117 C 
BRANCH   8   9
HETATM    9  C14 UNL     1      24.767   1.356  53.406  1.00  0.00     0.038 A 
HETATM   10  C15 UNL     1      26.099   1.554  53.702  1.00  0.00     0.066 A 
HETATM   11  C16 UNL     1      26.658   0.317  54.008  1.00  0.00     0.146 A 
HETATM   12  N6  UNL     1      25.695  -0.606  53.904  1.00  0.00    -0.167 NA
HETATM   13  N7  UNL     1      24.586   0.022  53.548  1.00  0.00    -0.277 N 
HETATM   14  C18 UNL     1      23.328  -0.667  53.338  1.00  0.00     0.179 C 
BRANCH  11  15
HETATM   15  C17 UNL     1      28.066   0.122  54.377  1.00  0.00     0.269 C 
HETATM   16  N5  UNL     1      28.732  -1.058  53.923  1.00  0.00    -0.365 N 
HETATM   17  H24 UNL     1      29.771  -1.116  53.798  1.00  0.00     0.159 HD
HETATM   18  H25 UNL     1      28.152  -1.907  53.703  1.00  0.00     0.159 HD
HETATM   19  O2  UNL     1      28.627   1.003  55.078  1.00  0.00    -0.266 OA
ENDBRANCH  11  15
ENDBRANCH   8   9
ENDBRANCH   6   8
BRANCH   1  20
HETATM   20  C2  UNL     1      21.977   1.157  50.536  1.00  0.00     0.041 C 
HETATM   21  C1  UNL     1      21.173   1.005  49.288  1.00  0.00     0.010 C 
ENDBRANCH   1  20
BRANCH   4  22
HETATM   22  N2  UNL     1      26.153   5.669  49.991  1.00  0.00    -0.220 N 
HETATM   23  H7  UNL     1      26.385   6.264  50.839  1.00  0.00     0.178 HD
BRANCH  22  24
HETATM   24  C5  UNL     1      26.784   5.885  48.676  1.00  0.00     0.102 C 
HETATM   25  C6  UNL     1      28.123   5.275  48.566  1.00  0.00     0.045 C 
HETATM   26  C7  UNL     1      29.176   6.126  47.927  1.00  0.00     0.127 C 
HETATM   27  N3  UNL     1      29.283   7.443  48.466  1.00  0.00    -0.352 N 
HETATM   28  C8  UNL     1      30.538   8.112  48.539  1.00  0.00     0.215 C 
HETATM   29  C10 UNL     1      28.058   8.034  48.920  1.00  0.00     0.127 C 
HETATM   30  C9  UNL     1      30.710   9.472  49.086  1.00  0.00     0.117 C 
HETATM   31  O1  UNL     1      31.442   7.358  48.069  1.00  0.00    -0.274 OA
HETATM   32  C11 UNL     1      26.836   7.359  48.366  1.00  0.00     0.045 C 
ENDBRANCH  22  24
ENDBRANCH   4  22
TORSDOF 6
ENDMDL
MODEL 3
REMARK VINA RESULT:      -8.4      1.949      2.553
REMARK  6 active torsions:
REMARK  status: ('A' for Active; 'I' for Inactive)
REMARK    1  A    between atoms: C2_2  and  P1_3 
REMARK    2  A    between atoms: C4_6  and  N2_7 
REMARK    3  A    between atoms: N2_7  and  C5_8 
REMARK       I    between atoms: N3_11  and  C8_12 
REMARK    4  A    between atoms: C12_18  and  C13_19 
REMARK    5  A    between atoms: C13_19  and  C14_20 
REMARK    6  A    between atoms: C16_22  and  C17_23 
REMARK       I    between atoms: C17_23  and  N5_24 
ROOT
HETATM    1  P1  UNL     1      22.189   1.491  52.512  1.00  0.00    -0.027 P 
HETATM    2  C3  UNL     1      21.748   2.984  52.058  1.00  0.00     0.148 A 
HETATM    3  N1  UNL     1      22.742   3.878  51.572  1.00  0.00    -0.076 NA
HETATM    4  C4  UNL     1      23.985   3.564  51.472  1.00  0.00     0.700 A 
HETATM    5  N4  UNL     1      24.550   2.302  51.822  1.00  0.00    -0.193 N 
HETATM    6  C12 UNL     1      23.797   1.211  52.338  1.00  0.00     0.041 A 
HETATM    7  H20 UNL     1      25.559   2.184  51.693  1.00  0.00     0.184 HD
ENDROOT
BRANCH   6   8
HETATM    8  C13 UNL     1      24.359  -0.103  52.707  1.00  0.00     0.117 C 
BRANCH   8   9
HETATM    9  C14 UNL     1      25.574  -0.052  53.525  1.00  0.00     0.038 A 
HETATM   10  C15 UNL     1      26.787   0.452  53.106  1.00  0.00     0.066 A 
HETATM   11  C16 UNL     1      27.690   0.324  54.158  1.00  0.00     0.146 A 
HETATM   12  N6  UNL     1      27.045  -0.240  55.185  1.00  0.00    -0.167 NA
HETATM   13  N7  UNL     1      25.799  -0.457  54.798  1.00  0.00    -0.277 N 
HETATM   14  C18 UNL     1      24.804  -1.063  55.659  1.00  0.00     0.179 C 
BRANCH  11  15
HETATM   15  C17 UNL     1      29.093   0.753  54.091  1.00  0.00     0.269 C 
HETATM   16  N5  UNL     1      29.428   2.059  54.564  1.00  0.00    -0.365 N 
HETATM   17  H24 UNL     1      30.385   2.314  54.908  1.00  0.00     0.159 HD
HETATM   18  H25 UNL     1      28.680   2.798  54.567  1.00  0.00     0.159 HD
HETATM   19  O2  UNL     1      29.940  -0.048  53.620  1.00  0.00    -0.266 OA
ENDBRANCH  11  15
ENDBRANCH   8   9
ENDBRANCH   6   8
BRANCH   1  20
HETATM   20  C2  UNL     1      21.057   0.224  53.154  1.00  0.00     0.041 C 
HETATM   21  C1  UNL     1      21.230   0.001  54.620  1.00  0.00     0.010 C 
ENDBRANCH   1  20
BRANCH   4  22
HETATM   22  N2  UNL     1      24.835   4.586  50.964  1.00  0.00    -0.220 N 
HETATM   23  H7  UNL     1      25.071   5.402  51.600  1.00  0.00     0.178 HD
BRANCH  22  24
HETATM   24  C5  UNL     1      25.354   4.478  49.589  1.00  0.00     0.102 C 
HETATM   25  C6  UNL     1      26.779   4.099  49.533  1.00  0.00     0.045 C 
HETATM   26  C7  UNL     1      27.620   4.869  48.563  1.00  0.00     0.127 C 
HETATM   27  N3  UNL     1      27.496   6.287  48.664  1.00  0.00    -0.352 N 
HETATM   28  C8  UNL     1      28.601   7.147  48.403  1.00  0.00     0.215 C 
HETATM   29  C10 UNL     1      26.202   6.776  49.040  1.00  0.00     0.127 C 
HETATM   30  C9  UNL     1      28.533   8.618  48.492  1.00  0.00     0.117 C 
HETATM   31  O1  UNL     1      29.612   6.446  48.094  1.00  0.00    -0.274 OA
HETATM   32  C11 UNL     1      25.108   5.765  48.844  1.00  0.00     0.045 C 
ENDBRANCH  22  24
ENDBRANCH   4  22
TORSDOF 6
ENDMDL
MODEL 4
REMARK VINA RESULT:      -7.9      2.032      2.356
REMARK  6 active torsions:
REMARK  status: ('A' for Active; 'I' for Inactive)
REMARK    1  A    between atoms: C2_2  and  P1_3 
REMARK    2  A    between atoms: C4_6  and  N2_7 
REMARK    3  A    between atoms: N2_7  and  C5_8 
REMARK       I    between atoms: N3_11  and  C8_12 
REMARK    4  A    between atoms: C12_18  and  C13_19 
REMARK    5  A    between atoms: C13_19  and  C14_20 
REMARK    6  A    between atoms: C16_22  and  C17_23 
REMARK       I    between atoms: C17_23  and  N5_24 
ROOT
HETATM    1  P1  UNL     1      23.207   1.896  52.347  1.00  0.00    -0.027 P 
HETATM    2  C3  UNL     1      22.422   2.453  51.042  1.00  0.00     0.148 A 
HETATM    3  N1  UNL     1      23.042   3.449  50.239  1.00  0.00    -0.076 NA
HETATM    4  C4  UNL     1      24.205   3.937  50.492  1.00  0.00     0.700 A 
HETATM    5  N4  UNL     1      25.036   3.567  51.591  1.00  0.00    -0.193 N 
HETATM    6  C12 UNL     1      24.677   2.594  52.565  1.00  0.00     0.041 A 
HETATM    7  H20 UNL     1      25.941   4.036  51.677  1.00  0.00     0.184 HD
ENDROOT
BRANCH   6   8
HETATM    8  C13 UNL     1      25.518   2.194  53.709  1.00  0.00     0.117 C 
BRANCH   8   9
HETATM    9  C14 UNL     1      26.486   1.130  53.429  1.00  0.00     0.038 A 
HETATM   10  C15 UNL     1      26.158  -0.168  53.098  1.00  0.00     0.066 A 
HETATM   11  C16 UNL     1      27.343  -0.874  52.910  1.00  0.00     0.146 A 
HETATM   12  N6  UNL     1      28.361  -0.031  53.118  1.00  0.00    -0.167 NA
HETATM   13  N7  UNL     1      27.840   1.147  53.423  1.00  0.00    -0.277 N 
HETATM   14  C18 UNL     1      28.652   2.310  53.717  1.00  0.00     0.179 C 
BRANCH  11  15
HETATM   15  C17 UNL     1      27.402  -2.295  52.545  1.00  0.00     0.269 C 
HETATM   16  N5  UNL     1      28.384  -3.120  53.174  1.00  0.00    -0.365 N 
HETATM   17  H24 UNL     1      28.276  -4.157  53.282  1.00  0.00     0.159 HD
HETATM   18  H25 UNL     1      29.256  -2.665  53.548  1.00  0.00     0.159 HD
HETATM   19  O2  UNL     1      26.583  -2.727  51.693  1.00  0.00    -0.266 OA
ENDBRANCH  11  15
ENDBRANCH   8   9
ENDBRANCH   6   8
BRANCH   1  20
HETATM   20  C2  UNL     1      22.567   0.630  53.482  1.00  0.00     0.041 C 
HETATM   21  C1  UNL     1      22.596  -0.736  52.880  1.00  0.00     0.010 C 
ENDBRANCH   1  20
BRANCH   4  22
HETATM   22  N2  UNL     1      24.666   4.924  49.578  1.00  0.00    -0.220 N 
HETATM   23  H7  UNL     1      24.187   4.996  48.633  1.00  0.00     0.178 HD
BRANCH  22  24
HETATM   24  C5  UNL     1      25.782   5.806  49.968  1.00  0.00     0.102 C 
HETATM   25  C6  UNL     1      25.335   7.103  50.511  1.00  0.00     0.045 C 
HETATM   26  C7  UNL     1      26.071   8.307  50.012  1.00  0.00     0.127 C 
HETATM   27  N3  UNL     1      26.185   8.387  48.592  1.00  0.00    -0.352 N 
HETATM   28  C8  UNL     1      26.181   9.642  47.919  1.00  0.00     0.215 C 
HETATM   29  C10 UNL     1      26.302   7.135  47.903  1.00  0.00     0.127 C 
HETATM   30  C9  UNL     1      26.295   9.787  46.455  1.00  0.00     0.117 C 
HETATM   31  O1  UNL     1      26.066  10.573  48.772  1.00  0.00    -0.274 OA
HETATM   32  C11 UNL     1      26.714   6.003  48.800  1.00  0.00     0.045 C 
ENDBRANCH  22  24
ENDBRANCH   4  22
TORSDOF 6
ENDMDL
MODEL 5
REMARK VINA RESULT:      -7.8      2.564      7.716
REMARK  6 active torsions:
REMARK  status: ('A' for Active; 'I' for Inactive)
REMARK    1  A    between atoms: C2_2  and  P1_3 
REMARK    2  A    between atoms: C4_6  and  N2_7 
REMARK    3  A    between atoms: N2_7  and  C5_8 
REMARK       I    between atoms: N3_11  and  C8_12 
REMARK    4  A    between atoms: C12_18  and  C13_19 
REMARK    5  A    between atoms: C13_19  and  C14_20 
REMARK    6  A    between atoms: C16_22  and  C17_23 
REMARK       I    between atoms: C17_23  and  N5_24 
ROOT
HETATM    1  P1  UNL     1      21.962   6.502  50.750  1.00  0.00    -0.027 P 
HETATM    2  C3  UNL     1      21.531   5.028  51.269  1.00  0.00     0.148 A 
HETATM    3  N1  UNL     1      22.522   4.179  51.833  1.00  0.00    -0.076 NA
HETATM    4  C4  UNL     1      23.757   4.520  51.955  1.00  0.00     0.700 A 
HETATM    5  N4  UNL     1      24.313   5.771  51.556  1.00  0.00    -0.193 N 
HETATM    6  C12 UNL     1      23.559   6.820  50.959  1.00  0.00     0.041 A 
HETATM    7  H20 UNL     1      25.314   5.913  51.709  1.00  0.00     0.184 HD
ENDROOT
BRANCH   6   8
HETATM    8  C13 UNL     1      24.111   8.122  50.538  1.00  0.00     0.117 C 
BRANCH   8   9
HETATM    9  C14 UNL     1      25.300   8.047  49.685  1.00  0.00     0.038 A 
HETATM   10  C15 UNL     1      26.576   8.394  50.076  1.00  0.00     0.066 A 
HETATM   11  C16 UNL     1      27.426   8.188  48.993  1.00  0.00     0.146 A 
HETATM   12  N6  UNL     1      26.690   7.729  47.975  1.00  0.00    -0.167 NA
HETATM   13  N7  UNL     1      25.439   7.651  48.397  1.00  0.00    -0.277 N 
HETATM   14  C18 UNL     1      24.354   7.191  47.553  1.00  0.00     0.179 C 
BRANCH  11  15
HETATM   15  C17 UNL     1      28.872   8.446  49.026  1.00  0.00     0.269 C 
HETATM   16  N5  UNL     1      29.371   9.405  49.960  1.00  0.00    -0.365 N 
HETATM   17  H24 UNL     1      30.354   9.390  50.324  1.00  0.00     0.159 HD
HETATM   18  H25 UNL     1      28.721  10.160  50.299  1.00  0.00     0.159 HD
HETATM   19  O2  UNL     1      29.610   7.812  48.228  1.00  0.00    -0.266 OA
ENDBRANCH  11  15
ENDBRANCH   8   9
ENDBRANCH   6   8
BRANCH   1  20
HETATM   20  C2  UNL     1      20.830   7.713  50.007  1.00  0.00     0.041 C 
HETATM   21  C1  UNL     1      20.421   7.330  48.623  1.00  0.00     0.010 C 
ENDBRANCH   1  20
BRANCH   4  22
HETATM   22  N2  UNL     1      24.606   3.542  52.542  1.00  0.00    -0.220 N 
HETATM   23  H7  UNL     1      24.904   3.677  53.552  1.00  0.00     0.178 HD
BRANCH  22  24
HETATM   24  C5  UNL     1      25.040   2.384  51.739  1.00  0.00     0.102 C 
HETATM   25  C6  UNL     1      24.809   1.091  52.410  1.00  0.00     0.045 C 
HETATM   26  C7  UNL     1      25.935   0.107  52.334  1.00  0.00     0.127 C 
HETATM   27  N3  UNL     1      27.208   0.631  52.709  1.00  0.00    -0.352 N 
HETATM   28  C8  UNL     1      28.181  -0.181  53.358  1.00  0.00     0.215 C 
HETATM   29  C10 UNL     1      27.435   2.011  52.389  1.00  0.00     0.127 C 
HETATM   30  C9  UNL     1      29.512   0.305  53.769  1.00  0.00     0.117 C 
HETATM   31  O1  UNL     1      27.713  -1.350  53.513  1.00  0.00    -0.274 OA
HETATM   32  C11 UNL     1      26.487   2.540  51.351  1.00  0.00     0.045 C 
ENDBRANCH  22  24
ENDBRANCH   4  22
TORSDOF 6
ENDMDL
MODEL 6
REMARK VINA RESULT:      -7.7      2.030      2.572
REMARK  6 active torsions:
REMARK  status: ('A' for Active; 'I' for Inactive)
REMARK    1  A    between atoms: C2_2  and  P1_3 
REMARK    2  A    between atoms: C4_6  and  N2_7 
REMARK    3  A    between atoms: N2_7  and  C5_8 
REMARK       I    between atoms: N3_11  and  C8_12 
REMARK    4  A    between atoms: C12_18  and  C13_19 
REMARK    5  A    between atoms: C13_19  and  C14_20 
REMARK    6  A    between atoms: C16_22  and  C17_23 
REMARK       I    between atoms: C17_23  and  N5_24 
ROOT
HETATM    1  P1  UNL     1      22.384   2.683  52.104  1.00  0.00    -0.027 P 
HETATM    2  C3  UNL     1      21.859   4.214  52.209  1.00  0.00     0.148 A 
HETATM    3  N1  UNL     1      22.765   5.273  51.926  1.00  0.00    -0.076 NA
HETATM    4  C4  UNL     1      23.991   5.081  51.588  1.00  0.00     0.700 A 
HETATM    5  N4  UNL     1      24.621   3.809  51.446  1.00  0.00    -0.193 N 
HETATM    6  C12 UNL     1      23.962   2.568  51.666  1.00  0.00     0.041 A 
HETATM    7  H20 UNL     1      25.607   3.799  51.172  1.00  0.00     0.184 HD
ENDROOT
BRANCH   6   8
HETATM    8  C13 UNL     1      24.591   1.241  51.526  1.00  0.00     0.117 C 
BRANCH   8   9
HETATM    9  C14 UNL     1      25.548   0.892  52.579  1.00  0.00     0.038 A 
HETATM   10  C15 UNL     1      26.868   1.289  52.610  1.00  0.00     0.066 A 
HETATM   11  C16 UNL     1      27.448   0.759  53.759  1.00  0.00     0.146 A 
HETATM   12  N6  UNL     1      26.509   0.062  54.409  1.00  0.00    -0.167 NA
HETATM   13  N7  UNL     1      25.394   0.149  53.701  1.00  0.00    -0.277 N 
HETATM   14  C18 UNL     1      24.158  -0.491  54.104  1.00  0.00     0.179 C 
BRANCH  11  15
HETATM   15  C17 UNL     1      28.851   0.966  54.140  1.00  0.00     0.269 C 
HETATM   16  N5  UNL     1      29.333   2.306  54.262  1.00  0.00    -0.365 N 
HETATM   17  H24 UNL     1      30.148   2.567  54.867  1.00  0.00     0.159 HD
HETATM   18  H25 UNL     1      28.845   3.065  53.722  1.00  0.00     0.159 HD
HETATM   19  O2  UNL     1      29.570  -0.046  54.341  1.00  0.00    -0.266 OA
ENDBRANCH  11  15
ENDBRANCH   8   9
ENDBRANCH   6   8
BRANCH   1  20
HETATM   20  C2  UNL     1      21.367   1.213  52.429  1.00  0.00     0.041 C 
HETATM   21  C1  UNL     1      20.865   0.584  51.172  1.00  0.00     0.010 C 
ENDBRANCH   1  20
BRANCH   4  22
HETATM   22  N2  UNL     1      24.750   6.260  51.343  1.00  0.00    -0.220 N 
HETATM   23  H7  UNL     1      25.202   6.746  52.172  1.00  0.00     0.178 HD
BRANCH  22  24
HETATM   24  C5  UNL     1      24.880   6.762  49.963  1.00  0.00     0.102 C 
HETATM   25  C6  UNL     1      25.885   6.027  49.170  1.00  0.00     0.045 C 
HETATM   26  C7  UNL     1      26.803   6.870  48.341  1.00  0.00     0.127 C 
HETATM   27  N3  UNL     1      27.428   7.940  49.048  1.00  0.00    -0.352 N 
HETATM   28  C8  UNL     1      28.744   8.373  48.721  1.00  0.00     0.215 C 
HETATM   29  C10 UNL     1      26.648   8.539  50.091  1.00  0.00     0.127 C 
HETATM   30  C9  UNL     1      29.441   9.473  49.416  1.00  0.00     0.117 C 
HETATM   31  O1  UNL     1      29.191   7.671  47.765  1.00  0.00    -0.274 OA
HETATM   32  C11 UNL     1      25.181   8.238  49.979  1.00  0.00     0.045 C 
ENDBRANCH  22  24
ENDBRANCH   4  22
TORSDOF 6
ENDMDL
MODEL 7
REMARK VINA RESULT:      -7.6      2.330      3.125
REMARK  6 active torsions:
REMARK  status: ('A' for Active; 'I' for Inactive)
REMARK    1  A    between atoms: C2_2  and  P1_3 
REMARK    2  A    between atoms: C4_6  and  N2_7 
REMARK    3  A    between atoms: N2_7  and  C5_8 
REMARK       I    between atoms: N3_11  and  C8_12 
REMARK    4  A    between atoms: C12_18  and  C13_19 
REMARK    5  A    between atoms: C13_19  and  C14_20 
REMARK    6  A    between atoms: C16_22  and  C17_23 
REMARK       I    between atoms: C17_23  and  N5_24 
ROOT
HETATM    1  P1  UNL     1      23.673   5.407  51.092  1.00  0.00    -0.027 P 
HETATM    2  C3  UNL     1      23.944   6.995  50.911  1.00  0.00     0.148 A 
HETATM    3  N1  UNL     1      25.165   7.423  50.322  1.00  0.00    -0.076 NA
HETATM    4  C4  UNL     1      26.077   6.610  49.919  1.00  0.00     0.700 A 
HETATM    5  N4  UNL     1      26.010   5.187  49.998  1.00  0.00    -0.193 N 
HETATM    6  C12 UNL     1      24.907   4.474  50.543  1.00  0.00     0.041 A 
HETATM    7  H20 UNL     1      26.809   4.657  49.641  1.00  0.00     0.184 HD
ENDROOT
BRANCH   6   8
HETATM    8  C13 UNL     1      24.814   3.004  50.635  1.00  0.00     0.117 C 
BRANCH   8   9
HETATM    9  C14 UNL     1      25.488   2.410  51.794  1.00  0.00     0.038 A 
HETATM   10  C15 UNL     1      26.851   2.403  51.996  1.00  0.00     0.066 A 
HETATM   11  C16 UNL     1      27.102   1.749  53.199  1.00  0.00     0.146 A 
HETATM   12  N6  UNL     1      25.926   1.371  53.713  1.00  0.00    -0.167 NA
HETATM   13  N7  UNL     1      24.983   1.768  52.874  1.00  0.00    -0.277 N 
HETATM   14  C18 UNL     1      23.574   1.526  53.107  1.00  0.00     0.179 C 
BRANCH  11  15
HETATM   15  C17 UNL     1      28.445   1.542  53.755  1.00  0.00     0.269 C 
HETATM   16  N5  UNL     1      29.058   0.261  53.596  1.00  0.00    -0.365 N 
HETATM   17  H24 UNL     1      30.097   0.120  53.603  1.00  0.00     0.159 HD
HETATM   18  H25 UNL     1      28.438  -0.578  53.465  1.00  0.00     0.159 HD
HETATM   19  O2  UNL     1      29.000   2.503  54.349  1.00  0.00    -0.266 OA
ENDBRANCH  11  15
ENDBRANCH   8   9
ENDBRANCH   6   8
BRANCH   1  20
HETATM   20  C2  UNL     1      22.174   4.686  51.823  1.00  0.00     0.041 C 
HETATM   21  C1  UNL     1      21.134   4.383  50.796  1.00  0.00     0.010 C 
ENDBRANCH   1  20
BRANCH   4  22
HETATM   22  N2  UNL     1      27.232   7.218  49.354  1.00  0.00    -0.220 N 
HETATM   23  H7  UNL     1      27.624   8.084  49.827  1.00  0.00     0.178 HD
BRANCH  22  24
HETATM   24  C5  UNL     1      27.839   6.633  48.145  1.00  0.00     0.102 C 
HETATM   25  C6  UNL     1      28.900   5.651  48.444  1.00  0.00     0.045 C 
HETATM   26  C7  UNL     1      30.143   5.764  47.618  1.00  0.00     0.127 C 
HETATM   27  N3  UNL     1      30.698   7.077  47.556  1.00  0.00    -0.352 N 
HETATM   28  C8  UNL     1      32.104   7.282  47.468  1.00  0.00     0.215 C 
HETATM   29  C10 UNL     1      29.755   8.156  47.586  1.00  0.00     0.127 C 
HETATM   30  C9  UNL     1      32.735   8.615  47.401  1.00  0.00     0.117 C 
HETATM   31  O1  UNL     1      32.691   6.158  47.459  1.00  0.00    -0.274 OA
HETATM   32  C11 UNL     1      28.355   7.728  47.247  1.00  0.00     0.045 C 
ENDBRANCH  22  24
ENDBRANCH   4  22
TORSDOF 6
ENDMDL
MODEL 8
REMARK VINA RESULT:      -7.5      3.476      7.931
REMARK  6 active torsions:
REMARK  status: ('A' for Active; 'I' for Inactive)
REMARK    1  A    between atoms: C2_2  and  P1_3 
REMARK    2  A    between atoms: C4_6  and  N2_7 
REMARK    3  A    between atoms: N2_7  and  C5_8 
REMARK       I    between atoms: N3_11  and  C8_12 
REMARK    4  A    between atoms: C12_18  and  C13_19 
REMARK    5  A    between atoms: C13_19  and  C14_20 
REMARK    6  A    between atoms: C16_22  and  C17_23 
REMARK       I    between atoms: C17_23  and  N5_24 
ROOT
HETATM    1  P1  UNL     1      24.719   3.057  50.739  1.00  0.00    -0.027 P 
HETATM    2  C3  UNL     1      23.542   3.389  49.675  1.00  0.00     0.148 A 
HETATM    3  N1  UNL     1      22.189   3.355  50.113  1.00  0.00    -0.076 NA
HETATM    4  C4  UNL     1      21.845   3.073  51.320  1.00  0.00     0.700 A 
HETATM    5  N4  UNL     1      22.741   2.757  52.383  1.00  0.00    -0.193 N 
HETATM    6  C12 UNL     1      24.156   2.712  52.242  1.00  0.00     0.041 A 
HETATM    7  H20 UNL     1      22.333   2.550  53.299  1.00  0.00     0.184 HD
ENDROOT
BRANCH   6   8
HETATM    8  C13 UNL     1      25.103   2.389  53.325  1.00  0.00     0.117 C 
BRANCH   8   9
HETATM    9  C14 UNL     1      25.593   1.007  53.332  1.00  0.00     0.038 A 
HETATM   10  C15 UNL     1      26.913   0.636  53.193  1.00  0.00     0.066 A 
HETATM   11  C16 UNL     1      26.976  -0.754  53.248  1.00  0.00     0.146 A 
HETATM   12  N6  UNL     1      25.731  -1.214  53.417  1.00  0.00    -0.167 NA
HETATM   13  N7  UNL     1      24.926  -0.165  53.464  1.00  0.00    -0.277 N 
HETATM   14  C18 UNL     1      23.493  -0.284  53.637  1.00  0.00     0.179 C 
BRANCH  11  15
HETATM   15  C17 UNL     1      28.222  -1.523  53.136  1.00  0.00     0.269 C 
HETATM   16  N5  UNL     1      28.135  -2.943  53.005  1.00  0.00    -0.365 N 
HETATM   17  H24 UNL     1      28.884  -3.522  52.554  1.00  0.00     0.159 HD
HETATM   18  H25 UNL     1      27.280  -3.430  53.377  1.00  0.00     0.159 HD
HETATM   19  O2  UNL     1      29.313  -0.898  53.160  1.00  0.00    -0.266 OA
ENDBRANCH  11  15
ENDBRANCH   8   9
ENDBRANCH   6   8
BRANCH   1  20
HETATM   20  C2  UNL     1      26.495   3.054  50.354  1.00  0.00     0.041 C 
HETATM   21  C1  UNL     1      26.843   4.033  49.283  1.00  0.00     0.010 C 
ENDBRANCH   1  20
BRANCH   4  22
HETATM   22  N2  UNL     1      20.446   3.088  51.576  1.00  0.00    -0.220 N 
HETATM   23  H7  UNL     1      20.084   3.718  52.350  1.00  0.00     0.178 HD
BRANCH  22  24
HETATM   24  C5  UNL     1      19.553   2.238  50.766  1.00  0.00     0.102 C 
HETATM   25  C6  UNL     1      18.139   2.322  51.179  1.00  0.00     0.045 C 
HETATM   26  C7  UNL     1      17.408   1.018  51.267  1.00  0.00     0.127 C 
HETATM   27  N3  UNL     1      18.078   0.012  52.026  1.00  0.00    -0.352 N 
HETATM   28  C8  UNL     1      17.352  -0.944  52.792  1.00  0.00     0.215 C 
HETATM   29  C10 UNL     1      19.510   0.031  51.961  1.00  0.00     0.127 C 
HETATM   30  C9  UNL     1      17.989  -2.005  53.594  1.00  0.00     0.117 C 
HETATM   31  O1  UNL     1      16.109  -0.724  52.664  1.00  0.00    -0.274 OA
HETATM   32  C11 UNL     1      20.039   0.812  50.792  1.00  0.00     0.045 C 
ENDBRANCH  22  24
ENDBRANCH   4  22
TORSDOF 6
ENDMDL
MODEL 9
REMARK VINA RESULT:      -7.4      2.609      7.693
REMARK  6 active torsions:
REMARK  status: ('A' for Active; 'I' for Inactive)
REMARK    1  A    between atoms: C2_2  and  P1_3 
REMARK    2  A    between atoms: C4_6  and  N2_7 
REMARK    3  A    between atoms: N2_7  and  C5_8 
REMARK       I    between atoms: N3_11  and  C8_12 
REMARK    4  A    between atoms: C12_18  and  C13_19 
REMARK    5  A    between atoms: C13_19  and  C14_20 
REMARK    6  A    between atoms: C16_22  and  C17_23 
REMARK       I    between atoms: C17_23  and  N5_24 
ROOT
HETATM    1  P1  UNL     1      21.898   4.529  50.680  1.00  0.00    -0.027 P 
HETATM    2  C3  UNL     1      21.469   3.604  51.942  1.00  0.00     0.148 A 
HETATM    3  N1  UNL     1      22.240   2.447  52.241  1.00  0.00    -0.076 NA
HETATM    4  C4  UNL     1      23.270   2.090  51.558  1.00  0.00     0.700 A 
HETATM    5  N4  UNL     1      23.790   2.779  50.422  1.00  0.00    -0.193 N 
HETATM    6  C12 UNL     1      23.224   3.971  49.890  1.00  0.00     0.041 A 
HETATM    7  H20 UNL     1      24.618   2.384  49.969  1.00  0.00     0.184 HD
ENDROOT
BRANCH   6   8
HETATM    8  C13 UNL     1      23.743   4.701  48.718  1.00  0.00     0.117 C 
BRANCH   8   9
HETATM    9  C14 UNL     1      24.875   5.591  48.991  1.00  0.00     0.038 A 
HETATM   10  C15 UNL     1      24.785   6.958  49.144  1.00  0.00     0.066 A 
HETATM   11  C16 UNL     1      26.066   7.447  49.388  1.00  0.00     0.146 A 
HETATM   12  N6  UNL     1      26.909   6.408  49.383  1.00  0.00    -0.167 NA
HETATM   13  N7  UNL     1      26.193   5.321  49.148  1.00  0.00    -0.277 N 
HETATM   14  C18 UNL     1      26.779   3.998  49.069  1.00  0.00     0.179 C 
BRANCH  11  15
HETATM   15  C17 UNL     1      26.375   8.866  49.605  1.00  0.00     0.269 C 
HETATM   16  N5  UNL     1      27.561   9.202  50.327  1.00  0.00    -0.365 N 
HETATM   17  H24 UNL     1      28.059  10.118  50.213  1.00  0.00     0.159 HD
HETATM   18  H25 UNL     1      27.954   8.497  51.001  1.00  0.00     0.159 HD
HETATM   19  O2  UNL     1      25.580   9.727  49.147  1.00  0.00    -0.266 OA
ENDBRANCH  11  15
ENDBRANCH   8   9
ENDBRANCH   6   8
BRANCH   1  20
HETATM   20  C2  UNL     1      21.031   6.037  50.157  1.00  0.00     0.041 C 
HETATM   21  C1  UNL     1      21.584   7.262  50.806  1.00  0.00     0.010 C 
ENDBRANCH   1  20
BRANCH   4  22
HETATM   22  N2  UNL     1      23.917   0.904  52.004  1.00  0.00    -0.220 N 
HETATM   23  H7  UNL     1      23.964   0.078  51.339  1.00  0.00     0.178 HD
BRANCH  22  24
HETATM   24  C5  UNL     1      24.495   0.862  53.360  1.00  0.00     0.102 C 
HETATM   25  C6  UNL     1      25.629   1.789  53.538  1.00  0.00     0.045 C 
HETATM   26  C7  UNL     1      26.817   1.234  54.259  1.00  0.00     0.127 C 
HETATM   27  N3  UNL     1      27.285  -0.017  53.757  1.00  0.00    -0.352 N 
HETATM   28  C8  UNL     1      28.669  -0.351  53.777  1.00  0.00     0.215 C 
HETATM   29  C10 UNL     1      26.279  -0.900  53.243  1.00  0.00     0.127 C 
HETATM   30  C9  UNL     1      29.212  -1.628  53.273  1.00  0.00     0.117 C 
HETATM   31  O1  UNL     1      29.324   0.609  54.285  1.00  0.00    -0.274 OA
HETATM   32  C11 UNL     1      24.894  -0.550  53.705  1.00  0.00     0.045 C 
ENDBRANCH  22  24
ENDBRANCH   4  22
TORSDOF 6
ENDMDL
