MODEL 1
REMARK VINA RESULT:      -7.2      0.000      0.000
REMARK  11 active torsions:
REMARK  status: ('A' for Active; 'I' for Inactive)
REMARK    1  A    between atoms: C2_2  and  C3_3 
REMARK    2  A    between atoms: C7_7  and  N1_8 
REMARK    3  A    between atoms: N1_8  and  C8_9 
REMARK    4  A    between atoms: C13_15  and  O1_16 
REMARK    5  A    between atoms: O1_16  and  C14_17 
REMARK    6  A    between atoms: C14_17  and  C15_18 
REMARK    7  A    between atoms: C15_18  and  O2_19 
REMARK    8  A    between atoms: C17_21  and  O3_22 
REMARK    9  A    between atoms: O3_22  and  C18_23 
REMARK   10  A    between atoms: C18_23  and  C19_24 
REMARK   11  A    between atoms: C19_24  and  O4_25 
ROOT
HETATM    1  C8  UNL     1      25.470   2.661  51.618  1.00  0.00     0.043 A 
HETATM    2  C9  UNL     1      26.033   3.523  50.708  1.00  0.00     0.049 A 
HETATM    3  C10 UNL     1      25.365   3.882  49.533  1.00  0.00     0.119 A 
HETATM    4  N2  UNL     1      24.139   3.374  49.281  1.00  0.00    -0.260 NA
HETATM    5  C11 UNL     1      23.542   2.521  50.146  1.00  0.00     0.071 A 
HETATM    6  C12 UNL     1      22.286   2.017  49.861  1.00  0.00     0.072 A 
HETATM    7  C13 UNL     1      21.659   1.148  50.727  1.00  0.00     0.104 A 
HETATM    8  C17 UNL     1      22.352   0.819  51.874  1.00  0.00     0.103 A 
HETATM    9  C21 UNL     1      23.606   1.313  52.174  1.00  0.00     0.055 A 
HETATM   10  C22 UNL     1      24.221   2.182  51.298  1.00  0.00     0.022 A 
ENDROOT
BRANCH   1  11
HETATM   11  N1  UNL     1      26.192   2.333  52.795  1.00  0.00    -0.378 N 
HETATM   12  H10 UNL     1      25.904   2.461  53.773  1.00  0.00     0.160 HD
BRANCH  11  13
HETATM   13  C7  UNL     1      27.505   1.739  52.608  1.00  0.00     0.134 A 
HETATM   14  C3  UNL     1      27.557   0.326  53.026  1.00  0.00    -0.054 A 
HETATM   15  C4  UNL     1      28.406   0.126  54.033  1.00  0.00     0.005 A 
HETATM   16  C5  UNL     1      29.004   1.433  54.371  1.00  0.00    -0.001 A 
HETATM   17  C6  UNL     1      28.495   2.354  53.564  1.00  0.00     0.003 A 
BRANCH  14  18
HETATM   18  C2  UNL     1      26.667  -0.584  52.257  1.00  0.00     0.032 C 
HETATM   19  C1  UNL     1      27.050  -2.027  52.604  1.00  0.00     0.010 C 
ENDBRANCH  14  18
ENDBRANCH  11  13
ENDBRANCH   1  11
BRANCH   8  20
HETATM   20  O3  UNL     1      21.733  -0.059  52.760  1.00  0.00    -0.346 OA
BRANCH  20  21
HETATM   21  C18 UNL     1      22.472  -1.016  53.507  1.00  0.00     0.201 C 
BRANCH  21  22
HETATM   22  C19 UNL     1      22.040  -1.098  54.930  1.00  0.00     0.193 C 
BRANCH  22  23
HETATM   23  O4  UNL     1      23.039  -1.688  55.685  1.00  0.00    -0.394 OA
HETATM   24  C20 UNL     1      24.308  -1.217  55.466  1.00  0.00     0.201 C 
ENDBRANCH  22  23
ENDBRANCH  21  22
ENDBRANCH  20  21
ENDBRANCH   8  20
BRANCH   7  25
HETATM   25  O1  UNL     1      20.396   0.635  50.450  1.00  0.00    -0.346 OA
BRANCH  25  26
HETATM   26  C14 UNL     1      19.330   1.593  50.402  1.00  0.00     0.201 C 
BRANCH  26  27
HETATM   27  C15 UNL     1      18.854   1.927  51.777  1.00  0.00     0.193 C 
BRANCH  27  28
HETATM   28  O2  UNL     1      19.086   3.257  52.039  1.00  0.00    -0.394 OA
HETATM   29  C16 UNL     1      18.682   4.129  51.055  1.00  0.00     0.201 C 
ENDBRANCH  27  28
ENDBRANCH  26  27
ENDBRANCH  25  26
ENDBRANCH   7  25
TORSDOF 11
ENDMDL
MODEL 2
REMARK VINA RESULT:      -6.8      2.987      5.205
REMARK  11 active torsions:
REMARK  status: ('A' for Active; 'I' for Inactive)
REMARK    1  A    between atoms: C2_2  and  C3_3 
REMARK    2  A    between atoms: C7_7  and  N1_8 
REMARK    3  A    between atoms: N1_8  and  C8_9 
REMARK    4  A    between atoms: C13_15  and  O1_16 
REMARK    5  A    between atoms: O1_16  and  C14_17 
REMARK    6  A    between atoms: C14_17  and  C15_18 
REMARK    7  A    between atoms: C15_18  and  O2_19 
REMARK    8  A    between atoms: C17_21  and  O3_22 
REMARK    9  A    between atoms: O3_22  and  C18_23 
REMARK   10  A    between atoms: C18_23  and  C19_24 
REMARK   11  A    between atoms: C19_24  and  O4_25 
ROOT
HETATM    1  C8  UNL     1      25.217   0.110  52.735  1.00  0.00     0.043 A 
HETATM    2  C9  UNL     1      24.477  -0.749  53.512  1.00  0.00     0.049 A 
HETATM    3  C10 UNL     1      23.148  -0.469  53.845  1.00  0.00     0.119 A 
HETATM    4  N2  UNL     1      22.573   0.668  53.397  1.00  0.00    -0.260 NA
HETATM    5  C11 UNL     1      23.260   1.546  52.630  1.00  0.00     0.071 A 
HETATM    6  C12 UNL     1      22.645   2.703  52.186  1.00  0.00     0.072 A 
HETATM    7  C13 UNL     1      23.325   3.610  51.403  1.00  0.00     0.104 A 
HETATM    8  C17 UNL     1      24.633   3.297  51.097  1.00  0.00     0.103 A 
HETATM    9  C21 UNL     1      25.263   2.147  51.532  1.00  0.00     0.055 A 
HETATM   10  C22 UNL     1      24.570   1.249  52.314  1.00  0.00     0.022 A 
ENDROOT
BRANCH   1  11
HETATM   11  N1  UNL     1      26.561  -0.225  52.426  1.00  0.00    -0.378 N 
HETATM   12  H10 UNL     1      27.062  -0.087  51.540  1.00  0.00     0.160 HD
BRANCH  11  13
HETATM   13  C7  UNL     1      27.339  -0.840  53.488  1.00  0.00     0.134 A 
HETATM   14  C3  UNL     1      28.480  -0.009  53.914  1.00  0.00    -0.054 A 
HETATM   15  C4  UNL     1      29.652  -0.606  53.696  1.00  0.00     0.005 A 
HETATM   16  C5  UNL     1      29.369  -1.923  53.089  1.00  0.00    -0.001 A 
HETATM   17  C6  UNL     1      28.055  -2.061  52.968  1.00  0.00     0.003 A 
BRANCH  14  18
HETATM   18  C2  UNL     1      28.109   1.308  54.494  1.00  0.00     0.032 C 
HETATM   19  C1  UNL     1      28.642   2.404  53.563  1.00  0.00     0.010 C 
ENDBRANCH  14  18
ENDBRANCH  11  13
ENDBRANCH   1  11
BRANCH   8  20
HETATM   20  O3  UNL     1      25.335   4.204  50.307  1.00  0.00    -0.346 OA
BRANCH  20  21
HETATM   21  C18 UNL     1      26.574   3.866  49.699  1.00  0.00     0.201 C 
BRANCH  21  22
HETATM   22  C19 UNL     1      27.107   4.952  48.830  1.00  0.00     0.193 C 
BRANCH  22  23
HETATM   23  O4  UNL     1      28.411   4.659  48.469  1.00  0.00    -0.394 OA
HETATM   24  C20 UNL     1      29.198   5.735  48.152  1.00  0.00     0.201 C 
ENDBRANCH  22  23
ENDBRANCH  21  22
ENDBRANCH  20  21
ENDBRANCH   8  20
BRANCH   7  25
HETATM   25  O1  UNL     1      22.716   4.776  50.951  1.00  0.00    -0.346 OA
BRANCH  25  26
HETATM   26  C14 UNL     1      21.384   4.627  50.439  1.00  0.00     0.201 C 
BRANCH  26  27
HETATM   27  C15 UNL     1      21.366   4.774  48.954  1.00  0.00     0.193 C 
BRANCH  27  28
HETATM   28  O2  UNL     1      20.611   3.769  48.395  1.00  0.00    -0.394 OA
HETATM   29  C16 UNL     1      21.079   2.494  48.612  1.00  0.00     0.201 C 
ENDBRANCH  27  28
ENDBRANCH  26  27
ENDBRANCH  25  26
ENDBRANCH   7  25
TORSDOF 11
ENDMDL
MODEL 3
REMARK VINA RESULT:      -6.7      2.978      7.884
REMARK  11 active torsions:
REMARK  status: ('A' for Active; 'I' for Inactive)
REMARK    1  A    between atoms: C2_2  and  C3_3 
REMARK    2  A    between atoms: C7_7  and  N1_8 
REMARK    3  A    between atoms: N1_8  and  C8_9 
REMARK    4  A    between atoms: C13_15  and  O1_16 
REMARK    5  A    between atoms: O1_16  and  C14_17 
REMARK    6  A    between atoms: C14_17  and  C15_18 
REMARK    7  A    between atoms: C15_18  and  O2_19 
REMARK    8  A    between atoms: C17_21  and  O3_22 
REMARK    9  A    between atoms: O3_22  and  C18_23 
REMARK   10  A    between atoms: C18_23  and  C19_24 
REMARK   11  A    between atoms: C19_24  and  O4_25 
ROOT
HETATM    1  C8  UNL     1      21.322   0.284  53.179  1.00  0.00     0.043 A 
HETATM    2  C9  UNL     1      21.006  -0.632  54.154  1.00  0.00     0.049 A 
HETATM    3  C10 UNL     1      22.000  -1.304  54.873  1.00  0.00     0.119 A 
HETATM    4  N2  UNL     1      23.301  -1.053  54.607  1.00  0.00    -0.260 NA
HETATM    5  C11 UNL     1      23.662  -0.160  53.656  1.00  0.00     0.071 A 
HETATM    6  C12 UNL     1      25.002   0.076  53.406  1.00  0.00     0.072 A 
HETATM    7  C13 UNL     1      25.393   0.980  52.443  1.00  0.00     0.104 A 
HETATM    8  C17 UNL     1      24.383   1.622  51.757  1.00  0.00     0.103 A 
HETATM    9  C21 UNL     1      23.041   1.398  51.994  1.00  0.00     0.055 A 
HETATM   10  C22 UNL     1      22.664   0.490  52.961  1.00  0.00     0.022 A 
ENDROOT
BRANCH   1  11
HETATM   11  N1  UNL     1      20.272   0.938  52.483  1.00  0.00    -0.378 N 
HETATM   12  H10 UNL     1      19.863   1.861  52.674  1.00  0.00     0.160 HD
BRANCH  11  13
HETATM   13  C7  UNL     1      19.696   0.225  51.356  1.00  0.00     0.134 A 
HETATM   14  C3  UNL     1      19.215   1.129  50.295  1.00  0.00    -0.054 A 
HETATM   15  C4  UNL     1      17.900   1.030  50.101  1.00  0.00     0.005 A 
HETATM   16  C5  UNL     1      17.390   0.019  51.050  1.00  0.00    -0.001 A 
HETATM   17  C6  UNL     1      18.407  -0.442  51.766  1.00  0.00     0.003 A 
BRANCH  14  18
HETATM   18  C2  UNL     1      20.271   1.959  49.658  1.00  0.00     0.032 C 
HETATM   19  C1  UNL     1      21.264   1.017  48.968  1.00  0.00     0.010 C 
ENDBRANCH  14  18
ENDBRANCH  11  13
ENDBRANCH   1  11
BRANCH   8  20
HETATM   20  O3  UNL     1      24.760   2.539  50.780  1.00  0.00    -0.346 OA
BRANCH  20  21
HETATM   21  C18 UNL     1      24.625   3.940  50.974  1.00  0.00     0.201 C 
BRANCH  21  22
HETATM   22  C19 UNL     1      25.457   4.738  50.030  1.00  0.00     0.193 C 
BRANCH  22  23
HETATM   23  O4  UNL     1      26.612   4.038  49.725  1.00  0.00    -0.394 OA
HETATM   24  C20 UNL     1      27.432   4.617  48.793  1.00  0.00     0.201 C 
ENDBRANCH  22  23
ENDBRANCH  21  22
ENDBRANCH  20  21
ENDBRANCH   8  20
BRANCH   7  25
HETATM   25  O1  UNL     1      26.738   1.226  52.183  1.00  0.00    -0.346 OA
BRANCH  25  26
HETATM   26  C14 UNL     1      27.665   0.299  52.766  1.00  0.00     0.201 C 
BRANCH  26  27
HETATM   27  C15 UNL     1      28.659   1.011  53.622  1.00  0.00     0.193 C 
BRANCH  27  28
HETATM   28  O2  UNL     1      29.354   0.101  54.384  1.00  0.00    -0.394 OA
HETATM   29  C16 UNL     1      29.915  -0.943  53.685  1.00  0.00     0.201 C 
ENDBRANCH  27  28
ENDBRANCH  26  27
ENDBRANCH  25  26
ENDBRANCH   7  25
TORSDOF 11
ENDMDL
MODEL 4
REMARK VINA RESULT:      -6.6      2.072      6.166
REMARK  11 active torsions:
REMARK  status: ('A' for Active; 'I' for Inactive)
REMARK    1  A    between atoms: C2_2  and  C3_3 
REMARK    2  A    between atoms: C7_7  and  N1_8 
REMARK    3  A    between atoms: N1_8  and  C8_9 
REMARK    4  A    between atoms: C13_15  and  O1_16 
REMARK    5  A    between atoms: O1_16  and  C14_17 
REMARK    6  A    between atoms: C14_17  and  C15_18 
REMARK    7  A    between atoms: C15_18  and  O2_19 
REMARK    8  A    between atoms: C17_21  and  O3_22 
REMARK    9  A    between atoms: O3_22  and  C18_23 
REMARK   10  A    between atoms: C18_23  and  C19_24 
REMARK   11  A    between atoms: C19_24  and  O4_25 
ROOT
HETATM    1  C8  UNL     1      24.137   3.875  50.260  1.00  0.00     0.043 A 
HETATM    2  C9  UNL     1      25.026   4.518  49.432  1.00  0.00     0.049 A 
HETATM    3  C10 UNL     1      26.377   4.157  49.390  1.00  0.00     0.119 A 
HETATM    4  N2  UNL     1      26.823   3.155  50.179  1.00  0.00    -0.260 NA
HETATM    5  C11 UNL     1      25.987   2.492  51.011  1.00  0.00     0.071 A 
HETATM    6  C12 UNL     1      26.474   1.470  51.807  1.00  0.00     0.072 A 
HETATM    7  C13 UNL     1      25.642   0.781  52.661  1.00  0.00     0.104 A 
HETATM    8  C17 UNL     1      24.317   1.168  52.672  1.00  0.00     0.103 A 
HETATM    9  C21 UNL     1      23.815   2.185  51.885  1.00  0.00     0.055 A 
HETATM   10  C22 UNL     1      24.660   2.866  51.035  1.00  0.00     0.022 A 
ENDROOT
BRANCH   1  11
HETATM   11  N1  UNL     1      22.777   4.282  50.260  1.00  0.00    -0.378 N 
HETATM   12  H10 UNL     1      22.294   4.881  50.939  1.00  0.00     0.160 HD
BRANCH  11  13
HETATM   13  C7  UNL     1      21.954   3.796  49.165  1.00  0.00     0.134 A 
HETATM   14  C3  UNL     1      20.791   3.017  49.629  1.00  0.00    -0.054 A 
HETATM   15  C4  UNL     1      20.826   1.753  49.207  1.00  0.00     0.005 A 
HETATM   16  C5  UNL     1      22.055   1.590  48.405  1.00  0.00    -0.001 A 
HETATM   17  C6  UNL     1      22.701   2.749  48.378  1.00  0.00     0.003 A 
BRANCH  14  18
HETATM   18  C2  UNL     1      19.822   3.779  50.460  1.00  0.00     0.032 C 
HETATM   19  C1  UNL     1      19.764   3.122  51.844  1.00  0.00     0.010 C 
ENDBRANCH  14  18
ENDBRANCH  11  13
ENDBRANCH   1  11
BRANCH   8  20
HETATM   20  O3  UNL     1      23.462   0.482  53.531  1.00  0.00    -0.346 OA
BRANCH  20  21
HETATM   21  C18 UNL     1      22.560  -0.509  53.056  1.00  0.00     0.201 C 
BRANCH  21  22
HETATM   22  C19 UNL     1      22.066  -1.406  54.138  1.00  0.00     0.193 C 
BRANCH  22  23
HETATM   23  O4  UNL     1      20.685  -1.491  54.075  1.00  0.00    -0.394 OA
HETATM   24  C20 UNL     1      20.042  -0.384  53.586  1.00  0.00     0.201 C 
ENDBRANCH  22  23
ENDBRANCH  21  22
ENDBRANCH  20  21
ENDBRANCH   8  20
BRANCH   7  25
HETATM   25  O1  UNL     1      26.120  -0.248  53.466  1.00  0.00    -0.346 OA
BRANCH  25  26
HETATM   26  C14 UNL     1      26.690   0.153  54.719  1.00  0.00     0.201 C 
BRANCH  26  27
HETATM   27  C15 UNL     1      28.177   0.024  54.693  1.00  0.00     0.193 C 
BRANCH  27  28
HETATM   28  O2  UNL     1      28.755   1.201  55.109  1.00  0.00    -0.394 OA
HETATM   29  C16 UNL     1      29.120   2.063  54.101  1.00  0.00     0.201 C 
ENDBRANCH  27  28
ENDBRANCH  26  27
ENDBRANCH  25  26
ENDBRANCH   7  25
TORSDOF 11
ENDMDL
MODEL 5
REMARK VINA RESULT:      -6.5      2.926      7.821
REMARK  11 active torsions:
REMARK  status: ('A' for Active; 'I' for Inactive)
REMARK    1  A    between atoms: C2_2  and  C3_3 
REMARK    2  A    between atoms: C7_7  and  N1_8 
REMARK    3  A    between atoms: N1_8  and  C8_9 
REMARK    4  A    between atoms: C13_15  and  O1_16 
REMARK    5  A    between atoms: O1_16  and  C14_17 
REMARK    6  A    between atoms: C14_17  and  C15_18 
REMARK    7  A    between atoms: C15_18  and  O2_19 
REMARK    8  A    between atoms: C17_21  and  O3_22 
REMARK    9  A    between atoms: O3_22  and  C18_23 
REMARK   10  A    between atoms: C18_23  and  C19_24 
REMARK   11  A    between atoms: C19_24  and  O4_25 
ROOT
HETATM    1  C8  UNL     1      21.519  -0.059  52.700  1.00  0.00     0.043 A 
HETATM    2  C9  UNL     1      20.980  -0.944  53.603  1.00  0.00     0.049 A 
HETATM    3  C10 UNL     1      21.758  -1.525  54.609  1.00  0.00     0.119 A 
HETATM    4  N2  UNL     1      23.070  -1.215  54.700  1.00  0.00    -0.260 NA
HETATM    5  C11 UNL     1      23.648  -0.349  53.835  1.00  0.00     0.071 A 
HETATM    6  C12 UNL     1      24.993  -0.051  53.953  1.00  0.00     0.072 A 
HETATM    7  C13 UNL     1      25.603   0.827  53.084  1.00  0.00     0.104 A 
HETATM    8  C17 UNL     1      24.800   1.379  52.107  1.00  0.00     0.103 A 
HETATM    9  C21 UNL     1      23.456   1.092  51.974  1.00  0.00     0.055 A 
HETATM   10  C22 UNL     1      22.860   0.212  52.851  1.00  0.00     0.022 A 
ENDROOT
BRANCH   1  11
HETATM   11  N1  UNL     1      20.682   0.503  51.701  1.00  0.00    -0.378 N 
HETATM   12  H10 UNL     1      20.784   0.444  50.681  1.00  0.00     0.160 HD
BRANCH  11  13
HETATM   13  C7  UNL     1      19.532   1.258  52.167  1.00  0.00     0.134 A 
HETATM   14  C3  UNL     1      18.416   1.252  51.202  1.00  0.00    -0.054 A 
HETATM   15  C4  UNL     1      18.126   2.472  50.753  1.00  0.00     0.005 A 
HETATM   16  C5  UNL     1      19.058   3.415  51.405  1.00  0.00    -0.001 A 
HETATM   17  C6  UNL     1      19.859   2.730  52.210  1.00  0.00     0.003 A 
BRANCH  14  18
HETATM   18  C2  UNL     1      17.842  -0.091  50.925  1.00  0.00     0.032 C 
HETATM   19  C1  UNL     1      17.411  -0.709  52.260  1.00  0.00     0.010 C 
ENDBRANCH  14  18
ENDBRANCH  11  13
ENDBRANCH   1  11
BRANCH   8  20
HETATM   20  O3  UNL     1      25.400   2.268  51.219  1.00  0.00    -0.346 OA
BRANCH  20  21
HETATM   21  C18 UNL     1      24.638   3.041  50.302  1.00  0.00     0.201 C 
BRANCH  21  22
HETATM   22  C19 UNL     1      24.738   4.505  50.556  1.00  0.00     0.193 C 
BRANCH  22  23
HETATM   23  O4  UNL     1      24.049   4.823  51.713  1.00  0.00    -0.394 OA
HETATM   24  C20 UNL     1      22.705   5.045  51.565  1.00  0.00     0.201 C 
ENDBRANCH  22  23
ENDBRANCH  21  22
ENDBRANCH  20  21
ENDBRANCH   8  20
BRANCH   7  25
HETATM   25  O1  UNL     1      26.955   1.135  53.194  1.00  0.00    -0.346 OA
BRANCH  25  26
HETATM   26  C14 UNL     1      27.640   0.548  54.310  1.00  0.00     0.201 C 
BRANCH  26  27
HETATM   27  C15 UNL     1      29.067   0.983  54.346  1.00  0.00     0.193 C 
BRANCH  27  28
HETATM   28  O2  UNL     1      29.802   0.247  53.445  1.00  0.00    -0.394 OA
HETATM   29  C16 UNL     1      29.771  -1.115  53.636  1.00  0.00     0.201 C 
ENDBRANCH  27  28
ENDBRANCH  26  27
ENDBRANCH  25  26
ENDBRANCH   7  25
TORSDOF 11
ENDMDL
MODEL 6
REMARK VINA RESULT:      -6.5      3.511      6.235
REMARK  11 active torsions:
REMARK  status: ('A' for Active; 'I' for Inactive)
REMARK    1  A    between atoms: C2_2  and  C3_3 
REMARK    2  A    between atoms: C7_7  and  N1_8 
REMARK    3  A    between atoms: N1_8  and  C8_9 
REMARK    4  A    between atoms: C13_15  and  O1_16 
REMARK    5  A    between atoms: O1_16  and  C14_17 
REMARK    6  A    between atoms: C14_17  and  C15_18 
REMARK    7  A    between atoms: C15_18  and  O2_19 
REMARK    8  A    between atoms: C17_21  and  O3_22 
REMARK    9  A    between atoms: O3_22  and  C18_23 
REMARK   10  A    between atoms: C18_23  and  C19_24 
REMARK   11  A    between atoms: C19_24  and  O4_25 
ROOT
HETATM    1  C8  UNL     1      22.465   1.461  50.912  1.00  0.00     0.043 A 
HETATM    2  C9  UNL     1      21.272   1.741  50.290  1.00  0.00     0.049 A 
HETATM    3  C10 UNL     1      21.138   2.833  49.427  1.00  0.00     0.119 A 
HETATM    4  N2  UNL     1      22.201   3.635  49.196  1.00  0.00    -0.260 NA
HETATM    5  C11 UNL     1      23.396   3.401  49.784  1.00  0.00     0.071 A 
HETATM    6  C12 UNL     1      24.467   4.239  49.529  1.00  0.00     0.072 A 
HETATM    7  C13 UNL     1      25.693   4.021  50.116  1.00  0.00     0.104 A 
HETATM    8  C17 UNL     1      25.783   2.933  50.961  1.00  0.00     0.103 A 
HETATM    9  C21 UNL     1      24.726   2.087  51.227  1.00  0.00     0.055 A 
HETATM   10  C22 UNL     1      23.505   2.318  50.632  1.00  0.00     0.022 A 
ENDROOT
BRANCH   1  11
HETATM   11  N1  UNL     1      22.545   0.338  51.776  1.00  0.00    -0.378 N 
HETATM   12  H10 UNL     1      22.598  -0.656  51.522  1.00  0.00     0.160 HD
BRANCH  11  13
HETATM   13  C7  UNL     1      22.554   0.615  53.202  1.00  0.00     0.134 A 
HETATM   14  C3  UNL     1      23.286  -0.404  53.977  1.00  0.00    -0.054 A 
HETATM   15  C4  UNL     1      22.501  -1.047  54.840  1.00  0.00     0.005 A 
HETATM   16  C5  UNL     1      21.142  -0.486  54.701  1.00  0.00    -0.001 A 
HETATM   17  C6  UNL     1      21.166   0.459  53.771  1.00  0.00     0.003 A 
BRANCH  14  18
HETATM   18  C2  UNL     1      24.733  -0.514  53.650  1.00  0.00     0.032 C 
HETATM   19  C1  UNL     1      25.513  -0.589  54.967  1.00  0.00     0.010 C 
ENDBRANCH  14  18
ENDBRANCH  11  13
ENDBRANCH   1  11
BRANCH   8  20
HETATM   20  O3  UNL     1      27.016   2.698  51.564  1.00  0.00    -0.346 OA
BRANCH  20  21
HETATM   21  C18 UNL     1      27.119   2.176  52.882  1.00  0.00     0.201 C 
BRANCH  21  22
HETATM   22  C19 UNL     1      28.468   1.618  53.180  1.00  0.00     0.193 C 
BRANCH  22  23
HETATM   23  O4  UNL     1      28.409   0.235  53.177  1.00  0.00    -0.394 OA
HETATM   24  C20 UNL     1      29.343  -0.403  53.950  1.00  0.00     0.201 C 
ENDBRANCH  22  23
ENDBRANCH  21  22
ENDBRANCH  20  21
ENDBRANCH   8  20
BRANCH   7  25
HETATM   25  O1  UNL     1      26.776   4.857  49.866  1.00  0.00    -0.346 OA
BRANCH  25  26
HETATM   26  C14 UNL     1      27.517   4.579  48.670  1.00  0.00     0.201 C 
BRANCH  26  27
HETATM   27  C15 UNL     1      28.485   5.677  48.376  1.00  0.00     0.193 C 
BRANCH  27  28
HETATM   28  O2  UNL     1      29.745   5.154  48.207  1.00  0.00    -0.394 OA
HETATM   29  C16 UNL     1      30.780   6.008  48.508  1.00  0.00     0.201 C 
ENDBRANCH  27  28
ENDBRANCH  26  27
ENDBRANCH  25  26
ENDBRANCH   7  25
TORSDOF 11
ENDMDL
MODEL 7
REMARK VINA RESULT:      -6.4      1.554      1.820
REMARK  11 active torsions:
REMARK  status: ('A' for Active; 'I' for Inactive)
REMARK    1  A    between atoms: C2_2  and  C3_3 
REMARK    2  A    between atoms: C7_7  and  N1_8 
REMARK    3  A    between atoms: N1_8  and  C8_9 
REMARK    4  A    between atoms: C13_15  and  O1_16 
REMARK    5  A    between atoms: O1_16  and  C14_17 
REMARK    6  A    between atoms: C14_17  and  C15_18 
REMARK    7  A    between atoms: C15_18  and  O2_19 
REMARK    8  A    between atoms: C17_21  and  O3_22 
REMARK    9  A    between atoms: O3_22  and  C18_23 
REMARK   10  A    between atoms: C18_23  and  C19_24 
REMARK   11  A    between atoms: C19_24  and  O4_25 
ROOT
HETATM    1  C8  UNL     1      25.776   2.766  51.616  1.00  0.00     0.043 A 
HETATM    2  C9  UNL     1      26.595   3.241  50.620  1.00  0.00     0.049 A 
HETATM    3  C10 UNL     1      26.083   3.630  49.378  1.00  0.00     0.119 A 
HETATM    4  N2  UNL     1      24.755   3.538  49.146  1.00  0.00    -0.260 NA
HETATM    5  C11 UNL     1      23.908   3.076  50.095  1.00  0.00     0.071 A 
HETATM    6  C12 UNL     1      22.553   2.993  49.828  1.00  0.00     0.072 A 
HETATM    7  C13 UNL     1      21.672   2.526  50.779  1.00  0.00     0.104 A 
HETATM    8  C17 UNL     1      22.217   2.153  51.990  1.00  0.00     0.103 A 
HETATM    9  C21 UNL     1      23.567   2.229  52.273  1.00  0.00     0.055 A 
HETATM   10  C22 UNL     1      24.436   2.699  51.312  1.00  0.00     0.022 A 
ENDROOT
BRANCH   1  11
HETATM   11  N1  UNL     1      26.350   2.388  52.858  1.00  0.00    -0.378 N 
HETATM   12  H10 UNL     1      26.048   2.652  53.803  1.00  0.00     0.160 HD
BRANCH  11  13
HETATM   13  C7  UNL     1      27.512   1.517  52.799  1.00  0.00     0.134 A 
HETATM   14  C3  UNL     1      27.322   0.260  53.546  1.00  0.00    -0.054 A 
HETATM   15  C4  UNL     1      28.180   0.136  54.558  1.00  0.00     0.005 A 
HETATM   16  C5  UNL     1      29.035   1.341  54.561  1.00  0.00    -0.001 A 
HETATM   17  C6  UNL     1      28.660   2.130  53.563  1.00  0.00     0.003 A 
BRANCH  14  18
HETATM   18  C2  UNL     1      26.229  -0.608  53.034  1.00  0.00     0.032 C 
HETATM   19  C1  UNL     1      25.140  -0.686  54.111  1.00  0.00     0.010 C 
ENDBRANCH  14  18
ENDBRANCH  11  13
ENDBRANCH   1  11
BRANCH   8  20
HETATM   20  O3  UNL     1      21.341   1.678  52.962  1.00  0.00    -0.346 OA
BRANCH  20  21
HETATM   21  C18 UNL     1      21.331   0.314  53.361  1.00  0.00     0.201 C 
BRANCH  21  22
HETATM   22  C19 UNL     1      21.070   0.139  54.817  1.00  0.00     0.193 C 
BRANCH  22  23
HETATM   23  O4  UNL     1      21.519  -1.107  55.222  1.00  0.00    -0.394 OA
HETATM   24  C20 UNL     1      21.630  -2.050  54.235  1.00  0.00     0.201 C 
ENDBRANCH  22  23
ENDBRANCH  21  22
ENDBRANCH  20  21
ENDBRANCH   8  20
BRANCH   7  25
HETATM   25  O1  UNL     1      20.307   2.438  50.521  1.00  0.00    -0.346 OA
BRANCH  25  26
HETATM   26  C14 UNL     1      19.947   1.901  49.241  1.00  0.00     0.201 C 
BRANCH  26  27
HETATM   27  C15 UNL     1      18.934   2.766  48.568  1.00  0.00     0.193 C 
BRANCH  27  28
HETATM   28  O2  UNL     1      19.561   3.812  47.933  1.00  0.00    -0.394 OA
HETATM   29  C16 UNL     1      20.294   3.468  46.820  1.00  0.00     0.201 C 
ENDBRANCH  27  28
ENDBRANCH  26  27
ENDBRANCH  25  26
ENDBRANCH   7  25
TORSDOF 11
ENDMDL
MODEL 8
REMARK VINA RESULT:      -6.4      2.425      4.636
REMARK  11 active torsions:
REMARK  status: ('A' for Active; 'I' for Inactive)
REMARK    1  A    between atoms: C2_2  and  C3_3 
REMARK    2  A    between atoms: C7_7  and  N1_8 
REMARK    3  A    between atoms: N1_8  and  C8_9 
REMARK    4  A    between atoms: C13_15  and  O1_16 
REMARK    5  A    between atoms: O1_16  and  C14_17 
REMARK    6  A    between atoms: C14_17  and  C15_18 
REMARK    7  A    between atoms: C15_18  and  O2_19 
REMARK    8  A    between atoms: C17_21  and  O3_22 
REMARK    9  A    between atoms: O3_22  and  C18_23 
REMARK   10  A    between atoms: C18_23  and  C19_24 
REMARK   11  A    between atoms: C19_24  and  O4_25 
ROOT
HETATM    1  C8  UNL     1      23.525  -0.163  53.504  1.00  0.00     0.043 A 
HETATM    2  C9  UNL     1      23.050  -0.973  54.508  1.00  0.00     0.049 A 
HETATM    3  C10 UNL     1      21.731  -0.875  54.963  1.00  0.00     0.119 A 
HETATM    4  N2  UNL     1      20.901   0.035  54.408  1.00  0.00    -0.260 NA
HETATM    5  C11 UNL     1      21.321   0.856  53.417  1.00  0.00     0.071 A 
HETATM    6  C12 UNL     1      20.448   1.778  52.868  1.00  0.00     0.072 A 
HETATM    7  C13 UNL     1      20.854   2.623  51.859  1.00  0.00     0.104 A 
HETATM    8  C17 UNL     1      22.162   2.494  51.440  1.00  0.00     0.103 A 
HETATM    9  C21 UNL     1      23.047   1.579  51.976  1.00  0.00     0.055 A 
HETATM   10  C22 UNL     1      22.626   0.740  52.985  1.00  0.00     0.022 A 
ENDROOT
BRANCH   1  11
HETATM   11  N1  UNL     1      24.872  -0.308  53.081  1.00  0.00    -0.378 N 
HETATM   12  H10 UNL     1      25.270  -1.031  52.469  1.00  0.00     0.160 HD
BRANCH  11  13
HETATM   13  C7  UNL     1      25.816   0.684  53.565  1.00  0.00     0.134 A 
HETATM   14  C3  UNL     1      27.011   0.801  52.709  1.00  0.00    -0.054 A 
HETATM   15  C4  UNL     1      28.131   0.475  53.353  1.00  0.00     0.005 A 
HETATM   16  C5  UNL     1      27.754   0.104  54.733  1.00  0.00    -0.001 A 
HETATM   17  C6  UNL     1      26.439   0.222  54.859  1.00  0.00     0.003 A 
BRANCH  14  18
HETATM   18  C2  UNL     1      26.739   1.252  51.319  1.00  0.00     0.032 C 
HETATM   19  C1  UNL     1      26.468   2.760  51.353  1.00  0.00     0.010 C 
ENDBRANCH  14  18
ENDBRANCH  11  13
ENDBRANCH   1  11
BRANCH   8  20
HETATM   20  O3  UNL     1      22.589   3.341  50.420  1.00  0.00    -0.346 OA
BRANCH  20  21
HETATM   21  C18 UNL     1      23.354   2.866  49.321  1.00  0.00     0.201 C 
BRANCH  21  22
HETATM   22  C19 UNL     1      22.508   2.428  48.175  1.00  0.00     0.193 C 
BRANCH  22  23
HETATM   23  O4  UNL     1      21.531   3.378  47.930  1.00  0.00    -0.394 OA
HETATM   24  C20 UNL     1      20.293   2.890  47.603  1.00  0.00     0.201 C 
ENDBRANCH  22  23
ENDBRANCH  21  22
ENDBRANCH  20  21
ENDBRANCH   8  20
BRANCH   7  25
HETATM   25  O1  UNL     1      19.984   3.554  51.300  1.00  0.00    -0.346 OA
BRANCH  25  26
HETATM   26  C14 UNL     1      18.725   3.038  50.847  1.00  0.00     0.201 C 
BRANCH  26  27
HETATM   27  C15 UNL     1      17.643   4.052  51.018  1.00  0.00     0.193 C 
BRANCH  27  28
HETATM   28  O2  UNL     1      17.082   3.928  52.268  1.00  0.00    -0.394 OA
HETATM   29  C16 UNL     1      15.728   4.166  52.330  1.00  0.00     0.201 C 
ENDBRANCH  27  28
ENDBRANCH  26  27
ENDBRANCH  25  26
ENDBRANCH   7  25
TORSDOF 11
ENDMDL
MODEL 9
REMARK VINA RESULT:      -6.4      2.277      4.363
REMARK  11 active torsions:
REMARK  status: ('A' for Active; 'I' for Inactive)
REMARK    1  A    between atoms: C2_2  and  C3_3 
REMARK    2  A    between atoms: C7_7  and  N1_8 
REMARK    3  A    between atoms: N1_8  and  C8_9 
REMARK    4  A    between atoms: C13_15  and  O1_16 
REMARK    5  A    between atoms: O1_16  and  C14_17 
REMARK    6  A    between atoms: C14_17  and  C15_18 
REMARK    7  A    between atoms: C15_18  and  O2_19 
REMARK    8  A    between atoms: C17_21  and  O3_22 
REMARK    9  A    between atoms: O3_22  and  C18_23 
REMARK   10  A    between atoms: C18_23  and  C19_24 
REMARK   11  A    between atoms: C19_24  and  O4_25 
ROOT
HETATM    1  C8  UNL     1      24.565  -0.509  54.034  1.00  0.00     0.043 A 
HETATM    2  C9  UNL     1      24.549  -1.222  55.209  1.00  0.00     0.049 A 
HETATM    3  C10 UNL     1      23.347  -1.607  55.812  1.00  0.00     0.119 A 
HETATM    4  N2  UNL     1      22.174  -1.273  55.232  1.00  0.00    -0.260 NA
HETATM    5  C11 UNL     1      22.137  -0.572  54.075  1.00  0.00     0.071 A 
HETATM    6  C12 UNL     1      20.920  -0.245  53.505  1.00  0.00     0.072 A 
HETATM    7  C13 UNL     1      20.858   0.468  52.328  1.00  0.00     0.104 A 
HETATM    8  C17 UNL     1      22.065   0.829  51.766  1.00  0.00     0.103 A 
HETATM    9  C21 UNL     1      23.289   0.511  52.321  1.00  0.00     0.055 A 
HETATM   10  C22 UNL     1      23.335  -0.204  53.499  1.00  0.00     0.022 A 
ENDROOT
BRANCH   1  11
HETATM   11  N1  UNL     1      25.814  -0.147  53.465  1.00  0.00    -0.378 N 
HETATM   12  H10 UNL     1      26.267  -0.535  52.629  1.00  0.00     0.160 HD
BRANCH  11  13
HETATM   13  C7  UNL     1      26.555   0.906  54.140  1.00  0.00     0.134 A 
HETATM   14  C3  UNL     1      27.146   1.878  53.202  1.00  0.00    -0.054 A 
HETATM   15  C4  UNL     1      28.477   1.897  53.262  1.00  0.00     0.005 A 
HETATM   16  C5  UNL     1      28.886   0.905  54.278  1.00  0.00    -0.001 A 
HETATM   17  C6  UNL     1      27.797   0.338  54.780  1.00  0.00     0.003 A 
BRANCH  14  18
HETATM   18  C2  UNL     1      26.160   2.636  52.388  1.00  0.00     0.032 C 
HETATM   19  C1  UNL     1      26.534   2.467  50.911  1.00  0.00     0.010 C 
ENDBRANCH  14  18
ENDBRANCH  11  13
ENDBRANCH   1  11
BRANCH   8  20
HETATM   20  O3  UNL     1      22.022   1.551  50.576  1.00  0.00    -0.346 OA
BRANCH  20  21
HETATM   21  C18 UNL     1      22.512   2.882  50.488  1.00  0.00     0.201 C 
BRANCH  21  22
HETATM   22  C19 UNL     1      21.514   3.895  50.932  1.00  0.00     0.193 C 
BRANCH  22  23
HETATM   23  O4  UNL     1      21.800   4.289  52.228  1.00  0.00    -0.394 OA
HETATM   24  C20 UNL     1      23.066   4.766  52.441  1.00  0.00     0.201 C 
ENDBRANCH  22  23
ENDBRANCH  21  22
ENDBRANCH  20  21
ENDBRANCH   8  20
BRANCH   7  25
HETATM   25  O1  UNL     1      19.640   0.802  51.746  1.00  0.00    -0.346 OA
BRANCH  25  26
HETATM   26  C14 UNL     1      18.604  -0.184  51.856  1.00  0.00     0.201 C 
BRANCH  26  27
HETATM   27  C15 UNL     1      17.255   0.448  51.754  1.00  0.00     0.193 C 
BRANCH  27  28
HETATM   28  O2  UNL     1      16.635   0.038  50.596  1.00  0.00    -0.394 OA
HETATM   29  C16 UNL     1      16.796   0.874  49.516  1.00  0.00     0.201 C 
ENDBRANCH  27  28
ENDBRANCH  26  27
ENDBRANCH  25  26
ENDBRANCH   7  25
TORSDOF 11
ENDMDL
