MODEL 1
REMARK VINA RESULT:      -9.4      0.000      0.000
REMARK  2 active torsions:
REMARK  status: ('A' for Active; 'I' for Inactive)
REMARK    1  A    between atoms: C10_13  and  N2_14 
REMARK    2  A    between atoms: N2_14  and  C11_15 
ROOT
HETATM    1  F1  UNL     1      25.455   7.148  48.159  1.00  0.00    -0.213 F 
HETATM    2  C1  UNL     1      24.984   6.167  48.947  1.00  0.00     0.099 C 
HETATM    3  C2  UNL     1      23.791   6.789  49.049  1.00  0.00     0.083 C 
HETATM    4  C3  UNL     1      22.488   6.584  49.697  1.00  0.00     0.002 C 
HETATM    5  C4  UNL     1      21.524   6.008  50.433  1.00  0.00     0.082 C 
HETATM    6  N1  UNL     1      21.517   4.784  51.177  1.00  0.00    -0.390 N 
HETATM    7  C5  UNL     1      22.280   4.810  52.407  1.00  0.00     0.124 C 
HETATM    8  C6  UNL     1      23.620   4.055  52.175  1.00  0.00     0.051 C 
HETATM    9  C7  UNL     1      23.352   3.173  51.009  1.00  0.00     0.127 C 
HETATM   10  C8  UNL     1      22.099   2.383  51.294  1.00  0.00     0.051 C 
HETATM   11  C9  UNL     1      20.955   3.418  51.065  1.00  0.00     0.124 C 
HETATM   12  O1  UNL     1      24.375   2.563  50.375  1.00  0.00    -0.361 OA
HETATM   13  C10 UNL     1      25.628   2.858  50.805  1.00  0.00     0.229 C 
HETATM   14  C19 UNL     1      26.285   3.896  49.858  1.00  0.00     0.138 C 
HETATM   15  C20 UNL     1      25.979   5.065  49.236  1.00  0.00     0.079 C 
HETATM   16 CL1  UNL     1      27.551   5.196  48.484  1.00  0.00    -0.117 Cl
ENDROOT
BRANCH  13  17
HETATM   17  N2  UNL     1      26.581   1.803  50.860  1.00  0.00    -0.347 N 
HETATM   18  H14 UNL     1      26.861   1.249  50.031  1.00  0.00     0.163 HD
BRANCH  17  19
HETATM   19  C11 UNL     1      27.092   1.608  52.169  1.00  0.00     0.139 A 
HETATM   20  N3  UNL     1      28.235   2.119  52.647  1.00  0.00    -0.224 NA
HETATM   21  C12 UNL     1      28.679   1.908  53.890  1.00  0.00     0.235 A 
HETATM   22  N4  UNL     1      27.980   1.149  54.747  1.00  0.00    -0.241 NA
HETATM   23  C13 UNL     1      26.822   0.607  54.323  1.00  0.00     0.072 A 
HETATM   24  C14 UNL     1      26.139  -0.161  55.232  1.00  0.00     0.032 A 
HETATM   25  C18 UNL     1      26.372   0.830  53.043  1.00  0.00     0.038 A 
HETATM   26  C15 UNL     1      24.953  -0.759  54.908  1.00  0.00     0.002 A 
HETATM   27  C16 UNL     1      24.459  -0.565  53.635  1.00  0.00     0.001 A 
HETATM   28  C17 UNL     1      25.178   0.213  52.756  1.00  0.00     0.017 A 
ENDBRANCH  17  19
ENDBRANCH  13  17
TORSDOF 2
ENDMDL
MODEL 2
REMARK VINA RESULT:      -8.7      3.674      5.079
REMARK  2 active torsions:
REMARK  status: ('A' for Active; 'I' for Inactive)
REMARK    1  A    between atoms: C10_13  and  N2_14 
REMARK    2  A    between atoms: N2_14  and  C11_15 
ROOT
HETATM    1  F1  UNL     1      19.044  -0.531  52.911  1.00  0.00    -0.213 F 
HETATM    2  C1  UNL     1      20.182   0.150  52.702  1.00  0.00     0.099 C 
HETATM    3  C2  UNL     1      19.523   1.076  51.975  1.00  0.00     0.083 C 
HETATM    4  C3  UNL     1      19.809   2.315  51.239  1.00  0.00     0.002 C 
HETATM    5  C4  UNL     1      20.504   3.343  50.723  1.00  0.00     0.082 C 
HETATM    6  N1  UNL     1      21.897   3.665  50.802  1.00  0.00    -0.390 N 
HETATM    7  C5  UNL     1      22.767   2.827  50.003  1.00  0.00     0.124 C 
HETATM    8  C6  UNL     1      23.481   1.816  50.945  1.00  0.00     0.051 C 
HETATM    9  C7  UNL     1      23.413   2.447  52.289  1.00  0.00     0.127 C 
HETATM   10  C8  UNL     1      23.945   3.854  52.175  1.00  0.00     0.051 C 
HETATM   11  C9  UNL     1      22.777   4.633  51.497  1.00  0.00     0.124 C 
HETATM   12  O1  UNL     1      23.710   1.726  53.389  1.00  0.00    -0.361 OA
HETATM   13  C10 UNL     1      23.990   0.411  53.205  1.00  0.00     0.229 C 
HETATM   14  C19 UNL     1      22.748  -0.451  53.557  1.00  0.00     0.138 C 
HETATM   15  C20 UNL     1      21.409  -0.471  53.332  1.00  0.00     0.079 C 
HETATM   16 CL1  UNL     1      21.171  -1.933  54.260  1.00  0.00    -0.117 Cl
ENDROOT
BRANCH  13  17
HETATM   17  N2  UNL     1      25.030  -0.166  53.984  1.00  0.00    -0.347 N 
HETATM   18  H14 UNL     1      24.920  -1.050  54.512  1.00  0.00     0.163 HD
BRANCH  17  19
HETATM   19  C11 UNL     1      26.219   0.607  53.949  1.00  0.00     0.139 A 
HETATM   20  N3  UNL     1      26.297   1.933  54.133  1.00  0.00    -0.224 NA
HETATM   21  C12 UNL     1      27.442   2.621  54.091  1.00  0.00     0.235 A 
HETATM   22  N4  UNL     1      28.607   2.001  53.856  1.00  0.00    -0.241 NA
HETATM   23  C13 UNL     1      28.593   0.667  53.663  1.00  0.00     0.072 A 
HETATM   24  C14 UNL     1      29.806   0.071  53.425  1.00  0.00     0.032 A 
HETATM   25  C18 UNL     1      27.410  -0.034  53.708  1.00  0.00     0.038 A 
HETATM   26  C15 UNL     1      29.907  -1.276  53.216  1.00  0.00     0.002 A 
HETATM   27  C16 UNL     1      28.749  -2.023  53.252  1.00  0.00     0.001 A 
HETATM   28  C17 UNL     1      27.554  -1.384  53.493  1.00  0.00     0.017 A 
ENDBRANCH  17  19
ENDBRANCH  13  17
TORSDOF 2
ENDMDL
MODEL 3
REMARK VINA RESULT:      -8.6      3.248      7.179
REMARK  2 active torsions:
REMARK  status: ('A' for Active; 'I' for Inactive)
REMARK    1  A    between atoms: C10_13  and  N2_14 
REMARK    2  A    between atoms: N2_14  and  C11_15 
ROOT
HETATM    1  F1  UNL     1      21.021  -1.035  54.325  1.00  0.00    -0.213 F 
HETATM    2  C1  UNL     1      22.006  -0.314  53.765  1.00  0.00     0.099 C 
HETATM    3  C2  UNL     1      22.927  -0.926  54.538  1.00  0.00     0.083 C 
HETATM    4  C3  UNL     1      24.380  -0.901  54.758  1.00  0.00     0.002 C 
HETATM    5  C4  UNL     1      25.669  -0.552  54.621  1.00  0.00     0.082 C 
HETATM    6  N1  UNL     1      26.294   0.404  53.757  1.00  0.00    -0.390 N 
HETATM    7  C5  UNL     1      26.077   1.790  54.116  1.00  0.00     0.124 C 
HETATM    8  C6  UNL     1      25.015   2.391  53.153  1.00  0.00     0.051 C 
HETATM    9  C7  UNL     1      25.055   1.509  51.958  1.00  0.00     0.127 C 
HETATM   10  C8  UNL     1      26.488   1.400  51.501  1.00  0.00     0.051 C 
HETATM   11  C9  UNL     1      27.127   0.419  52.531  1.00  0.00     0.124 C 
HETATM   12  O1  UNL     1      24.080   1.587  51.029  1.00  0.00    -0.361 OA
HETATM   13  C10 UNL     1      23.053   2.437  51.284  1.00  0.00     0.229 C 
HETATM   14  C19 UNL     1      21.828   1.647  51.815  1.00  0.00     0.138 C 
HETATM   15  C20 UNL     1      21.541   0.670  52.714  1.00  0.00     0.079 C 
HETATM   16 CL1  UNL     1      19.831   0.696  52.352  1.00  0.00    -0.117 Cl
ENDROOT
BRANCH  13  17
HETATM   17  N2  UNL     1      22.523   3.189  50.200  1.00  0.00    -0.347 N 
HETATM   18  H14 UNL     1      22.038   2.756  49.393  1.00  0.00     0.163 HD
BRANCH  17  19
HETATM   19  C11 UNL     1      22.739   4.583  50.356  1.00  0.00     0.139 A 
HETATM   20  N3  UNL     1      21.860   5.459  50.862  1.00  0.00    -0.224 NA
HETATM   21  C12 UNL     1      22.107   6.766  50.991  1.00  0.00     0.235 A 
HETATM   22  N4  UNL     1      23.283   7.282  50.606  1.00  0.00    -0.241 NA
HETATM   23  C13 UNL     1      24.208   6.450  50.088  1.00  0.00     0.072 A 
HETATM   24  C14 UNL     1      25.397   7.019  49.709  1.00  0.00     0.032 A 
HETATM   25  C18 UNL     1      23.946   5.106  49.960  1.00  0.00     0.038 A 
HETATM   26  C15 UNL     1      26.405   6.268  49.171  1.00  0.00     0.002 A 
HETATM   27  C16 UNL     1      26.191   4.914  49.023  1.00  0.00     0.001 A 
HETATM   28  C17 UNL     1      24.983   4.385  49.417  1.00  0.00     0.017 A 
ENDBRANCH  17  19
ENDBRANCH  13  17
TORSDOF 2
ENDMDL
MODEL 4
REMARK VINA RESULT:      -8.5      3.109      6.575
REMARK  2 active torsions:
REMARK  status: ('A' for Active; 'I' for Inactive)
REMARK    1  A    between atoms: C10_13  and  N2_14 
REMARK    2  A    between atoms: N2_14  and  C11_15 
ROOT
HETATM    1  F1  UNL     1      25.512  -1.086  53.725  1.00  0.00    -0.213 F 
HETATM    2  C1  UNL     1      24.960  -0.047  53.078  1.00  0.00     0.099 C 
HETATM    3  C2  UNL     1      23.723  -0.448  53.438  1.00  0.00     0.083 C 
HETATM    4  C3  UNL     1      22.328  -0.023  53.264  1.00  0.00     0.002 C 
HETATM    5  C4  UNL     1      21.273   0.706  52.865  1.00  0.00     0.082 C 
HETATM    6  N1  UNL     1      21.204   1.903  52.082  1.00  0.00    -0.390 N 
HETATM    7  C5  UNL     1      21.471   1.729  50.669  1.00  0.00     0.124 C 
HETATM    8  C6  UNL     1      22.910   2.237  50.371  1.00  0.00     0.051 C 
HETATM    9  C7  UNL     1      23.215   3.166  51.491  1.00  0.00     0.127 C 
HETATM   10  C8  UNL     1      22.087   4.161  51.597  1.00  0.00     0.051 C 
HETATM   11  C9  UNL     1      20.945   3.348  52.280  1.00  0.00     0.124 C 
HETATM   12  O1  UNL     1      24.480   3.592  51.688  1.00  0.00    -0.361 OA
HETATM   13  C10 UNL     1      25.437   3.075  50.876  1.00  0.00     0.229 C 
HETATM   14  C19 UNL     1      26.207   1.947  51.613  1.00  0.00     0.138 C 
HETATM   15  C20 UNL     1      25.954   0.859  52.385  1.00  0.00     0.079 C 
HETATM   16 CL1  UNL     1      27.647   0.461  52.558  1.00  0.00    -0.117 Cl
ENDROOT
BRANCH  13  17
HETATM   17  N2  UNL     1      26.467   3.943  50.421  1.00  0.00    -0.347 N 
HETATM   18  H14 UNL     1      27.472   3.781  50.612  1.00  0.00     0.163 HD
BRANCH  17  19
HETATM   19  C11 UNL     1      25.956   5.043  49.683  1.00  0.00     0.139 A 
HETATM   20  N3  UNL     1      24.689   5.478  49.704  1.00  0.00    -0.224 NA
HETATM   21  C12 UNL     1      24.252   6.521  48.991  1.00  0.00     0.235 A 
HETATM   22  N4  UNL     1      25.085   7.203  48.193  1.00  0.00    -0.241 NA
HETATM   23  C13 UNL     1      26.373   6.812  48.130  1.00  0.00     0.072 A 
HETATM   24  C14 UNL     1      27.192   7.538  47.302  1.00  0.00     0.032 A 
HETATM   25  C18 UNL     1      26.815   5.739  48.867  1.00  0.00     0.038 A 
HETATM   26  C15 UNL     1      28.516   7.227  47.162  1.00  0.00     0.002 A 
HETATM   27  C16 UNL     1      29.008   6.159  47.882  1.00  0.00     0.001 A 
HETATM   28  C17 UNL     1      28.151   5.459  48.700  1.00  0.00     0.017 A 
ENDBRANCH  17  19
ENDBRANCH  13  17
TORSDOF 2
ENDMDL
MODEL 5
REMARK VINA RESULT:      -8.4      3.225      6.743
REMARK  2 active torsions:
REMARK  status: ('A' for Active; 'I' for Inactive)
REMARK    1  A    between atoms: C10_13  and  N2_14 
REMARK    2  A    between atoms: N2_14  and  C11_15 
ROOT
HETATM    1  F1  UNL     1      27.556   0.185  55.230  1.00  0.00    -0.213 F 
HETATM    2  C1  UNL     1      26.375   0.407  54.631  1.00  0.00     0.099 C 
HETATM    3  C2  UNL     1      25.787  -0.547  55.384  1.00  0.00     0.083 C 
HETATM    4  C3  UNL     1      24.461  -1.155  55.561  1.00  0.00     0.002 C 
HETATM    5  C4  UNL     1      23.152  -1.398  55.385  1.00  0.00     0.082 C 
HETATM    6  N1  UNL     1      22.200  -0.802  54.497  1.00  0.00    -0.390 N 
HETATM    7  C5  UNL     1      22.339  -1.179  53.105  1.00  0.00     0.124 C 
HETATM    8  C6  UNL     1      23.010  -0.005  52.339  1.00  0.00     0.051 C 
HETATM    9  C7  UNL     1      22.745   1.190  53.183  1.00  0.00     0.127 C 
HETATM   10  C8  UNL     1      21.265   1.244  53.470  1.00  0.00     0.051 C 
HETATM   11  C9  UNL     1      21.063   0.146  54.558  1.00  0.00     0.124 C 
HETATM   12  O1  UNL     1      23.405   2.342  52.947  1.00  0.00    -0.361 OA
HETATM   13  C10 UNL     1      24.351   2.322  51.974  1.00  0.00     0.229 C 
HETATM   14  C19 UNL     1      25.762   2.198  52.607  1.00  0.00     0.138 C 
HETATM   15  C20 UNL     1      26.405   1.478  53.563  1.00  0.00     0.079 C 
HETATM   16 CL1  UNL     1      27.929   2.290  53.296  1.00  0.00    -0.117 Cl
ENDROOT
BRANCH  13  17
HETATM   17  N2  UNL     1      24.462   3.458  51.126  1.00  0.00    -0.347 N 
HETATM   18  H14 UNL     1      25.364   3.793  50.742  1.00  0.00     0.163 HD
BRANCH  17  19
HETATM   19  C11 UNL     1      23.205   4.066  50.875  1.00  0.00     0.139 A 
HETATM   20  N3  UNL     1      22.742   5.178  51.462  1.00  0.00    -0.224 NA
HETATM   21  C12 UNL     1      21.548   5.716  51.193  1.00  0.00     0.235 A 
HETATM   22  N4  UNL     1      20.728   5.152  50.296  1.00  0.00    -0.241 NA
HETATM   23  C13 UNL     1      21.138   4.029  49.672  1.00  0.00     0.072 A 
HETATM   24  C14 UNL     1      20.269   3.484  48.762  1.00  0.00     0.032 A 
HETATM   25  C18 UNL     1      22.368   3.482  49.954  1.00  0.00     0.038 A 
HETATM   26  C15 UNL     1      20.584   2.347  48.072  1.00  0.00     0.002 A 
HETATM   27  C16 UNL     1      21.807   1.760  48.319  1.00  0.00     0.001 A 
HETATM   28  C17 UNL     1      22.647   2.341  49.241  1.00  0.00     0.017 A 
ENDBRANCH  17  19
ENDBRANCH  13  17
TORSDOF 2
ENDMDL
MODEL 6
REMARK VINA RESULT:      -8.4      1.723      2.469
REMARK  2 active torsions:
REMARK  status: ('A' for Active; 'I' for Inactive)
REMARK    1  A    between atoms: C10_13  and  N2_14 
REMARK    2  A    between atoms: N2_14  and  C11_15 
ROOT
HETATM    1  F1  UNL     1      27.414   7.522  47.335  1.00  0.00    -0.213 F 
HETATM    2  C1  UNL     1      26.552   6.764  48.030  1.00  0.00     0.099 C 
HETATM    3  C2  UNL     1      25.553   7.641  47.796  1.00  0.00     0.083 C 
HETATM    4  C3  UNL     1      24.126   7.803  48.106  1.00  0.00     0.002 C 
HETATM    5  C4  UNL     1      22.908   7.540  48.605  1.00  0.00     0.082 C 
HETATM    6  N1  UNL     1      22.433   6.438  49.387  1.00  0.00    -0.390 N 
HETATM    7  C5  UNL     1      22.873   6.430  50.767  1.00  0.00     0.124 C 
HETATM    8  C6  UNL     1      24.007   5.376  50.919  1.00  0.00     0.051 C 
HETATM    9  C7  UNL     1      23.811   4.452  49.771  1.00  0.00     0.127 C 
HETATM   10  C8  UNL     1      22.374   3.996  49.774  1.00  0.00     0.051 C 
HETATM   11  C9  UNL     1      21.599   5.226  49.211  1.00  0.00     0.124 C 
HETATM   12  O1  UNL     1      24.775   3.565  49.448  1.00  0.00    -0.361 OA
HETATM   13  C10 UNL     1      25.928   3.620  50.163  1.00  0.00     0.229 C 
HETATM   14  C19 UNL     1      27.017   4.376  49.357  1.00  0.00     0.138 C 
HETATM   15  C20 UNL     1      27.155   5.507  48.618  1.00  0.00     0.079 C 
HETATM   16 CL1  UNL     1      28.842   5.203  48.278  1.00  0.00    -0.117 Cl
ENDROOT
BRANCH  13  17
HETATM   17  N2  UNL     1      26.558   2.394  50.511  1.00  0.00    -0.347 N 
HETATM   18  H14 UNL     1      27.410   2.041  50.040  1.00  0.00     0.163 HD
BRANCH  17  19
HETATM   19  C11 UNL     1      25.885   1.724  51.565  1.00  0.00     0.139 A 
HETATM   20  N3  UNL     1      24.568   1.481  51.624  1.00  0.00    -0.224 NA
HETATM   21  C12 UNL     1      23.977   0.845  52.641  1.00  0.00     0.235 A 
HETATM   22  N4  UNL     1      24.694   0.405  53.684  1.00  0.00    -0.241 NA
HETATM   23  C13 UNL     1      26.024   0.621  53.682  1.00  0.00     0.072 A 
HETATM   24  C14 UNL     1      26.720   0.155  54.769  1.00  0.00     0.032 A 
HETATM   25  C18 UNL     1      26.625   1.276  52.633  1.00  0.00     0.038 A 
HETATM   26  C15 UNL     1      28.073   0.319  54.870  1.00  0.00     0.002 A 
HETATM   27  C16 UNL     1      28.723   0.970  53.842  1.00  0.00     0.001 A 
HETATM   28  C17 UNL     1      27.985   1.421  52.771  1.00  0.00     0.017 A 
ENDBRANCH  17  19
ENDBRANCH  13  17
TORSDOF 2
ENDMDL
MODEL 7
REMARK VINA RESULT:      -8.1      1.801      2.397
REMARK  2 active torsions:
REMARK  status: ('A' for Active; 'I' for Inactive)
REMARK    1  A    between atoms: C10_13  and  N2_14 
REMARK    2  A    between atoms: N2_14  and  C11_15 
ROOT
HETATM    1  F1  UNL     1      27.401   8.575  47.709  1.00  0.00    -0.213 F 
HETATM    2  C1  UNL     1      26.525   7.718  48.258  1.00  0.00     0.099 C 
HETATM    3  C2  UNL     1      25.552   8.654  48.223  1.00  0.00     0.083 C 
HETATM    4  C3  UNL     1      24.136   8.791  48.589  1.00  0.00     0.002 C 
HETATM    5  C4  UNL     1      22.917   8.470  49.052  1.00  0.00     0.082 C 
HETATM    6  N1  UNL     1      22.418   7.248  49.609  1.00  0.00    -0.390 N 
HETATM    7  C5  UNL     1      22.878   6.953  50.950  1.00  0.00     0.124 C 
HETATM    8  C6  UNL     1      23.979   5.858  50.866  1.00  0.00     0.051 C 
HETATM    9  C7  UNL     1      23.737   5.186  49.562  1.00  0.00     0.127 C 
HETATM   10  C8  UNL     1      22.285   4.781  49.504  1.00  0.00     0.051 C 
HETATM   11  C9  UNL     1      21.543   6.120  49.213  1.00  0.00     0.124 C 
HETATM   12  O1  UNL     1      24.666   4.354  49.050  1.00  0.00    -0.361 OA
HETATM   13  C10 UNL     1      25.831   4.233  49.737  1.00  0.00     0.229 C 
HETATM   14  C19 UNL     1      26.932   5.102  49.075  1.00  0.00     0.138 C 
HETATM   15  C20 UNL     1      27.096   6.353  48.572  1.00  0.00     0.079 C 
HETATM   16 CL1  UNL     1      28.767   6.074  48.144  1.00  0.00    -0.117 Cl
ENDROOT
BRANCH  13  17
HETATM   17  N2  UNL     1      26.426   2.944  49.821  1.00  0.00    -0.347 N 
HETATM   18  H14 UNL     1      26.779   2.428  48.996  1.00  0.00     0.163 HD
BRANCH  17  19
HETATM   19  C11 UNL     1      26.474   2.461  51.154  1.00  0.00     0.139 A 
HETATM   20  N3  UNL     1      27.549   2.480  51.955  1.00  0.00    -0.224 NA
HETATM   21  C12 UNL     1      27.548   2.012  53.208  1.00  0.00     0.235 A 
HETATM   22  N4  UNL     1      26.438   1.483  53.741  1.00  0.00    -0.241 NA
HETATM   23  C13 UNL     1      25.325   1.435  52.983  1.00  0.00     0.072 A 
HETATM   24  C14 UNL     1      24.211   0.886  53.568  1.00  0.00     0.032 A 
HETATM   25  C18 UNL     1      25.333   1.919  51.696  1.00  0.00     0.038 A 
HETATM   26  C15 UNL     1      23.029   0.788  52.890  1.00  0.00     0.002 A 
HETATM   27  C16 UNL     1      22.986   1.260  51.595  1.00  0.00     0.001 A 
HETATM   28  C17 UNL     1      24.127   1.803  51.048  1.00  0.00     0.017 A 
ENDBRANCH  17  19
ENDBRANCH  13  17
TORSDOF 2
ENDMDL
MODEL 8
REMARK VINA RESULT:      -8.1      3.050      6.875
REMARK  2 active torsions:
REMARK  status: ('A' for Active; 'I' for Inactive)
REMARK    1  A    between atoms: C10_13  and  N2_14 
REMARK    2  A    between atoms: N2_14  and  C11_15 
ROOT
HETATM    1  F1  UNL     1      26.413  -0.504  54.325  1.00  0.00    -0.213 F 
HETATM    2  C1  UNL     1      25.491   0.217  53.667  1.00  0.00     0.099 C 
HETATM    3  C2  UNL     1      24.510  -0.608  54.090  1.00  0.00     0.083 C 
HETATM    4  C3  UNL     1      23.054  -0.754  53.959  1.00  0.00     0.002 C 
HETATM    5  C4  UNL     1      21.791  -0.499  53.578  1.00  0.00     0.082 C 
HETATM    6  N1  UNL     1      21.251   0.545  52.761  1.00  0.00    -0.390 N 
HETATM    7  C5  UNL     1      21.529   0.422  51.345  1.00  0.00     0.124 C 
HETATM    8  C6  UNL     1      22.657   1.425  50.973  1.00  0.00     0.051 C 
HETATM    9  C7  UNL     1      22.613   2.450  52.049  1.00  0.00     0.127 C 
HETATM   10  C8  UNL     1      21.193   2.945  52.169  1.00  0.00     0.051 C 
HETATM   11  C9  UNL     1      20.466   1.791  52.923  1.00  0.00     0.124 C 
HETATM   12  O1  UNL     1      23.624   3.333  52.181  1.00  0.00    -0.361 OA
HETATM   13  C10 UNL     1      24.685   3.183  51.349  1.00  0.00     0.229 C 
HETATM   14  C19 UNL     1      25.846   2.467  52.090  1.00  0.00     0.138 C 
HETATM   15  C20 UNL     1      26.046   1.401  52.906  1.00  0.00     0.079 C 
HETATM   16 CL1  UNL     1      27.767   1.684  53.025  1.00  0.00    -0.117 Cl
ENDROOT
BRANCH  13  17
HETATM   17  N2  UNL     1      25.295   4.356  50.825  1.00  0.00    -0.347 N 
HETATM   18  H14 UNL     1      26.164   4.765  51.212  1.00  0.00     0.163 HD
BRANCH  17  19
HETATM   19  C11 UNL     1      24.575   4.890  49.725  1.00  0.00     0.139 A 
HETATM   20  N3  UNL     1      23.433   4.399  49.224  1.00  0.00    -0.224 NA
HETATM   21  C12 UNL     1      22.788   4.936  48.183  1.00  0.00     0.235 A 
HETATM   22  N4  UNL     1      23.268   6.026  47.569  1.00  0.00    -0.241 NA
HETATM   23  C13 UNL     1      24.415   6.566  48.027  1.00  0.00     0.072 A 
HETATM   24  C14 UNL     1      24.871   7.681  47.369  1.00  0.00     0.032 A 
HETATM   25  C18 UNL     1      25.072   6.008  49.098  1.00  0.00     0.038 A 
HETATM   26  C15 UNL     1      26.024   8.308  47.750  1.00  0.00     0.002 A 
HETATM   27  C16 UNL     1      26.719   7.786  48.821  1.00  0.00     0.001 A 
HETATM   28  C17 UNL     1      26.225   6.667  49.451  1.00  0.00     0.017 A 
ENDBRANCH  17  19
ENDBRANCH  13  17
TORSDOF 2
ENDMDL
MODEL 9
REMARK VINA RESULT:      -8.1      2.133      2.694
REMARK  2 active torsions:
REMARK  status: ('A' for Active; 'I' for Inactive)
REMARK    1  A    between atoms: C10_13  and  N2_14 
REMARK    2  A    between atoms: N2_14  and  C11_15 
ROOT
HETATM    1  F1  UNL     1      24.655   4.666  48.713  1.00  0.00    -0.213 F 
HETATM    2  C1  UNL     1      23.959   3.874  49.544  1.00  0.00     0.099 C 
HETATM    3  C2  UNL     1      22.800   4.449  49.162  1.00  0.00     0.083 C 
HETATM    4  C3  UNL     1      21.363   4.342  49.451  1.00  0.00     0.002 C 
HETATM    5  C4  UNL     1      20.218   3.909  50.003  1.00  0.00     0.082 C 
HETATM    6  N1  UNL     1      19.974   2.890  50.980  1.00  0.00    -0.390 N 
HETATM    7  C5  UNL     1      20.362   3.232  52.333  1.00  0.00     0.124 C 
HETATM    8  C6  UNL     1      21.695   2.504  52.665  1.00  0.00     0.051 C 
HETATM    9  C7  UNL     1      21.745   1.366  51.710  1.00  0.00     0.127 C 
HETATM   10  C8  UNL     1      20.444   0.609  51.811  1.00  0.00     0.051 C 
HETATM   11  C9  UNL     1      19.435   1.512  51.038  1.00  0.00     0.124 C 
HETATM   12  O1  UNL     1      22.890   0.673  51.546  1.00  0.00    -0.361 OA
HETATM   13  C10 UNL     1      23.979   1.113  52.227  1.00  0.00     0.229 C 
HETATM   14  C19 UNL     1      24.899   1.933  51.284  1.00  0.00     0.138 C 
HETATM   15  C20 UNL     1      24.807   2.912  50.347  1.00  0.00     0.079 C 
HETATM   16 CL1  UNL     1      26.529   2.935  50.053  1.00  0.00    -0.117 Cl
ENDROOT
BRANCH  13  17
HETATM   17  N2  UNL     1      24.853   0.142  52.789  1.00  0.00    -0.347 N 
HETATM   18  H14 UNL     1      24.621  -0.866  52.844  1.00  0.00     0.163 HD
BRANCH  17  19
HETATM   19  C11 UNL     1      26.063   0.716  53.257  1.00  0.00     0.139 A 
HETATM   20  N3  UNL     1      26.224   1.984  53.659  1.00  0.00    -0.224 NA
HETATM   21  C12 UNL     1      27.387   2.482  54.093  1.00  0.00     0.235 A 
HETATM   22  N4  UNL     1      28.483   1.714  54.149  1.00  0.00    -0.241 NA
HETATM   23  C13 UNL     1      28.384   0.428  53.757  1.00  0.00     0.072 A 
HETATM   24  C14 UNL     1      29.530  -0.323  53.831  1.00  0.00     0.032 A 
HETATM   25  C18 UNL     1      27.185  -0.077  53.312  1.00  0.00     0.038 A 
HETATM   26  C15 UNL     1      29.542  -1.638  53.458  1.00  0.00     0.002 A 
HETATM   27  C16 UNL     1      28.363  -2.191  53.005  1.00  0.00     0.001 A 
HETATM   28  C17 UNL     1      27.238  -1.401  52.947  1.00  0.00     0.017 A 
ENDBRANCH  17  19
ENDBRANCH  13  17
TORSDOF 2
ENDMDL
