MODEL 1
REMARK VINA RESULT:      -7.5      0.000      0.000
REMARK  5 active torsions:
REMARK  status: ('A' for Active; 'I' for Inactive)
REMARK    1  A    between atoms: C13_15  and  O1_16 
REMARK    2  A    between atoms: O1_16  and  C14_17 
REMARK    3  A    between atoms: C14_17  and  C15_18 
REMARK    4  A    between atoms: C15_18  and  O2_19 
REMARK    5  A    between atoms: O2_19  and  C16_20 
ROOT
HETATM    1  C1  UNL     1      29.020  -1.720  53.214  1.00  0.00     0.017 C 
HETATM    2  C2  UNL     1      27.964  -1.062  53.081  1.00  0.00    -0.082 C 
HETATM    3  C3  UNL     1      26.697  -0.286  52.898  1.00  0.00    -0.003 C 
HETATM    4  C4  UNL     1      25.670  -0.850  53.591  1.00  0.00    -0.004 C 
HETATM    5  C5  UNL     1      24.309  -0.245  53.558  1.00  0.00     0.054 C 
HETATM    6  C6  UNL     1      23.142  -0.617  54.153  1.00  0.00     0.011 C 
HETATM    7  C7  UNL     1      22.158   0.414  53.717  1.00  0.00    -0.057 C 
HETATM    8  C8  UNL     1      22.715   1.337  52.918  1.00  0.00     0.010 C 
HETATM    9  C9  UNL     1      22.130   2.535  52.249  1.00  0.00     0.188 C 
HETATM   10  N1  UNL     1      23.047   3.471  51.720  1.00  0.00    -0.258 NA
HETATM   11  C10 UNL     1      24.265   3.326  51.418  1.00  0.00     0.293 C 
HETATM   12  N2  UNL     1      25.301   2.534  51.353  1.00  0.00    -0.416 NA
HETATM   13  C11 UNL     1      26.183   1.751  51.554  1.00  0.00     0.161 C 
HETATM   14  C12 UNL     1      27.183   0.777  51.992  1.00  0.00     0.107 C 
HETATM   15  C13 UNL     1      21.160   2.016  51.162  1.00  0.00     0.288 C 
HETATM   16  O3  UNL     1      20.517   0.982  51.601  1.00  0.00    -0.357 OA
HETATM   17  C18 UNL     1      19.352   0.422  51.591  1.00  0.00     0.197 C 
HETATM   18  C19 UNL     1      19.537  -0.800  52.568  1.00  0.00     0.194 C 
HETATM   19  O4  UNL     1      19.817  -0.329  53.774  1.00  0.00    -0.385 OA
HETATM   20  C20 UNL     1      20.736   0.558  54.049  1.00  0.00     0.201 C 
ENDROOT
BRANCH  15  21
HETATM   21  O1  UNL     1      22.067   1.475  50.139  1.00  0.00    -0.357 OA
BRANCH  21  22
HETATM   22  C14 UNL     1      21.395   1.494  48.938  1.00  0.00     0.197 C 
BRANCH  22  23
HETATM   23  C15 UNL     1      22.282   1.971  47.842  1.00  0.00     0.193 C 
BRANCH  23  24
HETATM   24  O2  UNL     1      23.074   3.031  48.271  1.00  0.00    -0.389 OA
BRANCH  24  25
HETATM   25  C16 UNL     1      22.473   4.255  47.994  1.00  0.00     0.163 C 
HETATM   26  C17 UNL     1      23.466   5.352  48.355  1.00  0.00     0.033 C 
ENDBRANCH  24  25
ENDBRANCH  23  24
ENDBRANCH  22  23
ENDBRANCH  21  22
ENDBRANCH  15  21
TORSDOF 5
ENDMDL
MODEL 2
REMARK VINA RESULT:      -7.0      2.755      5.429
REMARK  5 active torsions:
REMARK  status: ('A' for Active; 'I' for Inactive)
REMARK    1  A    between atoms: C13_15  and  O1_16 
REMARK    2  A    between atoms: O1_16  and  C14_17 
REMARK    3  A    between atoms: C14_17  and  C15_18 
REMARK    4  A    between atoms: C15_18  and  O2_19 
REMARK    5  A    between atoms: O2_19  and  C16_20 
ROOT
HETATM    1  C1  UNL     1      22.682  -1.278  55.237  1.00  0.00     0.017 C 
HETATM    2  C2  UNL     1      22.775  -0.621  54.177  1.00  0.00    -0.082 C 
HETATM    3  C3  UNL     1      22.867   0.182  52.916  1.00  0.00    -0.003 C 
HETATM    4  C4  UNL     1      23.967   0.985  52.924  1.00  0.00    -0.004 C 
HETATM    5  C5  UNL     1      24.264   1.875  51.767  1.00  0.00     0.054 C 
HETATM    6  C6  UNL     1      25.279   2.755  51.544  1.00  0.00     0.011 C 
HETATM    7  C7  UNL     1      24.991   3.321  50.196  1.00  0.00    -0.057 C 
HETATM    8  C8  UNL     1      23.876   2.802  49.660  1.00  0.00     0.010 C 
HETATM    9  C9  UNL     1      23.205   3.062  48.353  1.00  0.00     0.188 C 
HETATM   10  N1  UNL     1      22.214   2.136  47.958  1.00  0.00    -0.258 NA
HETATM   11  C10 UNL     1      21.559   1.308  48.653  1.00  0.00     0.293 C 
HETATM   12  N2  UNL     1      21.321   0.800  49.832  1.00  0.00    -0.416 NA
HETATM   13  C11 UNL     1      21.375   0.310  50.922  1.00  0.00     0.161 C 
HETATM   14  C12 UNL     1      21.648  -0.293  52.227  1.00  0.00     0.107 C 
HETATM   15  C13 UNL     1      22.640   4.502  48.415  1.00  0.00     0.288 C 
HETATM   16  O3  UNL     1      23.478   5.279  49.026  1.00  0.00    -0.357 OA
HETATM   17  C18 UNL     1      23.976   6.470  48.994  1.00  0.00     0.197 C 
HETATM   18  C19 UNL     1      25.070   6.428  50.127  1.00  0.00     0.194 C 
HETATM   19  O4  UNL     1      25.984   5.531  49.790  1.00  0.00    -0.385 OA
HETATM   20  C20 UNL     1      25.741   4.305  49.409  1.00  0.00     0.201 C 
ENDROOT
BRANCH  15  21
HETATM   21  O1  UNL     1      21.511   4.375  49.349  1.00  0.00    -0.357 OA
BRANCH  21  22
HETATM   22  C14 UNL     1      20.477   5.134  48.851  1.00  0.00     0.197 C 
BRANCH  22  23
HETATM   23  C15 UNL     1      19.181   4.729  49.462  1.00  0.00     0.193 C 
BRANCH  23  24
HETATM   24  O2  UNL     1      19.310   3.522  50.142  1.00  0.00    -0.389 OA
BRANCH  24  25
HETATM   25  C16 UNL     1      19.000   3.666  51.491  1.00  0.00     0.163 C 
HETATM   26  C17 UNL     1      20.261   3.364  52.291  1.00  0.00     0.033 C 
ENDBRANCH  24  25
ENDBRANCH  23  24
ENDBRANCH  22  23
ENDBRANCH  21  22
ENDBRANCH  15  21
TORSDOF 5
ENDMDL
MODEL 3
REMARK VINA RESULT:      -7.0      2.769      6.279
REMARK  5 active torsions:
REMARK  status: ('A' for Active; 'I' for Inactive)
REMARK    1  A    between atoms: C13_15  and  O1_16 
REMARK    2  A    between atoms: O1_16  and  C14_17 
REMARK    3  A    between atoms: C14_17  and  C15_18 
REMARK    4  A    between atoms: C15_18  and  O2_19 
REMARK    5  A    between atoms: O2_19  and  C16_20 
ROOT
HETATM    1  C1  UNL     1      21.530   6.998  50.744  1.00  0.00     0.017 C 
HETATM    2  C2  UNL     1      22.117   5.916  50.965  1.00  0.00    -0.082 C 
HETATM    3  C3  UNL     1      22.829   4.630  51.253  1.00  0.00    -0.003 C 
HETATM    4  C4  UNL     1      21.979   3.701  51.771  1.00  0.00    -0.004 C 
HETATM    5  C5  UNL     1      22.469   2.342  52.132  1.00  0.00     0.054 C 
HETATM    6  C6  UNL     1      21.827   1.263  52.659  1.00  0.00     0.011 C 
HETATM    7  C7  UNL     1      22.886   0.220  52.775  1.00  0.00    -0.057 C 
HETATM    8  C8  UNL     1      24.077   0.661  52.340  1.00  0.00     0.010 C 
HETATM    9  C9  UNL     1      25.404  -0.015  52.266  1.00  0.00     0.188 C 
HETATM   10  N1  UNL     1      26.392   0.620  51.479  1.00  0.00    -0.258 NA
HETATM   11  C10 UNL     1      26.466   1.819  51.089  1.00  0.00     0.293 C 
HETATM   12  N2  UNL     1      25.933   3.011  51.074  1.00  0.00    -0.416 NA
HETATM   13  C11 UNL     1      25.218   3.966  50.987  1.00  0.00     0.161 C 
HETATM   14  C12 UNL     1      24.195   5.000  50.826  1.00  0.00     0.107 C 
HETATM   15  C13 UNL     1      25.887  -0.220  53.722  1.00  0.00     0.288 C 
HETATM   16  O3  UNL     1      24.887  -0.553  54.475  1.00  0.00    -0.357 OA
HETATM   17  C18 UNL     1      24.561  -1.326  55.458  1.00  0.00     0.197 C 
HETATM   18  C19 UNL     1      23.007  -1.099  55.587  1.00  0.00     0.194 C 
HETATM   19  O4  UNL     1      22.433  -1.504  54.465  1.00  0.00    -0.385 OA
HETATM   20  C20 UNL     1      22.798  -1.161  53.258  1.00  0.00     0.201 C 
ENDROOT
BRANCH  15  21
HETATM   21  O1  UNL     1      26.232   1.143  54.152  1.00  0.00    -0.357 OA
BRANCH  21  22
HETATM   22  C14 UNL     1      27.418   1.069  54.846  1.00  0.00     0.197 C 
BRANCH  22  23
HETATM   23  C15 UNL     1      28.529   1.677  54.064  1.00  0.00     0.193 C 
BRANCH  23  24
HETATM   24  O2  UNL     1      29.243   0.701  53.376  1.00  0.00    -0.389 OA
BRANCH  24  25
HETATM   25  C16 UNL     1      29.506  -0.397  54.188  1.00  0.00     0.163 C 
HETATM   26  C17 UNL     1      29.428  -1.646  53.319  1.00  0.00     0.033 C 
ENDBRANCH  24  25
ENDBRANCH  23  24
ENDBRANCH  22  23
ENDBRANCH  21  22
ENDBRANCH  15  21
TORSDOF 5
ENDMDL
MODEL 4
REMARK VINA RESULT:      -6.8      8.285     11.969
REMARK  5 active torsions:
REMARK  status: ('A' for Active; 'I' for Inactive)
REMARK    1  A    between atoms: C13_15  and  O1_16 
REMARK    2  A    between atoms: O1_16  and  C14_17 
REMARK    3  A    between atoms: C14_17  and  C15_18 
REMARK    4  A    between atoms: C15_18  and  O2_19 
REMARK    5  A    between atoms: O2_19  and  C16_20 
ROOT
HETATM    1  C1  UNL     1      24.027   5.564  48.638  1.00  0.00     0.017 C 
HETATM    2  C2  UNL     1      25.211   5.965  48.696  1.00  0.00    -0.082 C 
HETATM    3  C3  UNL     1      26.629   6.444  48.738  1.00  0.00    -0.003 C 
HETATM    4  C4  UNL     1      26.688   7.794  48.910  1.00  0.00    -0.004 C 
HETATM    5  C5  UNL     1      28.002   8.492  48.984  1.00  0.00     0.054 C 
HETATM    6  C6  UNL     1      28.315   9.807  49.145  1.00  0.00     0.011 C 
HETATM    7  C7  UNL     1      29.805   9.838  49.136  1.00  0.00    -0.057 C 
HETATM    8  C8  UNL     1      30.333   8.614  48.982  1.00  0.00     0.010 C 
HETATM    9  C9  UNL     1      31.753   8.161  48.913  1.00  0.00     0.188 C 
HETATM   10  N1  UNL     1      31.979   6.773  49.049  1.00  0.00    -0.258 NA
HETATM   11  C10 UNL     1      31.181   5.806  48.892  1.00  0.00     0.293 C 
HETATM   12  N2  UNL     1      29.974   5.406  48.596  1.00  0.00    -0.416 NA
HETATM   13  C11 UNL     1      28.795   5.228  48.511  1.00  0.00     0.161 C 
HETATM   14  C12 UNL     1      27.334   5.157  48.552  1.00  0.00     0.107 C 
HETATM   15  C13 UNL     1      32.334   8.702  47.584  1.00  0.00     0.288 C 
HETATM   16  O3  UNL     1      31.889   9.897  47.361  1.00  0.00    -0.357 OA
HETATM   17  C18 UNL     1      32.247  11.054  46.910  1.00  0.00     0.197 C 
HETATM   18  C19 UNL     1      30.978  11.948  47.177  1.00  0.00     0.194 C 
HETATM   19  O4  UNL     1      30.773  12.000  48.484  1.00  0.00    -0.385 OA
HETATM   20  C20 UNL     1      30.724  10.971  49.287  1.00  0.00     0.201 C 
ENDROOT
BRANCH  15  21
HETATM   21  O1  UNL     1      31.670   7.870  46.569  1.00  0.00    -0.357 OA
BRANCH  21  22
HETATM   22  C14 UNL     1      32.597   7.593  45.591  1.00  0.00     0.197 C 
BRANCH  22  23
HETATM   23  C15 UNL     1      32.913   6.139  45.555  1.00  0.00     0.193 C 
BRANCH  23  24
HETATM   24  O2  UNL     1      34.041   5.858  46.320  1.00  0.00    -0.389 OA
BRANCH  24  25
HETATM   25  C16 UNL     1      34.145   4.496  46.585  1.00  0.00     0.163 C 
HETATM   26  C17 UNL     1      35.002   3.875  45.489  1.00  0.00     0.033 C 
ENDBRANCH  24  25
ENDBRANCH  23  24
ENDBRANCH  22  23
ENDBRANCH  21  22
ENDBRANCH  15  21
TORSDOF 5
ENDMDL
MODEL 5
REMARK VINA RESULT:      -6.7     10.640     12.773
REMARK  5 active torsions:
REMARK  status: ('A' for Active; 'I' for Inactive)
REMARK    1  A    between atoms: C13_15  and  O1_16 
REMARK    2  A    between atoms: O1_16  and  C14_17 
REMARK    3  A    between atoms: C14_17  and  C15_18 
REMARK    4  A    between atoms: C15_18  and  O2_19 
REMARK    5  A    between atoms: O2_19  and  C16_20 
ROOT
HETATM    1  C1  UNL     1      32.085   0.374  46.592  1.00  0.00     0.017 C 
HETATM    2  C2  UNL     1      32.313   1.572  46.871  1.00  0.00    -0.082 C 
HETATM    3  C3  UNL     1      32.595   3.010  47.179  1.00  0.00    -0.003 C 
HETATM    4  C4  UNL     1      31.451   3.749  47.166  1.00  0.00    -0.004 C 
HETATM    5  C5  UNL     1      31.489   5.211  47.449  1.00  0.00     0.054 C 
HETATM    6  C6  UNL     1      30.502   6.147  47.491  1.00  0.00     0.011 C 
HETATM    7  C7  UNL     1      31.206   7.416  47.831  1.00  0.00    -0.057 C 
HETATM    8  C8  UNL     1      32.527   7.233  47.982  1.00  0.00     0.010 C 
HETATM    9  C9  UNL     1      33.616   8.196  48.316  1.00  0.00     0.188 C 
HETATM   10  N1  UNL     1      34.856   7.636  48.698  1.00  0.00    -0.258 NA
HETATM   11  C10 UNL     1      35.315   6.476  48.497  1.00  0.00     0.293 C 
HETATM   12  N2  UNL     1      35.132   5.290  47.983  1.00  0.00    -0.416 NA
HETATM   13  C11 UNL     1      34.727   4.216  47.647  1.00  0.00     0.161 C 
HETATM   14  C12 UNL     1      34.062   2.947  47.350  1.00  0.00     0.107 C 
HETATM   15  C13 UNL     1      33.772   9.140  47.100  1.00  0.00     0.288 C 
HETATM   16  O3  UNL     1      32.608   9.425  46.611  1.00  0.00    -0.357 OA
HETATM   17  C18 UNL     1      31.925  10.395  46.098  1.00  0.00     0.197 C 
HETATM   18  C19 UNL     1      30.490   9.766  45.926  1.00  0.00     0.194 C 
HETATM   19  O4  UNL     1      30.027   9.452  47.126  1.00  0.00    -0.385 OA
HETATM   20  C20 UNL     1      30.669   8.765  48.033  1.00  0.00     0.201 C 
ENDROOT
BRANCH  15  21
HETATM   21  O1  UNL     1      34.393   8.275  46.086  1.00  0.00    -0.357 OA
BRANCH  21  22
HETATM   22  C14 UNL     1      34.948   9.092  45.128  1.00  0.00     0.197 C 
BRANCH  22  23
HETATM   23  C15 UNL     1      34.775   8.510  43.769  1.00  0.00     0.193 C 
BRANCH  23  24
HETATM   24  O2  UNL     1      33.643   7.702  43.717  1.00  0.00    -0.389 OA
BRANCH  24  25
HETATM   25  C16 UNL     1      33.951   6.433  43.238  1.00  0.00     0.163 C 
HETATM   26  C17 UNL     1      33.329   5.416  44.187  1.00  0.00     0.033 C 
ENDBRANCH  24  25
ENDBRANCH  23  24
ENDBRANCH  22  23
ENDBRANCH  21  22
ENDBRANCH  15  21
TORSDOF 5
ENDMDL
MODEL 6
REMARK VINA RESULT:      -6.6      2.242      3.122
REMARK  5 active torsions:
REMARK  status: ('A' for Active; 'I' for Inactive)
REMARK    1  A    between atoms: C13_15  and  O1_16 
REMARK    2  A    between atoms: O1_16  and  C14_17 
REMARK    3  A    between atoms: C14_17  and  C15_18 
REMARK    4  A    between atoms: C15_18  and  O2_19 
REMARK    5  A    between atoms: O2_19  and  C16_20 
ROOT
HETATM    1  C1  UNL     1      27.371  -1.033  52.751  1.00  0.00     0.017 C 
HETATM    2  C2  UNL     1      26.602  -0.093  52.451  1.00  0.00    -0.082 C 
HETATM    3  C3  UNL     1      25.679   1.022  52.066  1.00  0.00    -0.003 C 
HETATM    4  C4  UNL     1      24.410   0.781  52.498  1.00  0.00    -0.004 C 
HETATM    5  C5  UNL     1      23.319   1.760  52.230  1.00  0.00     0.054 C 
HETATM    6  C6  UNL     1      21.996   1.745  52.549  1.00  0.00     0.011 C 
HETATM    7  C7  UNL     1      21.464   3.021  51.993  1.00  0.00    -0.057 C 
HETATM    8  C8  UNL     1      22.419   3.742  51.385  1.00  0.00     0.010 C 
HETATM    9  C9  UNL     1      22.359   5.062  50.693  1.00  0.00     0.188 C 
HETATM   10  N1  UNL     1      23.596   5.689  50.423  1.00  0.00    -0.258 NA
HETATM   11  C10 UNL     1      24.757   5.194  50.365  1.00  0.00     0.293 C 
HETATM   12  N2  UNL     1      25.511   4.133  50.460  1.00  0.00    -0.416 NA
HETATM   13  C11 UNL     1      26.068   3.125  50.784  1.00  0.00     0.161 C 
HETATM   14  C12 UNL     1      26.630   1.898  51.350  1.00  0.00     0.107 C 
HETATM   15  C13 UNL     1      21.536   4.854  49.399  1.00  0.00     0.288 C 
HETATM   16  O3  UNL     1      20.545   4.053  49.630  1.00  0.00    -0.357 OA
HETATM   17  C18 UNL     1      19.299   3.860  49.346  1.00  0.00     0.197 C 
HETATM   18  C19 UNL     1      18.913   2.634  50.258  1.00  0.00     0.194 C 
HETATM   19  O4  UNL     1      19.053   2.997  51.524  1.00  0.00    -0.385 OA
HETATM   20  C20 UNL     1      20.107   3.574  52.037  1.00  0.00     0.201 C 
ENDROOT
BRANCH  15  21
HETATM   21  O1  UNL     1      22.446   4.075  48.548  1.00  0.00    -0.357 OA
BRANCH  21  22
HETATM   22  C14 UNL     1      22.286   4.519  47.255  1.00  0.00     0.197 C 
BRANCH  22  23
HETATM   23  C15 UNL     1      21.854   3.408  46.363  1.00  0.00     0.193 C 
BRANCH  23  24
HETATM   24  O2  UNL     1      22.016   3.755  45.026  1.00  0.00    -0.389 OA
BRANCH  24  25
HETATM   25  C16 UNL     1      20.788   3.852  44.377  1.00  0.00     0.163 C 
HETATM   26  C17 UNL     1      20.828   5.092  43.493  1.00  0.00     0.033 C 
ENDBRANCH  24  25
ENDBRANCH  23  24
ENDBRANCH  22  23
ENDBRANCH  21  22
ENDBRANCH  15  21
TORSDOF 5
ENDMDL
MODEL 7
REMARK VINA RESULT:      -6.5      7.043     10.717
REMARK  5 active torsions:
REMARK  status: ('A' for Active; 'I' for Inactive)
REMARK    1  A    between atoms: C13_15  and  O1_16 
REMARK    2  A    between atoms: O1_16  and  C14_17 
REMARK    3  A    between atoms: C14_17  and  C15_18 
REMARK    4  A    between atoms: C15_18  and  O2_19 
REMARK    5  A    between atoms: O2_19  and  C16_20 
ROOT
HETATM    1  C1  UNL     1      24.090   3.453  50.291  1.00  0.00     0.017 C 
HETATM    2  C2  UNL     1      24.835   4.248  49.675  1.00  0.00    -0.082 C 
HETATM    3  C3  UNL     1      25.726   5.215  48.959  1.00  0.00    -0.003 C 
HETATM    4  C4  UNL     1      27.021   4.795  48.974  1.00  0.00    -0.004 C 
HETATM    5  C5  UNL     1      28.088   5.602  48.318  1.00  0.00     0.054 C 
HETATM    6  C6  UNL     1      29.429   5.399  48.204  1.00  0.00     0.011 C 
HETATM    7  C7  UNL     1      29.919   6.574  47.429  1.00  0.00    -0.057 C 
HETATM    8  C8  UNL     1      28.923   7.415  47.107  1.00  0.00     0.010 C 
HETATM    9  C9  UNL     1      28.933   8.701  46.352  1.00  0.00     0.188 C 
HETATM   10  N1  UNL     1      27.678   9.189  45.922  1.00  0.00    -0.258 NA
HETATM   11  C10 UNL     1      26.518   8.910  46.337  1.00  0.00     0.293 C 
HETATM   12  N2  UNL     1      25.776   8.227  47.166  1.00  0.00    -0.416 NA
HETATM   13  C11 UNL     1      25.245   7.389  47.835  1.00  0.00     0.161 C 
HETATM   14  C12 UNL     1      24.726   6.230  48.561  1.00  0.00     0.107 C 
HETATM   15  C13 UNL     1      29.670   9.736  47.235  1.00  0.00     0.288 C 
HETATM   16  O3  UNL     1      30.677   9.175  47.825  1.00  0.00    -0.357 OA
HETATM   17  C18 UNL     1      31.903   9.385  48.176  1.00  0.00     0.197 C 
HETATM   18  C19 UNL     1      32.352   7.988  48.750  1.00  0.00     0.194 C 
HETATM   19  O4  UNL     1      32.294   7.098  47.770  1.00  0.00    -0.385 OA
HETATM   20  C20 UNL     1      31.274   6.907  46.978  1.00  0.00     0.201 C 
ENDROOT
BRANCH  15  21
HETATM   21  O1  UNL     1      28.709   9.994  48.317  1.00  0.00    -0.357 OA
BRANCH  21  22
HETATM   22  C14 UNL     1      28.961  11.257  48.801  1.00  0.00     0.197 C 
BRANCH  22  23
HETATM   23  C15 UNL     1      27.830  12.176  48.499  1.00  0.00     0.193 C 
BRANCH  23  24
HETATM   24  O2  UNL     1      26.610  11.521  48.635  1.00  0.00    -0.389 OA
BRANCH  24  25
HETATM   25  C16 UNL     1      25.579  12.247  48.047  1.00  0.00     0.163 C 
HETATM   26  C17 UNL     1      26.060  13.683  47.878  1.00  0.00     0.033 C 
ENDBRANCH  24  25
ENDBRANCH  23  24
ENDBRANCH  22  23
ENDBRANCH  21  22
ENDBRANCH  15  21
TORSDOF 5
ENDMDL
MODEL 8
REMARK VINA RESULT:      -6.4      2.572      6.725
REMARK  5 active torsions:
REMARK  status: ('A' for Active; 'I' for Inactive)
REMARK    1  A    between atoms: C13_15  and  O1_16 
REMARK    2  A    between atoms: O1_16  and  C14_17 
REMARK    3  A    between atoms: C14_17  and  C15_18 
REMARK    4  A    between atoms: C15_18  and  O2_19 
REMARK    5  A    between atoms: O2_19  and  C16_20 
ROOT
HETATM    1  C1  UNL     1      21.359   3.941  44.782  1.00  0.00     0.017 C 
HETATM    2  C2  UNL     1      21.317   3.757  46.018  1.00  0.00    -0.082 C 
HETATM    3  C3  UNL     1      21.260   3.510  47.495  1.00  0.00    -0.003 C 
HETATM    4  C4  UNL     1      22.506   3.319  48.010  1.00  0.00    -0.004 C 
HETATM    5  C5  UNL     1      22.693   3.058  49.465  1.00  0.00     0.054 C 
HETATM    6  C6  UNL     1      23.814   2.835  50.204  1.00  0.00     0.011 C 
HETATM    7  C7  UNL     1      23.312   2.648  51.595  1.00  0.00    -0.057 C 
HETATM    8  C8  UNL     1      21.976   2.757  51.667  1.00  0.00     0.010 C 
HETATM    9  C9  UNL     1      21.046   2.645  52.827  1.00  0.00     0.188 C 
HETATM   10  N1  UNL     1      19.727   3.110  52.625  1.00  0.00    -0.258 NA
HETATM   11  C10 UNL     1      19.096   3.302  51.547  1.00  0.00     0.293 C 
HETATM   12  N2  UNL     1      19.098   3.260  50.242  1.00  0.00    -0.416 NA
HETATM   13  C11 UNL     1      19.336   3.360  49.074  1.00  0.00     0.161 C 
HETATM   14  C12 UNL     1      19.798   3.585  47.704  1.00  0.00     0.107 C 
HETATM   15  C13 UNL     1      21.062   1.165  53.276  1.00  0.00     0.288 C 
HETATM   16  O3  UNL     1      22.265   0.692  53.198  1.00  0.00    -0.357 OA
HETATM   17  C18 UNL     1      23.101  -0.081  53.809  1.00  0.00     0.197 C 
HETATM   18  C19 UNL     1      24.421   0.088  52.966  1.00  0.00     0.194 C 
HETATM   19  O4  UNL     1      24.809   1.351  53.049  1.00  0.00    -0.385 OA
HETATM   20  C20 UNL     1      24.051   2.394  52.836  1.00  0.00     0.201 C 
ENDROOT
BRANCH  15  21
HETATM   21  O1  UNL     1      20.330   0.484  52.198  1.00  0.00    -0.357 OA
BRANCH  21  22
HETATM   22  C14 UNL     1      19.383  -0.323  52.786  1.00  0.00     0.197 C 
BRANCH  22  23
HETATM   23  C15 UNL     1      18.199  -0.485  51.897  1.00  0.00     0.193 C 
BRANCH  23  24
HETATM   24  O2  UNL     1      17.318  -1.429  52.414  1.00  0.00    -0.389 OA
BRANCH  24  25
HETATM   25  C16 UNL     1      17.901  -2.149  53.452  1.00  0.00     0.163 C 
HETATM   26  C17 UNL     1      17.180  -3.488  53.549  1.00  0.00     0.033 C 
ENDBRANCH  24  25
ENDBRANCH  23  24
ENDBRANCH  22  23
ENDBRANCH  21  22
ENDBRANCH  15  21
TORSDOF 5
ENDMDL
MODEL 9
REMARK VINA RESULT:      -6.4      8.951     12.933
REMARK  5 active torsions:
REMARK  status: ('A' for Active; 'I' for Inactive)
REMARK    1  A    between atoms: C13_15  and  O1_16 
REMARK    2  A    between atoms: O1_16  and  C14_17 
REMARK    3  A    between atoms: C14_17  and  C15_18 
REMARK    4  A    between atoms: C15_18  and  O2_19 
REMARK    5  A    between atoms: O2_19  and  C16_20 
ROOT
HETATM    1  C1  UNL     1      24.881   7.503  47.768  1.00  0.00     0.017 C 
HETATM    2  C2  UNL     1      26.131   7.492  47.809  1.00  0.00    -0.082 C 
HETATM    3  C3  UNL     1      27.629   7.465  47.833  1.00  0.00    -0.003 C 
HETATM    4  C4  UNL     1      28.148   8.671  47.472  1.00  0.00    -0.004 C 
HETATM    5  C5  UNL     1      29.622   8.879  47.427  1.00  0.00     0.054 C 
HETATM    6  C6  UNL     1      30.369   9.970  47.101  1.00  0.00     0.011 C 
HETATM    7  C7  UNL     1      31.779   9.517  47.262  1.00  0.00    -0.057 C 
HETATM    8  C8  UNL     1      31.855   8.238  47.661  1.00  0.00     0.010 C 
HETATM    9  C9  UNL     1      33.033   7.369  47.946  1.00  0.00     0.188 C 
HETATM   10  N1  UNL     1      32.775   6.164  48.638  1.00  0.00    -0.258 NA
HETATM   11  C10 UNL     1      31.692   5.527  48.775  1.00  0.00     0.293 C 
HETATM   12  N2  UNL     1      30.415   5.451  48.513  1.00  0.00    -0.416 NA
HETATM   13  C11 UNL     1      29.244   5.640  48.361  1.00  0.00     0.161 C 
HETATM   14  C12 UNL     1      27.848   6.063  48.249  1.00  0.00     0.107 C 
HETATM   15  C13 UNL     1      33.736   7.105  46.593  1.00  0.00     0.288 C 
HETATM   16  O3  UNL     1      33.721   8.179  45.871  1.00  0.00    -0.357 OA
HETATM   17  C18 UNL     1      34.444   8.871  45.053  1.00  0.00     0.197 C 
HETATM   18  C19 UNL     1      33.561  10.150  44.794  1.00  0.00     0.194 C 
HETATM   19  O4  UNL     1      33.413  10.792  45.943  1.00  0.00    -0.385 OA
HETATM   20  C20 UNL     1      33.033  10.254  47.071  1.00  0.00     0.201 C 
ENDROOT
BRANCH  15  21
HETATM   21  O1  UNL     1      32.808   6.192  45.910  1.00  0.00    -0.357 OA
BRANCH  21  22
HETATM   22  C14 UNL     1      33.538   5.469  44.994  1.00  0.00     0.197 C 
BRANCH  22  23
HETATM   23  C15 UNL     1      34.106   4.243  45.619  1.00  0.00     0.193 C 
BRANCH  23  24
HETATM   24  O2  UNL     1      33.096   3.433  46.128  1.00  0.00    -0.389 OA
BRANCH  24  25
HETATM   25  C16 UNL     1      33.524   2.745  47.260  1.00  0.00     0.163 C 
HETATM   26  C17 UNL     1      34.815   3.397  47.738  1.00  0.00     0.033 C 
ENDBRANCH  24  25
ENDBRANCH  23  24
ENDBRANCH  22  23
ENDBRANCH  21  22
ENDBRANCH  15  21
TORSDOF 5
ENDMDL
