MODEL 1
REMARK VINA RESULT:     -10.3      0.000      0.000
REMARK  2 active torsions:
REMARK  status: ('A' for Active; 'I' for Inactive)
REMARK    1  A    between atoms: O1_2  and  C2_3 
REMARK    2  A    between atoms: C8_9  and  C9_10 
ROOT
HETATM    1  C2  UNL     1      21.903   0.462  52.577  1.00  0.00     0.050 C 
HETATM    2  C3  UNL     1      21.159   0.181  51.483  1.00  0.00     0.032 C 
HETATM    3  C4  UNL     1      21.528   0.976  50.260  1.00  0.00     0.001 C 
HETATM    4  C5  UNL     1      22.490   1.885  50.186  1.00  0.00     0.001 C 
HETATM    5  C6  UNL     1      23.581   2.792  50.429  1.00  0.00     0.139 C 
HETATM    6  C7  UNL     1      24.384   3.220  49.179  1.00  0.00     0.093 C 
HETATM    7  C8  UNL     1      25.388   4.051  49.944  1.00  0.00     0.067 C 
HETATM    8  N1  UNL     1      25.477   3.432  51.067  1.00  0.00    -0.175 NA
HETATM    9  N2  UNL     1      24.698   2.305  51.207  1.00  0.00    -0.260 N 
HETATM   10  C17 UNL     1      25.166   1.170  51.985  1.00  0.00     0.060 A 
HETATM   11  C18 UNL     1      26.428   0.644  51.751  1.00  0.00     0.032 A 
HETATM   12  C19 UNL     1      26.938  -0.387  52.481  1.00  0.00     0.002 A 
HETATM   13  C20 UNL     1      26.131  -0.880  53.466  1.00  0.00     0.001 A 
HETATM   14  C21 UNL     1      24.882  -0.379  53.717  1.00  0.00     0.010 A 
HETATM   15  C22 UNL     1      24.337   0.653  53.004  1.00  0.00    -0.024 A 
HETATM   16  C23 UNL     1      22.993   1.284  53.083  1.00  0.00     0.105 C 
ENDROOT
BRANCH   7  17
HETATM   17  C9  UNL     1      26.092   5.251  49.530  1.00  0.00    -0.007 A 
HETATM   18  C10 UNL     1      27.156   5.152  48.691  1.00  0.00     0.016 A 
HETATM   19  C11 UNL     1      27.855   6.289  48.265  1.00  0.00     0.040 A 
HETATM   20  C12 UNL     1      27.426   7.530  48.731  1.00  0.00     0.102 A 
HETATM   21  C13 UNL     1      26.320   7.594  49.599  1.00  0.00     0.103 A 
HETATM   22  O3  UNL     1      27.997   8.736  48.416  1.00  0.00    -0.346 OA
HETATM   23  C14 UNL     1      25.656   6.469  49.998  1.00  0.00     0.053 A 
HETATM   24  O2  UNL     1      26.068   8.909  49.931  1.00  0.00    -0.346 OA
HETATM   25  C15 UNL     1      25.989   9.927  48.923  1.00  0.00     0.202 C 
HETATM   26  C16 UNL     1      27.217   9.842  48.056  1.00  0.00     0.202 C 
ENDBRANCH   7  17
BRANCH   1  27
HETATM   27  O1  UNL     1      21.196  -0.461  53.304  1.00  0.00    -0.360 OA
HETATM   28  C1  UNL     1      21.335  -0.959  54.572  1.00  0.00     0.209 C 
ENDBRANCH   1  27
TORSDOF 2
ENDMDL
MODEL 2
REMARK VINA RESULT:     -10.2      0.824      1.640
REMARK  2 active torsions:
REMARK  status: ('A' for Active; 'I' for Inactive)
REMARK    1  A    between atoms: O1_2  and  C2_3 
REMARK    2  A    between atoms: C8_9  and  C9_10 
ROOT
HETATM    1  C2  UNL     1      21.883   0.373  52.558  1.00  0.00     0.050 C 
HETATM    2  C3  UNL     1      21.139   0.101  51.462  1.00  0.00     0.032 C 
HETATM    3  C4  UNL     1      21.503   0.912  50.247  1.00  0.00     0.001 C 
HETATM    4  C5  UNL     1      22.462   1.825  50.183  1.00  0.00     0.001 C 
HETATM    5  C6  UNL     1      23.550   2.733  50.435  1.00  0.00     0.139 C 
HETATM    6  C7  UNL     1      24.350   3.179  49.189  1.00  0.00     0.093 C 
HETATM    7  C8  UNL     1      25.352   4.005  49.962  1.00  0.00     0.067 C 
HETATM    8  N1  UNL     1      25.444   3.374  51.078  1.00  0.00    -0.175 NA
HETATM    9  N2  UNL     1      24.670   2.242  51.206  1.00  0.00    -0.260 N 
HETATM   10  C17 UNL     1      25.143   1.100  51.971  1.00  0.00     0.060 A 
HETATM   11  C18 UNL     1      26.406   0.582  51.730  1.00  0.00     0.032 A 
HETATM   12  C19 UNL     1      26.921  -0.455  52.448  1.00  0.00     0.002 A 
HETATM   13  C20 UNL     1      26.118  -0.962  53.428  1.00  0.00     0.001 A 
HETATM   14  C21 UNL     1      24.867  -0.469  53.686  1.00  0.00     0.010 A 
HETATM   15  C22 UNL     1      24.317   0.569  52.985  1.00  0.00    -0.024 A 
HETATM   16  C23 UNL     1      22.970   1.194  53.073  1.00  0.00     0.105 C 
ENDROOT
BRANCH   7  17
HETATM   17  C9  UNL     1      26.050   5.213  49.561  1.00  0.00    -0.007 A 
HETATM   18  C10 UNL     1      25.599   6.424  49.983  1.00  0.00     0.016 A 
HETATM   19  C11 UNL     1      26.250   7.609  49.621  1.00  0.00     0.040 A 
HETATM   20  C12 UNL     1      27.380   7.510  48.810  1.00  0.00     0.102 A 
HETATM   21  C13 UNL     1      27.818   6.240  48.392  1.00  0.00     0.103 A 
HETATM   22  O3  UNL     1      28.130   8.568  48.363  1.00  0.00    -0.346 OA
HETATM   23  C14 UNL     1      27.162   5.099  48.760  1.00  0.00     0.053 A 
HETATM   24  O2  UNL     1      28.943   6.374  47.607  1.00  0.00    -0.346 OA
HETATM   25  C15 UNL     1      30.049   7.185  48.027  1.00  0.00     0.202 C 
HETATM   26  C16 UNL     1      29.529   8.544  48.416  1.00  0.00     0.202 C 
ENDBRANCH   7  17
BRANCH   1  27
HETATM   27  O1  UNL     1      21.180  -0.560  53.276  1.00  0.00    -0.360 OA
HETATM   28  C1  UNL     1      21.356  -1.114  54.516  1.00  0.00     0.209 C 
ENDBRANCH   1  27
TORSDOF 2
ENDMDL
MODEL 3
REMARK VINA RESULT:      -9.5      3.614      8.809
REMARK  2 active torsions:
REMARK  status: ('A' for Active; 'I' for Inactive)
REMARK    1  A    between atoms: O1_2  and  C2_3 
REMARK    2  A    between atoms: C8_9  and  C9_10 
ROOT
HETATM    1  C2  UNL     1      26.108   1.924  53.825  1.00  0.00     0.050 C 
HETATM    2  C3  UNL     1      26.617   0.687  54.027  1.00  0.00     0.032 C 
HETATM    3  C4  UNL     1      25.608  -0.424  53.930  1.00  0.00     0.001 C 
HETATM    4  C5  UNL     1      24.317  -0.279  53.665  1.00  0.00     0.001 C 
HETATM    5  C6  UNL     1      22.996   0.205  53.364  1.00  0.00     0.139 C 
HETATM    6  C7  UNL     1      22.043  -0.820  52.706  1.00  0.00     0.093 C 
HETATM    7  C8  UNL     1      20.896   0.150  52.541  1.00  0.00     0.067 C 
HETATM    8  N1  UNL     1      21.494   1.271  52.353  1.00  0.00    -0.175 NA
HETATM    9  N2  UNL     1      22.872   1.240  52.362  1.00  0.00    -0.260 N 
HETATM   10  C17 UNL     1      23.641   2.129  51.508  1.00  0.00     0.060 A 
HETATM   11  C18 UNL     1      23.344   2.218  50.156  1.00  0.00     0.032 A 
HETATM   12  C19 UNL     1      23.999   3.069  49.317  1.00  0.00     0.002 A 
HETATM   13  C20 UNL     1      24.973   3.837  49.885  1.00  0.00     0.001 A 
HETATM   14  C21 UNL     1      25.286   3.768  51.216  1.00  0.00     0.010 A 
HETATM   15  C22 UNL     1      24.652   2.925  52.087  1.00  0.00    -0.024 A 
HETATM   16  C23 UNL     1      24.890   2.664  53.531  1.00  0.00     0.105 C 
ENDROOT
BRANCH   7  17
HETATM   17  C9  UNL     1      19.467  -0.103  52.577  1.00  0.00    -0.007 A 
HETATM   18  C10 UNL     1      18.983  -1.128  53.328  1.00  0.00     0.016 A 
HETATM   19  C11 UNL     1      17.611  -1.398  53.392  1.00  0.00     0.040 A 
HETATM   20  C12 UNL     1      16.751  -0.582  52.657  1.00  0.00     0.102 A 
HETATM   21  C13 UNL     1      17.288   0.469  51.891  1.00  0.00     0.103 A 
HETATM   22  O3  UNL     1      15.387  -0.711  52.606  1.00  0.00    -0.346 OA
HETATM   23  C14 UNL     1      18.632   0.710  51.846  1.00  0.00     0.053 A 
HETATM   24  O2  UNL     1      16.269   1.143  51.253  1.00  0.00    -0.346 OA
HETATM   25  C15 UNL     1      15.102   1.574  51.968  1.00  0.00     0.202 C 
HETATM   26  C16 UNL     1      14.544   0.401  52.730  1.00  0.00     0.202 C 
ENDBRANCH   7  17
BRANCH   1  27
HETATM   27  O1  UNL     1      27.350   2.475  54.015  1.00  0.00    -0.360 OA
HETATM   28  C1  UNL     1      28.581   2.218  53.473  1.00  0.00     0.209 C 
ENDBRANCH   1  27
TORSDOF 2
ENDMDL
MODEL 4
REMARK VINA RESULT:      -9.3      5.224      7.078
REMARK  2 active torsions:
REMARK  status: ('A' for Active; 'I' for Inactive)
REMARK    1  A    between atoms: O1_2  and  C2_3 
REMARK    2  A    between atoms: C8_9  and  C9_10 
ROOT
HETATM    1  C2  UNL     1      18.338  -0.189  51.572  1.00  0.00     0.050 C 
HETATM    2  C3  UNL     1      17.872  -0.769  52.701  1.00  0.00     0.032 C 
HETATM    3  C4  UNL     1      18.939  -1.150  53.691  1.00  0.00     0.001 C 
HETATM    4  C5  UNL     1      20.242  -0.957  53.540  1.00  0.00     0.001 C 
HETATM    5  C6  UNL     1      21.562  -0.613  53.082  1.00  0.00     0.139 C 
HETATM    6  C7  UNL     1      22.628  -0.435  54.189  1.00  0.00     0.093 C 
HETATM    7  C8  UNL     1      23.736  -0.034  53.244  1.00  0.00     0.067 C 
HETATM    8  N1  UNL     1      23.107   0.582  52.308  1.00  0.00    -0.175 NA
HETATM    9  N2  UNL     1      21.739   0.675  52.449  1.00  0.00    -0.260 N 
HETATM   10  C17 UNL     1      21.021   1.845  51.975  1.00  0.00     0.060 A 
HETATM   11  C18 UNL     1      21.453   3.114  52.332  1.00  0.00     0.032 A 
HETATM   12  C19 UNL     1      20.849   4.248  51.879  1.00  0.00     0.002 A 
HETATM   13  C20 UNL     1      19.784   4.066  51.045  1.00  0.00     0.001 A 
HETATM   14  C21 UNL     1      19.337   2.825  50.677  1.00  0.00     0.010 A 
HETATM   15  C22 UNL     1      19.917   1.666  51.114  1.00  0.00    -0.024 A 
HETATM   16  C23 UNL     1      19.543   0.246  50.880  1.00  0.00     0.105 C 
ENDROOT
BRANCH   7  17
HETATM   17  C9  UNL     1      25.164  -0.272  53.350  1.00  0.00    -0.007 A 
HETATM   18  C10 UNL     1      25.735  -1.278  52.635  1.00  0.00     0.016 A 
HETATM   19  C11 UNL     1      27.110  -1.533  52.708  1.00  0.00     0.040 A 
HETATM   20  C12 UNL     1      27.880  -0.721  53.541  1.00  0.00     0.102 A 
HETATM   21  C13 UNL     1      27.255   0.310  54.266  1.00  0.00     0.103 A 
HETATM   22  O3  UNL     1      29.233  -0.837  53.729  1.00  0.00    -0.346 OA
HETATM   23  C14 UNL     1      25.910   0.536  54.176  1.00  0.00     0.053 A 
HETATM   24  O2  UNL     1      28.195   0.983  55.016  1.00  0.00    -0.346 OA
HETATM   25  C15 UNL     1      29.424   1.439  54.432  1.00  0.00     0.202 C 
HETATM   26  C16 UNL     1      30.071   0.285  53.711  1.00  0.00     0.202 C 
ENDBRANCH   7  17
BRANCH   1  27
HETATM   27  O1  UNL     1      17.058  -0.073  51.094  1.00  0.00    -0.360 OA
HETATM   28  C1  UNL     1      16.511  -0.195  49.844  1.00  0.00     0.209 C 
ENDBRANCH   1  27
TORSDOF 2
ENDMDL
MODEL 5
REMARK VINA RESULT:      -9.1      3.242      9.361
REMARK  2 active torsions:
REMARK  status: ('A' for Active; 'I' for Inactive)
REMARK    1  A    between atoms: O1_2  and  C2_3 
REMARK    2  A    between atoms: C8_9  and  C9_10 
ROOT
HETATM    1  C2  UNL     1      24.600   3.727  50.821  1.00  0.00     0.050 C 
HETATM    2  C3  UNL     1      24.168   4.877  51.387  1.00  0.00     0.032 C 
HETATM    3  C4  UNL     1      22.811   4.782  52.030  1.00  0.00     0.001 C 
HETATM    4  C5  UNL     1      22.052   3.697  52.082  1.00  0.00     0.001 C 
HETATM    5  C6  UNL     1      21.482   2.380  51.971  1.00  0.00     0.139 C 
HETATM    6  C7  UNL     1      20.414   2.023  53.030  1.00  0.00     0.093 C 
HETATM    7  C8  UNL     1      20.212   0.607  52.544  1.00  0.00     0.067 C 
HETATM    8  N1  UNL     1      21.375   0.287  52.102  1.00  0.00    -0.175 NA
HETATM    9  N2  UNL     1      22.355   1.251  52.202  1.00  0.00    -0.260 N 
HETATM   10  C17 UNL     1      23.738   0.882  52.451  1.00  0.00     0.060 A 
HETATM   11  C18 UNL     1      24.047   0.020  53.493  1.00  0.00     0.032 A 
HETATM   12  C19 UNL     1      25.320  -0.398  53.744  1.00  0.00     0.002 A 
HETATM   13  C20 UNL     1      26.283   0.082  52.905  1.00  0.00     0.001 A 
HETATM   14  C21 UNL     1      26.005   0.933  51.870  1.00  0.00     0.010 A 
HETATM   15  C22 UNL     1      24.741   1.375  51.589  1.00  0.00    -0.024 A 
HETATM   16  C23 UNL     1      24.254   2.337  50.565  1.00  0.00     0.105 C 
ENDROOT
BRANCH   7  17
HETATM   17  C9  UNL     1      19.011  -0.209  52.565  1.00  0.00    -0.007 A 
HETATM   18  C10 UNL     1      17.959   0.120  51.770  1.00  0.00     0.016 A 
HETATM   19  C11 UNL     1      16.787  -0.646  51.759  1.00  0.00     0.040 A 
HETATM   20  C12 UNL     1      16.731  -1.761  52.594  1.00  0.00     0.102 A 
HETATM   21  C13 UNL     1      17.839  -2.071  53.404  1.00  0.00     0.103 A 
HETATM   22  O3  UNL     1      15.663  -2.613  52.707  1.00  0.00    -0.346 OA
HETATM   23  C14 UNL     1      18.971  -1.305  53.394  1.00  0.00     0.053 A 
HETATM   24  O2  UNL     1      17.570  -3.205  54.141  1.00  0.00    -0.346 OA
HETATM   25  C15 UNL     1      17.042  -4.386  53.521  1.00  0.00     0.202 C 
HETATM   26  C16 UNL     1      15.834  -4.003  52.708  1.00  0.00     0.202 C 
ENDBRANCH   7  17
BRANCH   1  27
HETATM   27  O1  UNL     1      25.761   4.345  50.432  1.00  0.00    -0.360 OA
HETATM   28  C1  UNL     1      26.705   4.053  49.484  1.00  0.00     0.209 C 
ENDBRANCH   1  27
TORSDOF 2
ENDMDL
MODEL 6
REMARK VINA RESULT:      -9.1      1.716      8.712
REMARK  2 active torsions:
REMARK  status: ('A' for Active; 'I' for Inactive)
REMARK    1  A    between atoms: O1_2  and  C2_3 
REMARK    2  A    between atoms: C8_9  and  C9_10 
ROOT
HETATM    1  C2  UNL     1      27.252   7.524  48.525  1.00  0.00     0.050 C 
HETATM    2  C3  UNL     1      28.296   6.896  47.939  1.00  0.00     0.032 C 
HETATM    3  C4  UNL     1      28.371   5.419  48.220  1.00  0.00     0.001 C 
HETATM    4  C5  UNL     1      27.519   4.728  48.964  1.00  0.00     0.001 C 
HETATM    5  C6  UNL     1      26.444   4.274  49.805  1.00  0.00     0.139 C 
HETATM    6  C7  UNL     1      26.101   2.770  49.700  1.00  0.00     0.093 C 
HETATM    7  C8  UNL     1      24.938   2.830  50.663  1.00  0.00     0.067 C 
HETATM    8  N1  UNL     1      24.469   4.011  50.473  1.00  0.00    -0.175 NA
HETATM    9  N2  UNL     1      25.118   4.784  49.534  1.00  0.00    -0.260 N 
HETATM   10  C17 UNL     1      24.382   5.729  48.712  1.00  0.00     0.060 A 
HETATM   11  C18 UNL     1      23.243   5.317  48.036  1.00  0.00     0.032 A 
HETATM   12  C19 UNL     1      22.486   6.169  47.290  1.00  0.00     0.002 A 
HETATM   13  C20 UNL     1      22.914   7.464  47.243  1.00  0.00     0.001 A 
HETATM   14  C21 UNL     1      24.035   7.897  47.900  1.00  0.00     0.010 A 
HETATM   15  C22 UNL     1      24.820   7.069  48.656  1.00  0.00    -0.024 A 
HETATM   16  C23 UNL     1      26.090   7.333  49.381  1.00  0.00     0.105 C 
ENDROOT
BRANCH   7  17
HETATM   17  C9  UNL     1      24.451   1.815  51.579  1.00  0.00    -0.007 A 
HETATM   18  C10 UNL     1      25.324   1.181  52.407  1.00  0.00     0.016 A 
HETATM   19  C11 UNL     1      24.890   0.201  53.308  1.00  0.00     0.040 A 
HETATM   20  C12 UNL     1      23.531  -0.108  53.330  1.00  0.00     0.102 A 
HETATM   21  C13 UNL     1      22.658   0.568  52.458  1.00  0.00     0.103 A 
HETATM   22  O3  UNL     1      22.943  -1.040  54.146  1.00  0.00    -0.346 OA
HETATM   23  C14 UNL     1      23.108   1.521  51.588  1.00  0.00     0.053 A 
HETATM   24  O2  UNL     1      21.370   0.112  52.647  1.00  0.00    -0.346 OA
HETATM   25  C15 UNL     1      20.805   0.009  53.962  1.00  0.00     0.202 C 
HETATM   26  C16 UNL     1      21.758  -0.762  54.837  1.00  0.00     0.202 C 
ENDBRANCH   7  17
BRANCH   1  27
HETATM   27  O1  UNL     1      27.653   8.716  47.978  1.00  0.00    -0.360 OA
HETATM   28  C1  UNL     1      27.364   9.348  46.798  1.00  0.00     0.209 C 
ENDBRANCH   1  27
TORSDOF 2
ENDMDL
MODEL 7
REMARK VINA RESULT:      -9.0      4.640      7.156
REMARK  2 active torsions:
REMARK  status: ('A' for Active; 'I' for Inactive)
REMARK    1  A    between atoms: O1_2  and  C2_3 
REMARK    2  A    between atoms: C8_9  and  C9_10 
ROOT
HETATM    1  C2  UNL     1      19.063   4.500  49.890  1.00  0.00     0.050 C 
HETATM    2  C3  UNL     1      19.654   4.696  48.690  1.00  0.00     0.032 C 
HETATM    3  C4  UNL     1      21.054   4.152  48.591  1.00  0.00     0.001 C 
HETATM    4  C5  UNL     1      21.710   3.520  49.553  1.00  0.00     0.001 C 
HETATM    5  C6  UNL     1      22.140   2.885  50.770  1.00  0.00     0.139 C 
HETATM    6  C7  UNL     1      23.271   1.841  50.617  1.00  0.00     0.093 C 
HETATM    7  C8  UNL     1      23.290   1.449  52.076  1.00  0.00     0.067 C 
HETATM    8  N1  UNL     1      22.064   1.597  52.429  1.00  0.00    -0.175 NA
HETATM    9  N2  UNL     1      21.194   2.030  51.452  1.00  0.00    -0.260 N 
HETATM   10  C17 UNL     1      19.814   1.575  51.431  1.00  0.00     0.060 A 
HETATM   11  C18 UNL     1      19.532   0.219  51.516  1.00  0.00     0.032 A 
HETATM   12  C19 UNL     1      18.257  -0.262  51.550  1.00  0.00     0.002 A 
HETATM   13  C20 UNL     1      17.264   0.672  51.495  1.00  0.00     0.001 A 
HETATM   14  C21 UNL     1      17.515   2.014  51.410  1.00  0.00     0.010 A 
HETATM   15  C22 UNL     1      18.780   2.534  51.372  1.00  0.00    -0.024 A 
HETATM   16  C23 UNL     1      19.249   3.936  51.219  1.00  0.00     0.105 C 
ENDROOT
BRANCH   7  17
HETATM   17  C9  UNL     1      24.406   1.007  52.893  1.00  0.00    -0.007 A 
HETATM   18  C10 UNL     1      24.395  -0.242  53.429  1.00  0.00     0.016 A 
HETATM   19  C11 UNL     1      25.456  -0.705  54.217  1.00  0.00     0.040 A 
HETATM   20  C12 UNL     1      26.528   0.158  54.438  1.00  0.00     0.102 A 
HETATM   21  C13 UNL     1      26.505   1.444  53.867  1.00  0.00     0.103 A 
HETATM   22  O3  UNL     1      27.641  -0.135  55.184  1.00  0.00    -0.346 OA
HETATM   23  C14 UNL     1      25.456   1.870  53.103  1.00  0.00     0.053 A 
HETATM   24  O2  UNL     1      27.655   2.123  54.210  1.00  0.00    -0.346 OA
HETATM   25  C15 UNL     1      28.947   1.518  54.057  1.00  0.00     0.202 C 
HETATM   26  C16 UNL     1      28.928   0.168  54.725  1.00  0.00     0.202 C 
ENDBRANCH   7  17
BRANCH   1  27
HETATM   27  O1  UNL     1      17.931   5.134  49.444  1.00  0.00    -0.360 OA
HETATM   28  C1  UNL     1      16.842   4.712  48.729  1.00  0.00     0.209 C 
ENDBRANCH   1  27
TORSDOF 2
ENDMDL
MODEL 8
REMARK VINA RESULT:      -8.8      4.173      5.866
REMARK  2 active torsions:
REMARK  status: ('A' for Active; 'I' for Inactive)
REMARK    1  A    between atoms: O1_2  and  C2_3 
REMARK    2  A    between atoms: C8_9  and  C9_10 
ROOT
HETATM    1  C2  UNL     1      26.313   0.205  53.548  1.00  0.00     0.050 C 
HETATM    2  C3  UNL     1      26.965   1.368  53.771  1.00  0.00     0.032 C 
HETATM    3  C4  UNL     1      26.458   2.530  52.959  1.00  0.00     0.001 C 
HETATM    4  C5  UNL     1      25.459   2.491  52.089  1.00  0.00     0.001 C 
HETATM    5  C6  UNL     1      24.361   2.125  51.234  1.00  0.00     0.139 C 
HETATM    6  C7  UNL     1      23.432   3.285  50.807  1.00  0.00     0.093 C 
HETATM    7  C8  UNL     1      22.471   2.410  50.037  1.00  0.00     0.067 C 
HETATM    8  N1  UNL     1      22.507   1.303  50.688  1.00  0.00    -0.175 NA
HETATM    9  N2  UNL     1      23.338   1.265  51.786  1.00  0.00    -0.260 N 
HETATM   10  C17 UNL     1      22.986   0.482  52.958  1.00  0.00     0.060 A 
HETATM   11  C18 UNL     1      21.729   0.617  53.529  1.00  0.00     0.032 A 
HETATM   12  C19 UNL     1      21.327  -0.125  54.598  1.00  0.00     0.002 A 
HETATM   13  C20 UNL     1      22.237  -1.019  55.082  1.00  0.00     0.001 A 
HETATM   14  C21 UNL     1      23.484  -1.172  54.538  1.00  0.00     0.010 A 
HETATM   15  C22 UNL     1      23.923  -0.444  53.466  1.00  0.00    -0.024 A 
HETATM   16  C23 UNL     1      25.244  -0.421  52.784  1.00  0.00     0.105 C 
ENDROOT
BRANCH   7  17
HETATM   17  C9  UNL     1      21.687   2.724  48.856  1.00  0.00    -0.007 A 
HETATM   18  C10 UNL     1      20.330   2.745  48.933  1.00  0.00     0.016 A 
HETATM   19  C11 UNL     1      19.542   3.050  47.817  1.00  0.00     0.040 A 
HETATM   20  C12 UNL     1      20.194   3.332  46.617  1.00  0.00     0.102 A 
HETATM   21  C13 UNL     1      21.600   3.301  46.574  1.00  0.00     0.103 A 
HETATM   22  O3  UNL     1      19.576   3.646  45.434  1.00  0.00    -0.346 OA
HETATM   23  C14 UNL     1      22.345   3.000  47.680  1.00  0.00     0.053 A 
HETATM   24  O2  UNL     1      22.031   3.610  45.301  1.00  0.00    -0.346 OA
HETATM   25  C15 UNL     1      21.522   4.756  44.603  1.00  0.00     0.202 C 
HETATM   26  C16 UNL     1      20.017   4.712  44.640  1.00  0.00     0.202 C 
ENDBRANCH   7  17
BRANCH   1  27
HETATM   27  O1  UNL     1      27.118  -0.430  54.460  1.00  0.00    -0.360 OA
HETATM   28  C1  UNL     1      28.362  -0.153  54.961  1.00  0.00     0.209 C 
ENDBRANCH   1  27
TORSDOF 2
ENDMDL
MODEL 9
REMARK VINA RESULT:      -8.7      3.377      7.454
REMARK  2 active torsions:
REMARK  status: ('A' for Active; 'I' for Inactive)
REMARK    1  A    between atoms: O1_2  and  C2_3 
REMARK    2  A    between atoms: C8_9  and  C9_10 
ROOT
HETATM    1  C2  UNL     1      21.457   5.788  48.891  1.00  0.00     0.050 C 
HETATM    2  C3  UNL     1      20.683   6.099  49.956  1.00  0.00     0.032 C 
HETATM    3  C4  UNL     1      21.098   5.434  51.241  1.00  0.00     0.001 C 
HETATM    4  C5  UNL     1      22.126   4.610  51.391  1.00  0.00     0.001 C 
HETATM    5  C6  UNL     1      23.284   3.773  51.227  1.00  0.00     0.139 C 
HETATM    6  C7  UNL     1      24.106   3.509  52.510  1.00  0.00     0.093 C 
HETATM    7  C8  UNL     1      25.177   2.697  51.819  1.00  0.00     0.067 C 
HETATM    8  N1  UNL     1      25.230   3.229  50.650  1.00  0.00    -0.175 NA
HETATM    9  N2  UNL     1      24.369   4.279  50.416  1.00  0.00    -0.260 N 
HETATM   10  C17 UNL     1      24.758   5.380  49.550  1.00  0.00     0.060 A 
HETATM   11  C18 UNL     1      25.974   6.017  49.746  1.00  0.00     0.032 A 
HETATM   12  C19 UNL     1      26.412   7.022  48.937  1.00  0.00     0.002 A 
HETATM   13  C20 UNL     1      25.580   7.371  47.912  1.00  0.00     0.001 A 
HETATM   14  C21 UNL     1      24.375   6.759  47.698  1.00  0.00     0.010 A 
HETATM   15  C22 UNL     1      23.902   5.748  48.490  1.00  0.00    -0.024 A 
HETATM   16  C23 UNL     1      22.610   5.013  48.457  1.00  0.00     0.105 C 
ENDROOT
BRANCH   7  17
HETATM   17  C9  UNL     1      25.965   1.591  52.331  1.00  0.00    -0.007 A 
HETATM   18  C10 UNL     1      25.485   0.322  52.238  1.00  0.00     0.016 A 
HETATM   19  C11 UNL     1      26.220  -0.770  52.716  1.00  0.00     0.040 A 
HETATM   20  C12 UNL     1      27.463  -0.516  53.294  1.00  0.00     0.102 A 
HETATM   21  C13 UNL     1      27.926   0.810  53.374  1.00  0.00     0.103 A 
HETATM   22  O3  UNL     1      28.304  -1.466  53.812  1.00  0.00    -0.346 OA
HETATM   23  C14 UNL     1      27.188   1.857  52.900  1.00  0.00     0.053 A 
HETATM   24  O2  UNL     1      29.167   0.831  53.975  1.00  0.00    -0.346 OA
HETATM   25  C15 UNL     1      30.213  -0.054  53.548  1.00  0.00     0.202 C 
HETATM   26  C16 UNL     1      29.675  -1.460  53.527  1.00  0.00     0.202 C 
ENDBRANCH   7  17
BRANCH   1  27
HETATM   27  O1  UNL     1      20.689   6.593  48.089  1.00  0.00    -0.360 OA
HETATM   28  C1  UNL     1      19.660   7.460  48.343  1.00  0.00     0.209 C 
ENDBRANCH   1  27
TORSDOF 2
ENDMDL
