MODEL 1
REMARK VINA RESULT:      -8.1      0.000      0.000
REMARK  7 active torsions:
REMARK  status: ('A' for Active; 'I' for Inactive)
REMARK    1  A    between atoms: O1_2  and  C2_3 
REMARK    2  A    between atoms: C6_9  and  N3_10 
REMARK    3  A    between atoms: C10_15  and  C11_16 
REMARK    4  A    between atoms: C11_16  and  N5_18 
REMARK    5  A    between atoms: N5_18  and  C12_19 
REMARK    6  A    between atoms: C12_19  and  C13_20 
REMARK    7  A    between atoms: C21_28  and  O2_29 
ROOT
HETATM    1  N3  UNL     1      22.936   3.398  52.118  1.00  0.00    -0.328 N 
HETATM    2  C7  UNL     1      22.420   4.417  53.043  1.00  0.00     0.157 C 
HETATM    3  C8  UNL     1      23.628   5.366  53.040  1.00  0.00     0.295 C 
HETATM    4  N4  UNL     1      23.826   5.504  51.631  1.00  0.00     0.115 N 
HETATM    5  C9  UNL     1      23.296   6.710  51.059  1.00  0.00     0.313 C 
HETATM    6  C10 UNL     1      23.276   4.298  51.037  1.00  0.00     0.387 C 
ENDROOT
BRANCH   1   7
HETATM    7  C6  UNL     1      22.967   1.993  52.442  1.00  0.00     0.141 A 
HETATM    8  N2  UNL     1      21.948   1.147  52.212  1.00  0.00    -0.224 NA
HETATM    9  C5  UNL     1      22.011  -0.156  52.524  1.00  0.00     0.236 A 
HETATM   10  N1  UNL     1      23.115  -0.672  53.087  1.00  0.00    -0.241 NA
HETATM   11  C4  UNL     1      24.180   0.089  53.355  1.00  0.00     0.075 A 
HETATM   12  C3  UNL     1      25.294  -0.487  53.939  1.00  0.00     0.072 A 
HETATM   13  C19 UNL     1      24.095   1.428  53.026  1.00  0.00     0.041 A 
HETATM   14  C2  UNL     1      26.376   0.331  54.205  1.00  0.00     0.103 A 
HETATM   15  C21 UNL     1      26.363   1.689  53.903  1.00  0.00     0.102 A 
HETATM   16  C20 UNL     1      25.213   2.178  53.322  1.00  0.00     0.057 A 
BRANCH  14  17
HETATM   17  O1  UNL     1      27.482  -0.263  54.791  1.00  0.00    -0.353 OA
HETATM   18  C1  UNL     1      28.463  -0.861  53.965  1.00  0.00     0.210 C 
ENDBRANCH  14  17
BRANCH  15  19
HETATM   19  O2  UNL     1      27.500   2.370  54.222  1.00  0.00    -0.353 OA
HETATM   20  C22 UNL     1      28.513   2.565  53.258  1.00  0.00     0.210 C 
ENDBRANCH  15  19
ENDBRANCH   1   7
BRANCH   6  21
HETATM   21  C11 UNL     1      24.286   3.746  50.096  1.00  0.00     0.127 C 
HETATM   22  S1  UNL     1      23.711   2.936  48.772  1.00  0.00    -0.061 SA
BRANCH  21  23
HETATM   23  N5  UNL     1      25.694   3.870  50.264  1.00  0.00    -0.377 N 
HETATM   24  H14 UNL     1      26.043   4.130  51.234  1.00  0.00     0.160 HD
BRANCH  23  25
HETATM   25  C12 UNL     1      26.753   3.703  49.311  1.00  0.00     0.159 C 
BRANCH  25  26
HETATM   26  C13 UNL     1      27.247   5.004  48.738  1.00  0.00    -0.041 A 
HETATM   27  C14 UNL     1      28.573   5.153  48.381  1.00  0.00     0.009 A 
HETATM   28  C15 UNL     1      29.074   6.347  47.845  1.00  0.00     0.001 A 
HETATM   29  C16 UNL     1      28.198   7.423  47.667  1.00  0.00     0.000 A 
HETATM   30  C17 UNL     1      26.865   7.272  48.026  1.00  0.00     0.001 A 
HETATM   31  C18 UNL     1      26.395   6.076  48.555  1.00  0.00     0.009 A 
ENDBRANCH  25  26
ENDBRANCH  23  25
ENDBRANCH  21  23
ENDBRANCH   6  21
TORSDOF 7
ENDMDL
MODEL 2
REMARK VINA RESULT:      -7.9      2.085      2.960
REMARK  7 active torsions:
REMARK  status: ('A' for Active; 'I' for Inactive)
REMARK    1  A    between atoms: O1_2  and  C2_3 
REMARK    2  A    between atoms: C6_9  and  N3_10 
REMARK    3  A    between atoms: C10_15  and  C11_16 
REMARK    4  A    between atoms: C11_16  and  N5_18 
REMARK    5  A    between atoms: N5_18  and  C12_19 
REMARK    6  A    between atoms: C12_19  and  C13_20 
REMARK    7  A    between atoms: C21_28  and  O2_29 
ROOT
HETATM    1  N3  UNL     1      21.892   1.765  50.225  1.00  0.00    -0.328 N 
HETATM    2  C7  UNL     1      21.592   1.178  48.911  1.00  0.00     0.157 C 
HETATM    3  C8  UNL     1      20.617   2.247  48.396  1.00  0.00     0.295 C 
HETATM    4  N4  UNL     1      21.385   3.424  48.658  1.00  0.00     0.115 N 
HETATM    5  C9  UNL     1      22.067   3.969  47.517  1.00  0.00     0.313 C 
HETATM    6  C10 UNL     1      22.280   3.076  49.747  1.00  0.00     0.387 C 
ENDROOT
BRANCH   1   7
HETATM    7  C6  UNL     1      21.762   1.029  51.458  1.00  0.00     0.141 A 
HETATM    8  N2  UNL     1      20.585   0.694  52.012  1.00  0.00    -0.224 NA
HETATM    9  C5  UNL     1      20.500   0.006  53.160  1.00  0.00     0.236 A 
HETATM   10  N1  UNL     1      21.610  -0.381  53.809  1.00  0.00    -0.241 NA
HETATM   11  C4  UNL     1      22.827  -0.096  53.337  1.00  0.00     0.075 A 
HETATM   12  C3  UNL     1      23.941  -0.513  54.043  1.00  0.00     0.072 A 
HETATM   13  C19 UNL     1      22.892   0.613  52.154  1.00  0.00     0.041 A 
HETATM   14  C2  UNL     1      25.184  -0.197  53.527  1.00  0.00     0.103 A 
HETATM   15  C21 UNL     1      25.329   0.516  52.342  1.00  0.00     0.102 A 
HETATM   16  C20 UNL     1      24.165   0.891  51.704  1.00  0.00     0.057 A 
BRANCH  14  17
HETATM   17  O1  UNL     1      26.288  -0.622  54.248  1.00  0.00    -0.353 OA
HETATM   18  C1  UNL     1      26.677   0.096  55.404  1.00  0.00     0.210 C 
ENDBRANCH  14  17
BRANCH  15  19
HETATM   19  O2  UNL     1      26.614   0.756  51.956  1.00  0.00    -0.353 OA
HETATM   20  C22 UNL     1      27.283   1.926  52.377  1.00  0.00     0.210 C 
ENDBRANCH  15  19
ENDBRANCH   1   7
BRANCH   6  21
HETATM   21  C11 UNL     1      22.185   4.140  50.780  1.00  0.00     0.127 C 
HETATM   22  S1  UNL     1      20.665   4.569  51.276  1.00  0.00    -0.061 SA
BRANCH  21  23
HETATM   23  N5  UNL     1      23.305   4.801  51.360  1.00  0.00    -0.377 N 
HETATM   24  H14 UNL     1      23.667   4.416  52.283  1.00  0.00     0.160 HD
BRANCH  23  25
HETATM   25  C12 UNL     1      24.046   5.937  50.894  1.00  0.00     0.159 C 
BRANCH  25  26
HETATM   26  C13 UNL     1      25.266   5.564  50.096  1.00  0.00    -0.041 A 
HETATM   27  C14 UNL     1      25.950   6.521  49.373  1.00  0.00     0.009 A 
HETATM   28  C15 UNL     1      27.090   6.216  48.617  1.00  0.00     0.001 A 
HETATM   29  C16 UNL     1      27.548   4.894  48.596  1.00  0.00     0.000 A 
HETATM   30  C17 UNL     1      26.860   3.932  49.323  1.00  0.00     0.001 A 
HETATM   31  C18 UNL     1      25.733   4.263  50.066  1.00  0.00     0.009 A 
ENDBRANCH  25  26
ENDBRANCH  23  25
ENDBRANCH  21  23
ENDBRANCH   6  21
TORSDOF 7
ENDMDL
MODEL 3
REMARK VINA RESULT:      -7.9      3.796      6.100
REMARK  7 active torsions:
REMARK  status: ('A' for Active; 'I' for Inactive)
REMARK    1  A    between atoms: O1_2  and  C2_3 
REMARK    2  A    between atoms: C6_9  and  N3_10 
REMARK    3  A    between atoms: C10_15  and  C11_16 
REMARK    4  A    between atoms: C11_16  and  N5_18 
REMARK    5  A    between atoms: N5_18  and  C12_19 
REMARK    6  A    between atoms: C12_19  and  C13_20 
REMARK    7  A    between atoms: C21_28  and  O2_29 
ROOT
HETATM    1  N3  UNL     1      22.837   1.649  50.907  1.00  0.00    -0.328 N 
HETATM    2  C7  UNL     1      21.977   1.565  49.718  1.00  0.00     0.157 C 
HETATM    3  C8  UNL     1      21.454   3.009  49.707  1.00  0.00     0.295 C 
HETATM    4  N4  UNL     1      22.691   3.717  49.827  1.00  0.00     0.115 N 
HETATM    5  C9  UNL     1      23.209   4.246  48.596  1.00  0.00     0.313 C 
HETATM    6  C10 UNL     1      23.605   2.802  50.487  1.00  0.00     0.387 C 
ENDROOT
BRANCH   1   7
HETATM    7  C6  UNL     1      22.739   0.723  52.009  1.00  0.00     0.141 A 
HETATM    8  N2  UNL     1      23.796   0.266  52.700  1.00  0.00    -0.224 NA
HETATM    9  C5  UNL     1      23.670  -0.593  53.723  1.00  0.00     0.236 A 
HETATM   10  N1  UNL     1      22.458  -1.035  54.099  1.00  0.00    -0.241 NA
HETATM   11  C4  UNL     1      21.348  -0.638  53.472  1.00  0.00     0.075 A 
HETATM   12  C3  UNL     1      20.123  -1.123  53.894  1.00  0.00     0.072 A 
HETATM   13  C19 UNL     1      21.500   0.247  52.423  1.00  0.00     0.041 A 
HETATM   14  C2  UNL     1      18.995  -0.693  53.220  1.00  0.00     0.103 A 
HETATM   15  C21 UNL     1      19.069   0.196  52.153  1.00  0.00     0.102 A 
HETATM   16  C20 UNL     1      20.331   0.629  51.801  1.00  0.00     0.057 A 
BRANCH  14  17
HETATM   17  O1  UNL     1      17.777  -1.190  53.656  1.00  0.00    -0.353 OA
HETATM   18  C1  UNL     1      17.497  -2.568  53.496  1.00  0.00     0.210 C 
ENDBRANCH  14  17
BRANCH  15  19
HETATM   19  O2  UNL     1      17.876   0.530  51.585  1.00  0.00    -0.353 OA
HETATM   20  C22 UNL     1      17.506  -0.001  50.330  1.00  0.00     0.210 C 
ENDBRANCH  15  19
ENDBRANCH   1   7
BRANCH   6  21
HETATM   21  C11 UNL     1      24.253   3.528  51.611  1.00  0.00     0.127 C 
HETATM   22  S1  UNL     1      23.449   4.840  52.219  1.00  0.00    -0.061 SA
BRANCH  21  23
HETATM   23  N5  UNL     1      25.505   3.167  52.185  1.00  0.00    -0.377 N 
HETATM   24  H14 UNL     1      25.648   3.397  53.214  1.00  0.00     0.160 HD
BRANCH  23  25
HETATM   25  C12 UNL     1      26.643   2.529  51.588  1.00  0.00     0.159 C 
BRANCH  25  26
HETATM   26  C13 UNL     1      27.456   1.727  52.567  1.00  0.00    -0.041 A 
HETATM   27  C14 UNL     1      28.397   2.344  53.367  1.00  0.00     0.009 A 
HETATM   28  C15 UNL     1      29.177   1.634  54.290  1.00  0.00     0.001 A 
HETATM   29  C16 UNL     1      28.992   0.252  54.403  1.00  0.00     0.000 A 
HETATM   30  C17 UNL     1      28.045  -0.368  53.599  1.00  0.00     0.001 A 
HETATM   31  C18 UNL     1      27.285   0.361  52.692  1.00  0.00     0.009 A 
ENDBRANCH  25  26
ENDBRANCH  23  25
ENDBRANCH  21  23
ENDBRANCH   6  21
TORSDOF 7
ENDMDL
MODEL 4
REMARK VINA RESULT:      -7.6      2.310      4.228
REMARK  7 active torsions:
REMARK  status: ('A' for Active; 'I' for Inactive)
REMARK    1  A    between atoms: O1_2  and  C2_3 
REMARK    2  A    between atoms: C6_9  and  N3_10 
REMARK    3  A    between atoms: C10_15  and  C11_16 
REMARK    4  A    between atoms: C11_16  and  N5_18 
REMARK    5  A    between atoms: N5_18  and  C12_19 
REMARK    6  A    between atoms: C12_19  and  C13_20 
REMARK    7  A    between atoms: C21_28  and  O2_29 
ROOT
HETATM    1  N3  UNL     1      22.800   2.945  49.505  1.00  0.00    -0.328 N 
HETATM    2  C7  UNL     1      22.344   2.086  48.403  1.00  0.00     0.157 C 
HETATM    3  C8  UNL     1      21.173   1.394  49.117  1.00  0.00     0.295 C 
HETATM    4  N4  UNL     1      20.503   2.539  49.650  1.00  0.00     0.115 N 
HETATM    5  C9  UNL     1      19.357   2.974  48.902  1.00  0.00     0.313 C 
HETATM    6  C10 UNL     1      21.522   3.564  49.786  1.00  0.00     0.387 C 
ENDROOT
BRANCH   1   7
HETATM    7  C6  UNL     1      24.169   2.972  49.959  1.00  0.00     0.141 A 
HETATM    8  N2  UNL     1      25.126   3.738  49.411  1.00  0.00    -0.224 NA
HETATM    9  C5  UNL     1      26.390   3.742  49.860  1.00  0.00     0.236 A 
HETATM   10  N1  UNL     1      26.751   2.964  50.894  1.00  0.00    -0.241 NA
HETATM   11  C4  UNL     1      25.870   2.166  51.504  1.00  0.00     0.075 A 
HETATM   12  C3  UNL     1      26.289   1.381  52.563  1.00  0.00     0.072 A 
HETATM   13  C19 UNL     1      24.574   2.179  51.027  1.00  0.00     0.041 A 
HETATM   14  C2  UNL     1      25.352   0.565  53.168  1.00  0.00     0.103 A 
HETATM   15  C21 UNL     1      24.028   0.522  52.742  1.00  0.00     0.102 A 
HETATM   16  C20 UNL     1      23.698   1.340  51.681  1.00  0.00     0.057 A 
BRANCH  14  17
HETATM   17  O1  UNL     1      25.790  -0.215  54.227  1.00  0.00    -0.353 OA
HETATM   18  C1  UNL     1      26.945   0.178  54.943  1.00  0.00     0.210 C 
ENDBRANCH  14  17
BRANCH  15  19
HETATM   19  O2  UNL     1      23.217  -0.328  53.433  1.00  0.00    -0.353 OA
HETATM   20  C22 UNL     1      21.841  -0.411  53.129  1.00  0.00     0.210 C 
ENDBRANCH  15  19
ENDBRANCH   1   7
BRANCH   6  21
HETATM   21  C11 UNL     1      21.424   4.135  51.155  1.00  0.00     0.127 C 
HETATM   22  S1  UNL     1      20.666   3.210  52.300  1.00  0.00    -0.061 SA
BRANCH  21  23
HETATM   23  N5  UNL     1      21.934   5.409  51.533  1.00  0.00    -0.377 N 
HETATM   24  H14 UNL     1      22.348   5.493  52.509  1.00  0.00     0.160 HD
BRANCH  23  25
HETATM   25  C12 UNL     1      21.980   6.639  50.796  1.00  0.00     0.159 C 
BRANCH  25  26
HETATM   26  C13 UNL     1      23.294   6.866  50.100  1.00  0.00    -0.041 A 
HETATM   27  C14 UNL     1      24.434   7.139  50.829  1.00  0.00     0.009 A 
HETATM   28  C15 UNL     1      25.678   7.357  50.221  1.00  0.00     0.001 A 
HETATM   29  C16 UNL     1      25.763   7.296  48.826  1.00  0.00     0.000 A 
HETATM   30  C17 UNL     1      24.617   7.021  48.093  1.00  0.00     0.001 A 
HETATM   31  C18 UNL     1      23.396   6.808  48.722  1.00  0.00     0.009 A 
ENDBRANCH  25  26
ENDBRANCH  23  25
ENDBRANCH  21  23
ENDBRANCH   6  21
TORSDOF 7
ENDMDL
MODEL 5
REMARK VINA RESULT:      -7.5      3.013      6.566
REMARK  7 active torsions:
REMARK  status: ('A' for Active; 'I' for Inactive)
REMARK    1  A    between atoms: O1_2  and  C2_3 
REMARK    2  A    between atoms: C6_9  and  N3_10 
REMARK    3  A    between atoms: C10_15  and  C11_16 
REMARK    4  A    between atoms: C11_16  and  N5_18 
REMARK    5  A    between atoms: N5_18  and  C12_19 
REMARK    6  A    between atoms: C12_19  and  C13_20 
REMARK    7  A    between atoms: C21_28  and  O2_29 
ROOT
HETATM    1  N3  UNL     1      21.664   2.681  51.876  1.00  0.00    -0.328 N 
HETATM    2  C7  UNL     1      21.999   4.059  52.262  1.00  0.00     0.157 C 
HETATM    3  C8  UNL     1      22.624   4.526  50.939  1.00  0.00     0.295 C 
HETATM    4  N4  UNL     1      21.603   4.111  50.028  1.00  0.00     0.115 N 
HETATM    5  C9  UNL     1      20.716   5.156  49.596  1.00  0.00     0.313 C 
HETATM    6  C10 UNL     1      20.916   3.011  50.681  1.00  0.00     0.387 C 
ENDROOT
BRANCH   1   7
HETATM    7  C6  UNL     1      22.074   1.532  52.645  1.00  0.00     0.141 A 
HETATM    8  N2  UNL     1      21.249   0.822  53.432  1.00  0.00    -0.224 NA
HETATM    9  C5  UNL     1      21.663  -0.245  54.132  1.00  0.00     0.236 A 
HETATM   10  N1  UNL     1      22.943  -0.648  54.070  1.00  0.00    -0.241 NA
HETATM   11  C4  UNL     1      23.839  -0.006  53.316  1.00  0.00     0.075 A 
HETATM   12  C3  UNL     1      25.146  -0.458  53.287  1.00  0.00     0.072 A 
HETATM   13  C19 UNL     1      23.391   1.088  52.603  1.00  0.00     0.041 A 
HETATM   14  C2  UNL     1      26.047   0.233  52.498  1.00  0.00     0.103 A 
HETATM   15  C21 UNL     1      25.671   1.346  51.753  1.00  0.00     0.102 A 
HETATM   16  C20 UNL     1      24.347   1.724  51.840  1.00  0.00     0.057 A 
BRANCH  14  17
HETATM   17  O1  UNL     1      27.352  -0.233  52.482  1.00  0.00    -0.353 OA
HETATM   18  C1  UNL     1      28.172  -0.029  53.617  1.00  0.00     0.210 C 
ENDBRANCH  14  17
BRANCH  15  19
HETATM   19  O2  UNL     1      26.665   1.925  51.023  1.00  0.00    -0.353 OA
HETATM   20  C22 UNL     1      26.419   3.102  50.284  1.00  0.00     0.210 C 
ENDBRANCH  15  19
ENDBRANCH   1   7
BRANCH   6  21
HETATM   21  C11 UNL     1      20.816   1.889  49.711  1.00  0.00     0.127 C 
HETATM   22  S1  UNL     1      22.034   1.749  48.599  1.00  0.00    -0.061 SA
BRANCH  21  23
HETATM   23  N5  UNL     1      19.752   0.943  49.683  1.00  0.00    -0.377 N 
HETATM   24  H14 UNL     1      20.016  -0.074  49.513  1.00  0.00     0.160 HD
BRANCH  23  25
HETATM   25  C12 UNL     1      18.341   1.139  49.845  1.00  0.00     0.159 C 
BRANCH  25  26
HETATM   26  C13 UNL     1      17.710   0.160  50.797  1.00  0.00    -0.041 A 
HETATM   27  C14 UNL     1      18.385  -0.249  51.930  1.00  0.00     0.009 A 
HETATM   28  C15 UNL     1      17.834  -1.161  52.841  1.00  0.00     0.001 A 
HETATM   29  C16 UNL     1      16.556  -1.671  52.591  1.00  0.00     0.000 A 
HETATM   30  C17 UNL     1      15.878  -1.260  51.452  1.00  0.00     0.001 A 
HETATM   31  C18 UNL     1      16.448  -0.354  50.564  1.00  0.00     0.009 A 
ENDBRANCH  25  26
ENDBRANCH  23  25
ENDBRANCH  21  23
ENDBRANCH   6  21
TORSDOF 7
ENDMDL
MODEL 6
REMARK VINA RESULT:      -7.5      2.868      4.280
REMARK  7 active torsions:
REMARK  status: ('A' for Active; 'I' for Inactive)
REMARK    1  A    between atoms: O1_2  and  C2_3 
REMARK    2  A    between atoms: C6_9  and  N3_10 
REMARK    3  A    between atoms: C10_15  and  C11_16 
REMARK    4  A    between atoms: C11_16  and  N5_18 
REMARK    5  A    between atoms: N5_18  and  C12_19 
REMARK    6  A    between atoms: C12_19  and  C13_20 
REMARK    7  A    between atoms: C21_28  and  O2_29 
ROOT
HETATM    1  N3  UNL     1      22.741   3.468  51.393  1.00  0.00    -0.328 N 
HETATM    2  C7  UNL     1      22.316   4.692  52.086  1.00  0.00     0.157 C 
HETATM    3  C8  UNL     1      21.286   5.194  51.063  1.00  0.00     0.295 C 
HETATM    4  N4  UNL     1      20.523   3.998  50.881  1.00  0.00     0.115 N 
HETATM    5  C9  UNL     1      19.286   3.952  51.609  1.00  0.00     0.313 C 
HETATM    6  C10 UNL     1      21.421   2.905  51.206  1.00  0.00     0.387 C 
ENDROOT
BRANCH   1   7
HETATM    7  C6  UNL     1      24.125   3.165  51.119  1.00  0.00     0.141 A 
HETATM    8  N2  UNL     1      24.899   3.882  50.288  1.00  0.00    -0.224 NA
HETATM    9  C5  UNL     1      26.184   3.574  50.057  1.00  0.00     0.236 A 
HETATM   10  N1  UNL     1      26.753   2.518  50.660  1.00  0.00    -0.241 NA
HETATM   11  C4  UNL     1      26.064   1.744  51.504  1.00  0.00     0.075 A 
HETATM   12  C3  UNL     1      26.692   0.665  52.099  1.00  0.00     0.072 A 
HETATM   13  C19 UNL     1      24.743   2.079  51.727  1.00  0.00     0.041 A 
HETATM   14  C2  UNL     1      25.948  -0.116  52.963  1.00  0.00     0.103 A 
HETATM   15  C21 UNL     1      24.612   0.158  53.237  1.00  0.00     0.102 A 
HETATM   16  C20 UNL     1      24.067   1.254  52.601  1.00  0.00     0.057 A 
BRANCH  14  17
HETATM   17  O1  UNL     1      26.594  -1.193  53.549  1.00  0.00    -0.353 OA
HETATM   18  C1  UNL     1      27.201  -2.167  52.722  1.00  0.00     0.210 C 
ENDBRANCH  14  17
BRANCH  15  19
HETATM   19  O2  UNL     1      24.005  -0.697  54.107  1.00  0.00    -0.353 OA
HETATM   20  C22 UNL     1      22.605  -0.880  54.074  1.00  0.00     0.210 C 
ENDBRANCH  15  19
ENDBRANCH   1   7
BRANCH   6  21
HETATM   21  C11 UNL     1      21.348   1.905  50.108  1.00  0.00     0.127 C 
HETATM   22  S1  UNL     1      21.326   0.310  50.547  1.00  0.00    -0.061 SA
BRANCH  21  23
HETATM   23  N5  UNL     1      21.297   2.235  48.723  1.00  0.00    -0.377 N 
HETATM   24  H14 UNL     1      20.333   2.380  48.298  1.00  0.00     0.160 HD
BRANCH  23  25
HETATM   25  C12 UNL     1      22.361   2.402  47.777  1.00  0.00     0.159 C 
BRANCH  25  26
HETATM   26  C13 UNL     1      22.296   3.710  47.035  1.00  0.00    -0.041 A 
HETATM   27  C14 UNL     1      22.649   4.888  47.661  1.00  0.00     0.009 A 
HETATM   28  C15 UNL     1      22.602   6.127  47.006  1.00  0.00     0.001 A 
HETATM   29  C16 UNL     1      22.182   6.166  45.673  1.00  0.00     0.000 A 
HETATM   30  C17 UNL     1      21.827   4.981  45.044  1.00  0.00     0.001 A 
HETATM   31  C18 UNL     1      21.884   3.766  45.716  1.00  0.00     0.009 A 
ENDBRANCH  25  26
ENDBRANCH  23  25
ENDBRANCH  21  23
ENDBRANCH   6  21
TORSDOF 7
ENDMDL
MODEL 7
REMARK VINA RESULT:      -7.5      2.845      6.674
REMARK  7 active torsions:
REMARK  status: ('A' for Active; 'I' for Inactive)
REMARK    1  A    between atoms: O1_2  and  C2_3 
REMARK    2  A    between atoms: C6_9  and  N3_10 
REMARK    3  A    between atoms: C10_15  and  C11_16 
REMARK    4  A    between atoms: C11_16  and  N5_18 
REMARK    5  A    between atoms: N5_18  and  C12_19 
REMARK    6  A    between atoms: C12_19  and  C13_20 
REMARK    7  A    between atoms: C21_28  and  O2_29 
ROOT
HETATM    1  N3  UNL     1      22.867   3.562  51.387  1.00  0.00    -0.328 N 
HETATM    2  C7  UNL     1      22.437   4.838  51.974  1.00  0.00     0.157 C 
HETATM    3  C8  UNL     1      21.402   5.245  50.914  1.00  0.00     0.295 C 
HETATM    4  N4  UNL     1      20.645   4.035  50.836  1.00  0.00     0.115 N 
HETATM    5  C9  UNL     1      19.409   4.044  51.568  1.00  0.00     0.313 C 
HETATM    6  C10 UNL     1      21.549   2.977  51.252  1.00  0.00     0.387 C 
ENDROOT
BRANCH   1   7
HETATM    7  C6  UNL     1      24.251   3.243  51.137  1.00  0.00     0.141 A 
HETATM    8  N2  UNL     1      25.052   3.961  50.332  1.00  0.00    -0.224 NA
HETATM    9  C5  UNL     1      26.338   3.638  50.123  1.00  0.00     0.236 A 
HETATM   10  N1  UNL     1      26.880   2.566  50.723  1.00  0.00    -0.241 NA
HETATM   11  C4  UNL     1      26.163   1.790  51.541  1.00  0.00     0.075 A 
HETATM   12  C3  UNL     1      26.764   0.694  52.133  1.00  0.00     0.072 A 
HETATM   13  C19 UNL     1      24.842   2.140  51.742  1.00  0.00     0.041 A 
HETATM   14  C2  UNL     1      25.992  -0.088  52.970  1.00  0.00     0.103 A 
HETATM   15  C21 UNL     1      24.654   0.201  53.221  1.00  0.00     0.102 A 
HETATM   16  C20 UNL     1      24.137   1.312  52.589  1.00  0.00     0.057 A 
BRANCH  14  17
HETATM   17  O1  UNL     1      26.611  -1.182  53.554  1.00  0.00    -0.353 OA
HETATM   18  C1  UNL     1      27.216  -2.156  52.726  1.00  0.00     0.210 C 
ENDBRANCH  14  17
BRANCH  15  19
HETATM   19  O2  UNL     1      24.018  -0.658  54.067  1.00  0.00    -0.353 OA
HETATM   20  C22 UNL     1      22.608  -0.669  54.150  1.00  0.00     0.210 C 
ENDBRANCH  15  19
ENDBRANCH   1   7
BRANCH   6  21
HETATM   21  C11 UNL     1      21.480   1.887  50.244  1.00  0.00     0.127 C 
HETATM   22  S1  UNL     1      22.088   2.218  48.740  1.00  0.00    -0.061 SA
BRANCH  21  23
HETATM   23  N5  UNL     1      20.931   0.597  50.491  1.00  0.00    -0.377 N 
HETATM   24  H14 UNL     1      21.048  -0.132  49.725  1.00  0.00     0.160 HD
BRANCH  23  25
HETATM   25  C12 UNL     1      20.219   0.103  51.633  1.00  0.00     0.159 C 
BRANCH  25  26
HETATM   26  C13 UNL     1      18.748  -0.090  51.380  1.00  0.00    -0.041 A 
HETATM   27  C14 UNL     1      17.961  -0.759  52.296  1.00  0.00     0.009 A 
HETATM   28  C15 UNL     1      16.588  -0.961  52.098  1.00  0.00     0.001 A 
HETATM   29  C16 UNL     1      15.999  -0.466  50.930  1.00  0.00     0.000 A 
HETATM   30  C17 UNL     1      16.790   0.206  50.009  1.00  0.00     0.001 A 
HETATM   31  C18 UNL     1      18.149   0.393  50.231  1.00  0.00     0.009 A 
ENDBRANCH  25  26
ENDBRANCH  23  25
ENDBRANCH  21  23
ENDBRANCH   6  21
TORSDOF 7
ENDMDL
MODEL 8
REMARK VINA RESULT:      -7.4      3.095      4.997
REMARK  7 active torsions:
REMARK  status: ('A' for Active; 'I' for Inactive)
REMARK    1  A    between atoms: O1_2  and  C2_3 
REMARK    2  A    between atoms: C6_9  and  N3_10 
REMARK    3  A    between atoms: C10_15  and  C11_16 
REMARK    4  A    between atoms: C11_16  and  N5_18 
REMARK    5  A    between atoms: N5_18  and  C12_19 
REMARK    6  A    between atoms: C12_19  and  C13_20 
REMARK    7  A    between atoms: C21_28  and  O2_29 
ROOT
HETATM    1  N3  UNL     1      19.750   2.599  51.057  1.00  0.00    -0.328 N 
HETATM    2  C7  UNL     1      18.783   2.098  52.044  1.00  0.00     0.157 C 
HETATM    3  C8  UNL     1      17.487   2.428  51.287  1.00  0.00     0.295 C 
HETATM    4  N4  UNL     1      17.795   1.853  50.015  1.00  0.00     0.115 N 
HETATM    5  C9  UNL     1      17.214   0.560  49.777  1.00  0.00     0.313 C 
HETATM    6  C10 UNL     1      19.244   1.856  49.922  1.00  0.00     0.387 C 
ENDROOT
BRANCH   1   7
HETATM    7  C6  UNL     1      20.794   3.536  51.391  1.00  0.00     0.141 A 
HETATM    8  N2  UNL     1      20.710   4.860  51.177  1.00  0.00    -0.224 NA
HETATM    9  C5  UNL     1      21.700   5.705  51.503  1.00  0.00     0.236 A 
HETATM   10  N1  UNL     1      22.831   5.250  52.066  1.00  0.00    -0.241 NA
HETATM   11  C4  UNL     1      23.007   3.950  52.318  1.00  0.00     0.075 A 
HETATM   12  C3  UNL     1      24.191   3.528  52.896  1.00  0.00     0.072 A 
HETATM   13  C19 UNL     1      21.976   3.097  51.975  1.00  0.00     0.041 A 
HETATM   14  C2  UNL     1      24.341   2.176  53.139  1.00  0.00     0.103 A 
HETATM   15  C21 UNL     1      23.347   1.255  52.820  1.00  0.00     0.102 A 
HETATM   16  C20 UNL     1      22.200   1.765  52.248  1.00  0.00     0.057 A 
BRANCH  14  17
HETATM   17  O1  UNL     1      25.533   1.771  53.718  1.00  0.00    -0.353 OA
HETATM   18  C1  UNL     1      26.710   1.750  52.933  1.00  0.00     0.210 C 
ENDBRANCH  14  17
BRANCH  15  19
HETATM   19  O2  UNL     1      23.634  -0.044  53.117  1.00  0.00    -0.353 OA
HETATM   20  C22 UNL     1      22.602  -0.947  53.452  1.00  0.00     0.210 C 
ENDBRANCH  15  19
ENDBRANCH   1   7
BRANCH   6  21
HETATM   21  C11 UNL     1      19.621   2.441  48.609  1.00  0.00     0.127 C 
HETATM   22  S1  UNL     1      18.617   3.602  47.990  1.00  0.00    -0.061 SA
BRANCH  21  23
HETATM   23  N5  UNL     1      20.777   2.069  47.864  1.00  0.00    -0.377 N 
HETATM   24  H14 UNL     1      20.659   1.962  46.813  1.00  0.00     0.160 HD
BRANCH  23  25
HETATM   25  C12 UNL     1      22.113   1.801  48.312  1.00  0.00     0.159 C 
BRANCH  25  26
HETATM   26  C13 UNL     1      22.941   3.045  48.488  1.00  0.00    -0.041 A 
HETATM   27  C14 UNL     1      22.495   4.257  48.002  1.00  0.00     0.009 A 
HETATM   28  C15 UNL     1      23.236   5.439  48.145  1.00  0.00     0.001 A 
HETATM   29  C16 UNL     1      24.468   5.384  48.803  1.00  0.00     0.000 A 
HETATM   30  C17 UNL     1      24.916   4.164  49.292  1.00  0.00     0.001 A 
HETATM   31  C18 UNL     1      24.161   3.007  49.137  1.00  0.00     0.009 A 
ENDBRANCH  25  26
ENDBRANCH  23  25
ENDBRANCH  21  23
ENDBRANCH   6  21
TORSDOF 7
ENDMDL
MODEL 9
REMARK VINA RESULT:      -7.3      3.381      7.036
REMARK  7 active torsions:
REMARK  status: ('A' for Active; 'I' for Inactive)
REMARK    1  A    between atoms: O1_2  and  C2_3 
REMARK    2  A    between atoms: C6_9  and  N3_10 
REMARK    3  A    between atoms: C10_15  and  C11_16 
REMARK    4  A    between atoms: C11_16  and  N5_18 
REMARK    5  A    between atoms: N5_18  and  C12_19 
REMARK    6  A    between atoms: C12_19  and  C13_20 
REMARK    7  A    between atoms: C21_28  and  O2_29 
ROOT
HETATM    1  N3  UNL     1      22.973   4.146  49.063  1.00  0.00    -0.328 N 
HETATM    2  C7  UNL     1      22.263   3.229  48.161  1.00  0.00     0.157 C 
HETATM    3  C8  UNL     1      21.250   2.655  49.163  1.00  0.00     0.295 C 
HETATM    4  N4  UNL     1      20.748   3.871  49.725  1.00  0.00     0.115 N 
HETATM    5  C9  UNL     1      19.484   4.305  49.199  1.00  0.00     0.313 C 
HETATM    6  C10 UNL     1      21.806   4.850  49.552  1.00  0.00     0.387 C 
ENDROOT
BRANCH   1   7
HETATM    7  C6  UNL     1      24.408   4.139  49.215  1.00  0.00     0.141 A 
HETATM    8  N2  UNL     1      25.102   3.112  49.733  1.00  0.00    -0.224 NA
HETATM    9  C5  UNL     1      26.437   3.136  49.858  1.00  0.00     0.236 A 
HETATM   10  N1  UNL     1      27.142   4.208  49.461  1.00  0.00    -0.241 NA
HETATM   11  C4  UNL     1      26.541   5.279  48.934  1.00  0.00     0.075 A 
HETATM   12  C3  UNL     1      27.308   6.361  48.543  1.00  0.00     0.072 A 
HETATM   13  C19 UNL     1      25.166   5.233  48.814  1.00  0.00     0.041 A 
HETATM   14  C2  UNL     1      26.653   7.452  48.004  1.00  0.00     0.103 A 
HETATM   15  C21 UNL     1      25.270   7.480  47.853  1.00  0.00     0.102 A 
HETATM   16  C20 UNL     1      24.585   6.358  48.269  1.00  0.00     0.057 A 
BRANCH  14  17
HETATM   17  O1  UNL     1      27.438   8.528  47.619  1.00  0.00    -0.353 OA
HETATM   18  C1  UNL     1      28.845   8.382  47.597  1.00  0.00     0.210 C 
ENDBRANCH  14  17
BRANCH  15  19
HETATM   19  O2  UNL     1      24.763   8.622  47.309  1.00  0.00    -0.353 OA
HETATM   20  C22 UNL     1      23.972   9.496  48.085  1.00  0.00     0.210 C 
ENDBRANCH  15  19
ENDBRANCH   1   7
BRANCH   6  21
HETATM   21  C11 UNL     1      22.023   5.530  50.856  1.00  0.00     0.127 C 
HETATM   22  S1  UNL     1      21.987   7.185  50.854  1.00  0.00    -0.061 SA
BRANCH  21  23
HETATM   23  N5  UNL     1      22.256   4.853  52.087  1.00  0.00    -0.377 N 
HETATM   24  H14 UNL     1      21.400   4.515  52.621  1.00  0.00     0.160 HD
BRANCH  23  25
HETATM   25  C12 UNL     1      23.490   4.546  52.750  1.00  0.00     0.159 C 
BRANCH  25  26
HETATM   26  C13 UNL     1      23.766   3.069  52.837  1.00  0.00    -0.041 A 
HETATM   27  C14 UNL     1      24.981   2.610  53.305  1.00  0.00     0.009 A 
HETATM   28  C15 UNL     1      25.278   1.243  53.402  1.00  0.00     0.001 A 
HETATM   29  C16 UNL     1      24.308   0.316  53.010  1.00  0.00     0.000 A 
HETATM   30  C17 UNL     1      23.086   0.778  52.540  1.00  0.00     0.001 A 
HETATM   31  C18 UNL     1      22.817   2.139  52.455  1.00  0.00     0.009 A 
ENDBRANCH  25  26
ENDBRANCH  23  25
ENDBRANCH  21  23
ENDBRANCH   6  21
TORSDOF 7
ENDMDL
