MODEL 1
REMARK VINA RESULT:      -8.2      0.000      0.000
REMARK  5 active torsions:
REMARK  status: ('A' for Active; 'I' for Inactive)
REMARK    1  A    between atoms: C2_2  and  C3_3 
REMARK    2  A    between atoms: C2_2  and  C5_6 
REMARK    3  A    between atoms: C3_3  and  C4_4 
REMARK    4  A    between atoms: C8_9  and  C9_10 
REMARK       I    between atoms: C9_10  and  N1_12 
REMARK    5  A    between atoms: N1_12  and  C10_13 
ROOT
HETATM    1  C5  UNL     1      20.699  -0.304  53.213  1.00  0.00    -0.054 A 
HETATM    2  C6  UNL     1      21.661   0.202  52.369  1.00  0.00     0.008 A 
HETATM    3  C7  UNL     1      23.019   0.044  52.671  1.00  0.00     0.017 A 
HETATM    4  C8  UNL     1      23.457  -0.608  53.799  1.00  0.00     0.032 A 
HETATM    5  C16 UNL     1      22.458  -1.096  54.613  1.00  0.00     0.017 A 
HETATM    6  C17 UNL     1      21.111  -0.962  54.352  1.00  0.00     0.008 A 
ENDROOT
BRANCH   4   7
HETATM    7  C9  UNL     1      24.884  -0.732  54.046  1.00  0.00     0.256 C 
HETATM    8  O1  UNL     1      25.200  -0.989  55.235  1.00  0.00    -0.267 OA
HETATM    9  N1  UNL     1      25.895  -0.591  53.093  1.00  0.00    -0.322 N 
HETATM   10  H11 UNL     1      25.495  -0.381  52.154  1.00  0.00     0.169 HD
BRANCH   9  11
HETATM   11  C10 UNL     1      27.298  -0.690  53.229  1.00  0.00     0.052 A 
HETATM   12  C11 UNL     1      28.053  -1.835  53.168  1.00  0.00     0.031 A 
HETATM   13  C12 UNL     1      29.422  -1.908  53.304  1.00  0.00     0.002 A 
HETATM   14  C13 UNL     1      30.114  -0.736  53.519  1.00  0.00     0.002 A 
HETATM   15  C14 UNL     1      29.396   0.439  53.587  1.00  0.00     0.021 A 
HETATM   16  C15 UNL     1      28.027   0.454  53.444  1.00  0.00     0.037 A 
HETATM   17 BR1  UNL     1      27.123   2.143  53.554  1.00  0.00    -0.049 Br
ENDBRANCH   9  11
ENDBRANCH   4   7
BRANCH   1  18
HETATM   18  C2  UNL     1      19.258  -0.151  52.918  1.00  0.00     0.015 C 
HETATM   19  C1  UNL     1      18.566  -1.423  53.338  1.00  0.00     0.015 C 
BRANCH  18  20
HETATM   20  C3  UNL     1      19.081   0.178  51.460  1.00  0.00     0.024 C 
BRANCH  20  21
HETATM   21  C4  UNL     1      17.698   0.623  51.119  1.00  0.00     0.115 C 
HETATM   22 CL1  UNL     1      16.896  -0.312  49.874  1.00  0.00    -0.130 Cl
ENDBRANCH  20  21
ENDBRANCH  18  20
ENDBRANCH   1  18
TORSDOF 5
ENDMDL
MODEL 2
REMARK VINA RESULT:      -7.5      3.702      8.242
REMARK  5 active torsions:
REMARK  status: ('A' for Active; 'I' for Inactive)
REMARK    1  A    between atoms: C2_2  and  C3_3 
REMARK    2  A    between atoms: C2_2  and  C5_6 
REMARK    3  A    between atoms: C3_3  and  C4_4 
REMARK    4  A    between atoms: C8_9  and  C9_10 
REMARK       I    between atoms: C9_10  and  N1_12 
REMARK    5  A    between atoms: N1_12  and  C10_13 
ROOT
HETATM    1  C5  UNL     1      26.448   0.952  54.070  1.00  0.00    -0.054 A 
HETATM    2  C6  UNL     1      25.621   1.641  53.212  1.00  0.00     0.008 A 
HETATM    3  C7  UNL     1      24.339   1.157  52.927  1.00  0.00     0.017 A 
HETATM    4  C8  UNL     1      23.845  -0.003  53.474  1.00  0.00     0.032 A 
HETATM    5  C16 UNL     1      24.708  -0.658  54.326  1.00  0.00     0.017 A 
HETATM    6  C17 UNL     1      25.977  -0.216  54.632  1.00  0.00     0.008 A 
ENDROOT
BRANCH   4   7
HETATM    7  C9  UNL     1      22.503  -0.443  53.130  1.00  0.00     0.256 C 
HETATM    8  O1  UNL     1      22.329  -1.687  53.141  1.00  0.00    -0.267 OA
HETATM    9  N1  UNL     1      21.429   0.387  52.798  1.00  0.00    -0.322 N 
HETATM   10  H11 UNL     1      21.711   1.389  52.828  1.00  0.00     0.169 HD
BRANCH   9  11
HETATM   11  C10 UNL     1      20.098   0.063  52.451  1.00  0.00     0.052 A 
HETATM   12  C11 UNL     1      19.175  -0.582  53.236  1.00  0.00     0.031 A 
HETATM   13  C12 UNL     1      17.881  -0.888  52.875  1.00  0.00     0.002 A 
HETATM   14  C13 UNL     1      17.456  -0.519  51.617  1.00  0.00     0.002 A 
HETATM   15  C14 UNL     1      18.350   0.132  50.795  1.00  0.00     0.021 A 
HETATM   16  C15 UNL     1      19.633   0.413  51.206  1.00  0.00     0.037 A 
HETATM   17 BR1  UNL     1      20.799   1.323  49.984  1.00  0.00    -0.049 Br
ENDBRANCH   9  11
ENDBRANCH   4   7
BRANCH   1  18
HETATM   18  C2  UNL     1      27.807   1.440  54.388  1.00  0.00     0.015 C 
HETATM   19  C1  UNL     1      28.319   2.187  53.184  1.00  0.00     0.015 C 
BRANCH  18  20
HETATM   20  C3  UNL     1      28.672   0.276  54.791  1.00  0.00     0.024 C 
BRANCH  20  21
HETATM   21  C4  UNL     1      29.543  -0.221  53.684  1.00  0.00     0.115 C 
HETATM   22 CL1  UNL     1      29.415  -1.934  53.343  1.00  0.00    -0.130 Cl
ENDBRANCH  20  21
ENDBRANCH  18  20
ENDBRANCH   1  18
TORSDOF 5
ENDMDL
MODEL 3
REMARK VINA RESULT:      -7.4      5.794      8.281
REMARK  5 active torsions:
REMARK  status: ('A' for Active; 'I' for Inactive)
REMARK    1  A    between atoms: C2_2  and  C3_3 
REMARK    2  A    between atoms: C2_2  and  C5_6 
REMARK    3  A    between atoms: C3_3  and  C4_4 
REMARK    4  A    between atoms: C8_9  and  C9_10 
REMARK       I    between atoms: C9_10  and  N1_12 
REMARK    5  A    between atoms: N1_12  and  C10_13 
ROOT
HETATM    1  C5  UNL     1      26.425   5.157  48.954  1.00  0.00    -0.054 A 
HETATM    2  C6  UNL     1      25.088   5.423  49.144  1.00  0.00     0.008 A 
HETATM    3  C7  UNL     1      24.265   4.483  49.777  1.00  0.00     0.017 A 
HETATM    4  C8  UNL     1      24.733   3.274  50.233  1.00  0.00     0.032 A 
HETATM    5  C16 UNL     1      26.076   3.053  50.019  1.00  0.00     0.017 A 
HETATM    6  C17 UNL     1      26.920   3.950  49.401  1.00  0.00     0.008 A 
ENDROOT
BRANCH   4   7
HETATM    7  C9  UNL     1      23.817   2.349  50.880  1.00  0.00     0.256 C 
HETATM    8  O1  UNL     1      22.940   1.853  50.130  1.00  0.00    -0.267 OA
HETATM    9  N1  UNL     1      23.840   1.983  52.227  1.00  0.00    -0.322 N 
HETATM   10  H11 UNL     1      24.614   2.465  52.731  1.00  0.00     0.169 HD
BRANCH   9  11
HETATM   11  C10 UNL     1      23.003   1.102  52.949  1.00  0.00     0.052 A 
HETATM   12  C11 UNL     1      21.660   1.253  53.191  1.00  0.00     0.031 A 
HETATM   13  C12 UNL     1      20.864   0.379  53.899  1.00  0.00     0.002 A 
HETATM   14  C13 UNL     1      21.451  -0.755  54.416  1.00  0.00     0.002 A 
HETATM   15  C14 UNL     1      22.797  -0.949  54.197  1.00  0.00     0.021 A 
HETATM   16  C15 UNL     1      23.547  -0.042  53.482  1.00  0.00     0.037 A 
HETATM   17 BR1  UNL     1      25.414  -0.405  53.232  1.00  0.00    -0.049 Br
ENDBRANCH   9  11
ENDBRANCH   4   7
BRANCH   1  18
HETATM   18  C2  UNL     1      27.316   6.131  48.289  1.00  0.00     0.015 C 
HETATM   19  C1  UNL     1      28.714   5.566  48.315  1.00  0.00     0.015 C 
BRANCH  18  20
HETATM   20  C3  UNL     1      27.192   7.466  48.972  1.00  0.00     0.024 C 
BRANCH  20  21
HETATM   21  C4  UNL     1      26.765   8.562  48.052  1.00  0.00     0.115 C 
HETATM   22 CL1  UNL     1      25.854   8.048  46.646  1.00  0.00    -0.130 Cl
ENDBRANCH  20  21
ENDBRANCH  18  20
ENDBRANCH   1  18
TORSDOF 5
ENDMDL
MODEL 4
REMARK VINA RESULT:      -7.1      6.774      9.385
REMARK  5 active torsions:
REMARK  status: ('A' for Active; 'I' for Inactive)
REMARK    1  A    between atoms: C2_2  and  C3_3 
REMARK    2  A    between atoms: C2_2  and  C5_6 
REMARK    3  A    between atoms: C3_3  and  C4_4 
REMARK    4  A    between atoms: C8_9  and  C9_10 
REMARK       I    between atoms: C9_10  and  N1_12 
REMARK    5  A    between atoms: N1_12  and  C10_13 
ROOT
HETATM    1  C5  UNL     1      27.426   6.297  48.176  1.00  0.00    -0.054 A 
HETATM    2  C6  UNL     1      26.133   6.751  48.298  1.00  0.00     0.008 A 
HETATM    3  C7  UNL     1      25.164   5.959  48.926  1.00  0.00     0.017 A 
HETATM    4  C8  UNL     1      25.442   4.716  49.443  1.00  0.00     0.032 A 
HETATM    5  C16 UNL     1      26.749   4.305  49.296  1.00  0.00     0.017 A 
HETATM    6  C17 UNL     1      27.732   5.053  48.685  1.00  0.00     0.008 A 
ENDROOT
BRANCH   4   7
HETATM    7  C9  UNL     1      24.383   3.952  50.081  1.00  0.00     0.256 C 
HETATM    8  O1  UNL     1      23.344   4.604  50.355  1.00  0.00    -0.267 OA
HETATM    9  N1  UNL     1      24.432   2.593  50.400  1.00  0.00    -0.322 N 
HETATM   10  H11 UNL     1      25.345   2.177  50.119  1.00  0.00     0.169 HD
BRANCH   9  11
HETATM   11  C10 UNL     1      23.467   1.764  51.015  1.00  0.00     0.052 A 
HETATM   12  C11 UNL     1      22.294   1.314  50.463  1.00  0.00     0.031 A 
HETATM   13  C12 UNL     1      21.367   0.505  51.083  1.00  0.00     0.002 A 
HETATM   14  C13 UNL     1      21.624   0.100  52.374  1.00  0.00     0.002 A 
HETATM   15  C14 UNL     1      22.792   0.527  52.969  1.00  0.00     0.021 A 
HETATM   16  C15 UNL     1      23.684   1.336  52.303  1.00  0.00     0.037 A 
HETATM   17 BR1  UNL     1      25.280   1.874  53.221  1.00  0.00    -0.049 Br
ENDBRANCH   9  11
ENDBRANCH   4   7
BRANCH   1  18
HETATM   18  C2  UNL     1      28.469   7.113  47.518  1.00  0.00     0.015 C 
HETATM   19  C1  UNL     1      29.811   6.593  47.968  1.00  0.00     0.015 C 
BRANCH  18  20
HETATM   20  C3  UNL     1      28.244   8.565  47.844  1.00  0.00     0.024 C 
BRANCH  20  21
HETATM   21  C4  UNL     1      28.734   8.948  49.201  1.00  0.00     0.115 C 
HETATM   22 CL1  UNL     1      27.484   9.271  50.385  1.00  0.00    -0.130 Cl
ENDBRANCH  20  21
ENDBRANCH  18  20
ENDBRANCH   1  18
TORSDOF 5
ENDMDL
MODEL 5
REMARK VINA RESULT:      -7.1      6.562      8.252
REMARK  5 active torsions:
REMARK  status: ('A' for Active; 'I' for Inactive)
REMARK    1  A    between atoms: C2_2  and  C3_3 
REMARK    2  A    between atoms: C2_2  and  C5_6 
REMARK    3  A    between atoms: C3_3  and  C4_4 
REMARK    4  A    between atoms: C8_9  and  C9_10 
REMARK       I    between atoms: C9_10  and  N1_12 
REMARK    5  A    between atoms: N1_12  and  C10_13 
ROOT
HETATM    1  C5  UNL     1      25.841   0.948  52.834  1.00  0.00    -0.054 A 
HETATM    2  C6  UNL     1      26.655   1.078  51.731  1.00  0.00     0.008 A 
HETATM    3  C7  UNL     1      26.473   2.146  50.843  1.00  0.00     0.017 A 
HETATM    4  C8  UNL     1      25.498   3.099  51.018  1.00  0.00     0.032 A 
HETATM    5  C16 UNL     1      24.709   2.925  52.134  1.00  0.00     0.017 A 
HETATM    6  C17 UNL     1      24.855   1.890  53.032  1.00  0.00     0.008 A 
ENDROOT
BRANCH   4   7
HETATM    7  C9  UNL     1      25.370   4.178  50.053  1.00  0.00     0.256 C 
HETATM    8  O1  UNL     1      24.472   4.019  49.188  1.00  0.00    -0.267 OA
HETATM    9  N1  UNL     1      26.145   5.340  50.016  1.00  0.00    -0.322 N 
HETATM   10  H11 UNL     1      26.847   5.343  50.786  1.00  0.00     0.169 HD
BRANCH   9  11
HETATM   11  C10 UNL     1      26.102   6.439  49.128  1.00  0.00     0.052 A 
HETATM   12  C11 UNL     1      25.096   7.365  49.011  1.00  0.00     0.031 A 
HETATM   13  C12 UNL     1      25.076   8.430  48.137  1.00  0.00     0.002 A 
HETATM   14  C13 UNL     1      26.156   8.596  47.297  1.00  0.00     0.002 A 
HETATM   15  C14 UNL     1      27.190   7.690  47.380  1.00  0.00     0.021 A 
HETATM   16  C15 UNL     1      27.158   6.643  48.274  1.00  0.00     0.037 A 
HETATM   17 BR1  UNL     1      28.649   5.436  48.310  1.00  0.00    -0.049 Br
ENDBRANCH   9  11
ENDBRANCH   4   7
BRANCH   1  18
HETATM   18  C2  UNL     1      26.011  -0.170  53.787  1.00  0.00     0.015 C 
HETATM   19  C1  UNL     1      24.638  -0.668  54.159  1.00  0.00     0.015 C 
BRANCH  18  20
HETATM   20  C3  UNL     1      26.823   0.300  54.964  1.00  0.00     0.024 C 
BRANCH  20  21
HETATM   21  C4  UNL     1      28.293   0.130  54.771  1.00  0.00     0.115 C 
HETATM   22 CL1  UNL     1      29.155   1.571  54.272  1.00  0.00    -0.130 Cl
ENDBRANCH  20  21
ENDBRANCH  18  20
ENDBRANCH   1  18
TORSDOF 5
ENDMDL
MODEL 6
REMARK VINA RESULT:      -7.1      3.926      8.548
REMARK  5 active torsions:
REMARK  status: ('A' for Active; 'I' for Inactive)
REMARK    1  A    between atoms: C2_2  and  C3_3 
REMARK    2  A    between atoms: C2_2  and  C5_6 
REMARK    3  A    between atoms: C3_3  and  C4_4 
REMARK    4  A    between atoms: C8_9  and  C9_10 
REMARK       I    between atoms: C9_10  and  N1_12 
REMARK    5  A    between atoms: N1_12  and  C10_13 
ROOT
HETATM    1  C5  UNL     1      25.437   0.096  53.102  1.00  0.00    -0.054 A 
HETATM    2  C6  UNL     1      24.618  -0.667  53.903  1.00  0.00     0.008 A 
HETATM    3  C7  UNL     1      23.227  -0.523  53.829  1.00  0.00     0.017 A 
HETATM    4  C8  UNL     1      22.617   0.365  52.976  1.00  0.00     0.032 A 
HETATM    5  C16 UNL     1      23.478   1.106  52.196  1.00  0.00     0.017 A 
HETATM    6  C17 UNL     1      24.851   0.995  52.237  1.00  0.00     0.008 A 
ENDROOT
BRANCH   4   7
HETATM    7  C9  UNL     1      21.166   0.459  52.956  1.00  0.00     0.256 C 
HETATM    8  O1  UNL     1      20.673   1.278  53.772  1.00  0.00    -0.267 OA
HETATM    9  N1  UNL     1      20.310  -0.269  52.128  1.00  0.00    -0.322 N 
HETATM   10  H11 UNL     1      20.848  -0.907  51.504  1.00  0.00     0.169 HD
BRANCH   9  11
HETATM   11  C10 UNL     1      18.900  -0.253  52.031  1.00  0.00     0.052 A 
HETATM   12  C11 UNL     1      18.010  -0.905  52.848  1.00  0.00     0.031 A 
HETATM   13  C12 UNL     1      16.637  -0.875  52.733  1.00  0.00     0.002 A 
HETATM   14  C13 UNL     1      16.090  -0.126  51.714  1.00  0.00     0.002 A 
HETATM   15  C14 UNL     1      16.946   0.547  50.870  1.00  0.00     0.021 A 
HETATM   16  C15 UNL     1      18.312   0.481  51.030  1.00  0.00     0.037 A 
HETATM   17 BR1  UNL     1      19.416   1.456  49.800  1.00  0.00    -0.049 Br
ENDBRANCH   9  11
ENDBRANCH   4   7
BRANCH   1  18
HETATM   18  C2  UNL     1      26.909  -0.036  53.159  1.00  0.00     0.015 C 
HETATM   19  C1  UNL     1      27.260  -1.440  52.736  1.00  0.00     0.015 C 
BRANCH  18  20
HETATM   20  C3  UNL     1      27.386   0.315  54.543  1.00  0.00     0.024 C 
BRANCH  20  21
HETATM   21  C4  UNL     1      28.708   1.007  54.553  1.00  0.00     0.115 C 
HETATM   22 CL1  UNL     1      28.769   2.518  53.669  1.00  0.00    -0.130 Cl
ENDBRANCH  20  21
ENDBRANCH  18  20
ENDBRANCH   1  18
TORSDOF 5
ENDMDL
MODEL 7
REMARK VINA RESULT:      -7.0      6.014      8.658
REMARK  5 active torsions:
REMARK  status: ('A' for Active; 'I' for Inactive)
REMARK    1  A    between atoms: C2_2  and  C3_3 
REMARK    2  A    between atoms: C2_2  and  C5_6 
REMARK    3  A    between atoms: C3_3  and  C4_4 
REMARK    4  A    between atoms: C8_9  and  C9_10 
REMARK       I    between atoms: C9_10  and  N1_12 
REMARK    5  A    between atoms: N1_12  and  C10_13 
ROOT
HETATM    1  C5  UNL     1      26.375   0.789  52.275  1.00  0.00    -0.054 A 
HETATM    2  C6  UNL     1      26.910   1.747  51.445  1.00  0.00     0.008 A 
HETATM    3  C7  UNL     1      26.095   2.757  50.917  1.00  0.00     0.017 A 
HETATM    4  C8  UNL     1      24.751   2.845  51.191  1.00  0.00     0.032 A 
HETATM    5  C16 UNL     1      24.262   1.863  52.025  1.00  0.00     0.017 A 
HETATM    6  C17 UNL     1      25.029   0.854  52.566  1.00  0.00     0.008 A 
ENDROOT
BRANCH   4   7
HETATM    7  C9  UNL     1      23.970   3.921  50.605  1.00  0.00     0.256 C 
HETATM    8  O1  UNL     1      23.422   3.648  49.508  1.00  0.00    -0.267 OA
HETATM    9  N1  UNL     1      23.789   5.193  51.152  1.00  0.00    -0.322 N 
HETATM   10  H11 UNL     1      24.295   5.284  52.058  1.00  0.00     0.169 HD
BRANCH   9  11
HETATM   11  C10 UNL     1      23.057   6.301  50.667  1.00  0.00     0.052 A 
HETATM   12  C11 UNL     1      21.693   6.458  50.682  1.00  0.00     0.031 A 
HETATM   13  C12 UNL     1      21.000   7.547  50.202  1.00  0.00     0.002 A 
HETATM   14  C13 UNL     1      21.725   8.585  49.657  1.00  0.00     0.002 A 
HETATM   15  C14 UNL     1      23.098   8.471  49.622  1.00  0.00     0.021 A 
HETATM   16  C15 UNL     1      23.739   7.357  50.116  1.00  0.00     0.037 A 
HETATM   17 BR1  UNL     1      25.654   7.298  50.019  1.00  0.00    -0.049 Br
ENDBRANCH   9  11
ENDBRANCH   4   7
BRANCH   1  18
HETATM   18  C2  UNL     1      27.213  -0.288  52.847  1.00  0.00     0.015 C 
HETATM   19  C1  UNL     1      26.586  -1.606  52.469  1.00  0.00     0.015 C 
BRANCH  18  20
HETATM   20  C3  UNL     1      27.340  -0.084  54.332  1.00  0.00     0.024 C 
BRANCH  20  21
HETATM   21  C4  UNL     1      28.747   0.148  54.777  1.00  0.00     0.115 C 
HETATM   22 CL1  UNL     1      29.976  -0.168  53.570  1.00  0.00    -0.130 Cl
ENDBRANCH  20  21
ENDBRANCH  18  20
ENDBRANCH   1  18
TORSDOF 5
ENDMDL
MODEL 8
REMARK VINA RESULT:      -6.9      5.975      7.240
REMARK  5 active torsions:
REMARK  status: ('A' for Active; 'I' for Inactive)
REMARK    1  A    between atoms: C2_2  and  C3_3 
REMARK    2  A    between atoms: C2_2  and  C5_6 
REMARK    3  A    between atoms: C3_3  and  C4_4 
REMARK    4  A    between atoms: C8_9  and  C9_10 
REMARK       I    between atoms: C9_10  and  N1_12 
REMARK    5  A    between atoms: N1_12  and  C10_13 
ROOT
HETATM    1  C5  UNL     1      24.974   1.059  52.768  1.00  0.00    -0.054 A 
HETATM    2  C6  UNL     1      24.153   1.951  52.117  1.00  0.00     0.008 A 
HETATM    3  C7  UNL     1      24.680   2.822  51.156  1.00  0.00     0.017 A 
HETATM    4  C8  UNL     1      26.012   2.836  50.817  1.00  0.00     0.032 A 
HETATM    5  C16 UNL     1      26.794   1.926  51.496  1.00  0.00     0.017 A 
HETATM    6  C17 UNL     1      26.315   1.052  52.448  1.00  0.00     0.008 A 
ENDROOT
BRANCH   4   7
HETATM    7  C9  UNL     1      26.486   3.770  49.810  1.00  0.00     0.256 C 
HETATM    8  O1  UNL     1      27.244   3.276  48.937  1.00  0.00    -0.267 OA
HETATM    9  N1  UNL     1      26.174   5.129  49.742  1.00  0.00    -0.322 N 
HETATM   10  H11 UNL     1      25.541   5.405  50.522  1.00  0.00     0.169 HD
BRANCH   9  11
HETATM   11  C10 UNL     1      26.579   6.115  48.813  1.00  0.00     0.052 A 
HETATM   12  C11 UNL     1      27.865   6.418  48.441  1.00  0.00     0.031 A 
HETATM   13  C12 UNL     1      28.236   7.385  47.533  1.00  0.00     0.002 A 
HETATM   14  C13 UNL     1      27.240   8.123  46.932  1.00  0.00     0.002 A 
HETATM   15  C14 UNL     1      25.933   7.852  47.274  1.00  0.00     0.021 A 
HETATM   16  C15 UNL     1      25.618   6.873  48.190  1.00  0.00     0.037 A 
HETATM   17 BR1  UNL     1      23.767   6.575  48.598  1.00  0.00    -0.049 Br
ENDBRANCH   9  11
ENDBRANCH   4   7
BRANCH   1  18
HETATM   18  C2  UNL     1      24.443   0.128  53.787  1.00  0.00     0.015 C 
HETATM   19  C1  UNL     1      25.530  -0.865  54.112  1.00  0.00     0.015 C 
BRANCH  18  20
HETATM   20  C3  UNL     1      23.180  -0.507  53.271  1.00  0.00     0.024 C 
BRANCH  20  21
HETATM   21  C4  UNL     1      22.196  -0.823  54.349  1.00  0.00     0.115 C 
HETATM   22 CL1  UNL     1      20.814   0.250  54.439  1.00  0.00    -0.130 Cl
ENDBRANCH  20  21
ENDBRANCH  18  20
ENDBRANCH   1  18
TORSDOF 5
ENDMDL
MODEL 9
REMARK VINA RESULT:      -6.9      6.983      9.652
REMARK  5 active torsions:
REMARK  status: ('A' for Active; 'I' for Inactive)
REMARK    1  A    between atoms: C2_2  and  C3_3 
REMARK    2  A    between atoms: C2_2  and  C5_6 
REMARK    3  A    between atoms: C3_3  and  C4_4 
REMARK    4  A    between atoms: C8_9  and  C9_10 
REMARK       I    between atoms: C9_10  and  N1_12 
REMARK    5  A    between atoms: N1_12  and  C10_13 
ROOT
HETATM    1  C5  UNL     1      27.485   6.453  48.582  1.00  0.00    -0.054 A 
HETATM    2  C6  UNL     1      26.397   6.992  49.230  1.00  0.00     0.008 A 
HETATM    3  C7  UNL     1      25.480   6.158  49.880  1.00  0.00     0.017 A 
HETATM    4  C8  UNL     1      25.609   4.790  49.907  1.00  0.00     0.032 A 
HETATM    5  C16 UNL     1      26.713   4.297  49.244  1.00  0.00     0.017 A 
HETATM    6  C17 UNL     1      27.639   5.083  48.593  1.00  0.00     0.008 A 
ENDROOT
BRANCH   4   7
HETATM    7  C9  UNL     1      24.615   3.989  50.602  1.00  0.00     0.256 C 
HETATM    8  O1  UNL     1      23.903   4.618  51.424  1.00  0.00    -0.267 OA
HETATM    9  N1  UNL     1      24.401   2.620  50.430  1.00  0.00    -0.322 N 
HETATM   10  H11 UNL     1      25.056   2.226  49.723  1.00  0.00     0.169 HD
BRANCH   9  11
HETATM   11  C10 UNL     1      23.470   1.756  51.051  1.00  0.00     0.052 A 
HETATM   12  C11 UNL     1      23.554   1.224  52.313  1.00  0.00     0.031 A 
HETATM   13  C12 UNL     1      22.633   0.382  52.898  1.00  0.00     0.002 A 
HETATM   14  C13 UNL     1      21.520   0.033  52.165  1.00  0.00     0.002 A 
HETATM   15  C14 UNL     1      21.393   0.545  50.892  1.00  0.00     0.021 A 
HETATM   16  C15 UNL     1      22.345   1.383  50.356  1.00  0.00     0.037 A 
HETATM   17 BR1  UNL     1      22.074   2.041  48.575  1.00  0.00    -0.049 Br
ENDBRANCH   9  11
ENDBRANCH   4   7
BRANCH   1  18
HETATM   18  C2  UNL     1      28.470   7.311  47.887  1.00  0.00     0.015 C 
HETATM   19  C1  UNL     1      27.838   7.789  46.605  1.00  0.00     0.015 C 
BRANCH  18  20
HETATM   20  C3  UNL     1      29.745   6.537  47.681  1.00  0.00     0.024 C 
BRANCH  20  21
HETATM   21  C4  UNL     1      30.878   7.035  48.515  1.00  0.00     0.115 C 
HETATM   22 CL1  UNL     1      31.633   5.836  49.546  1.00  0.00    -0.130 Cl
ENDBRANCH  20  21
ENDBRANCH  18  20
ENDBRANCH   1  18
TORSDOF 5
ENDMDL
