MODEL 1
REMARK VINA RESULT:      -8.6      0.000      0.000
REMARK  7 active torsions:
REMARK  status: ('A' for Active; 'I' for Inactive)
REMARK    1  A    between atoms: O1_2  and  C2_3 
REMARK    2  A    between atoms: N3_9  and  C6_10 
REMARK    3  A    between atoms: C14_19  and  O2_20 
REMARK    4  A    between atoms: O2_20  and  C15_21 
REMARK    5  A    between atoms: C15_21  and  C16_22 
REMARK    6  A    between atoms: C16_22  and  C17_23 
REMARK    7  A    between atoms: C17_23  and  N4_24 
ROOT
HETATM    1  C2  UNL     1      21.597   2.156  51.169  1.00  0.00     0.103 A 
HETATM    2  C3  UNL     1      21.040   3.336  50.878  1.00  0.00     0.071 A 
HETATM    3  C4  UNL     1      21.754   4.559  51.176  1.00  0.00     0.083 A 
HETATM    4  N1  UNL     1      21.343   5.762  50.941  1.00  0.00    -0.180 NA
HETATM    5  N2  UNL     1      22.115   6.885  51.269  1.00  0.00    -0.295 N 
HETATM    6  C5  UNL     1      23.560   6.855  51.191  1.00  0.00     0.267 C 
HETATM    7  N3  UNL     1      23.950   5.436  51.083  1.00  0.00    -0.349 N 
HETATM    8  C12 UNL     1      23.115   4.555  51.821  1.00  0.00     0.166 A 
HETATM    9  C13 UNL     1      23.585   3.201  52.067  1.00  0.00     0.044 A 
HETATM   10  C14 UNL     1      22.917   2.067  51.784  1.00  0.00     0.100 A 
HETATM   11  H5  UNL     1      21.712   7.800  51.583  1.00  0.00     0.184 HD
ENDROOT
BRANCH  10  12
HETATM   12  O2  UNL     1      23.320   0.778  52.003  1.00  0.00    -0.348 OA
BRANCH  12  13
HETATM   13  C15 UNL     1      23.742   0.208  53.205  1.00  0.00     0.177 C 
BRANCH  13  14
HETATM   14  C16 UNL     1      25.227  -0.162  53.164  1.00  0.00     0.057 C 
BRANCH  14  15
HETATM   15  C17 UNL     1      25.834  -0.087  54.533  1.00  0.00     0.278 C 
BRANCH  15  16
HETATM   16  N4  UNL     1      27.094   0.588  54.557  1.00  0.00     0.126 N 
HETATM   17  C18 UNL     1      28.186  -0.301  54.252  1.00  0.00     0.302 C 
HETATM   18  C19 UNL     1      29.422   0.463  53.833  1.00  0.00     0.198 C 
HETATM   19  O3  UNL     1      29.341   1.734  54.442  1.00  0.00    -0.385 OA
HETATM   20  C20 UNL     1      28.381   2.497  53.741  1.00  0.00     0.237 C 
HETATM   21  C21 UNL     1      27.062   1.721  53.675  1.00  0.00     0.428 C 
HETATM   22  F1  UNL     1      26.050   2.568  54.077  1.00  0.00    -0.214 F 
ENDBRANCH  15  16
ENDBRANCH  14  15
ENDBRANCH  13  14
ENDBRANCH  12  13
ENDBRANCH  10  12
BRANCH   1  23
HETATM   23  O1  UNL     1      20.760   1.111  50.809  1.00  0.00    -0.353 OA
HETATM   24  C1  UNL     1      19.575   1.267  50.052  1.00  0.00     0.210 C 
ENDBRANCH   1  23
BRANCH   7  25
HETATM   25  C6  UNL     1      25.096   5.163  50.288  1.00  0.00     0.034 A 
HETATM   26  C7  UNL     1      25.743   3.952  50.195  1.00  0.00     0.029 A 
HETATM   27  C8  UNL     1      26.863   3.712  49.431  1.00  0.00     0.004 A 
HETATM   28  C9  UNL     1      27.407   4.733  48.695  1.00  0.00     0.024 A 
HETATM   29  C10 UNL     1      26.801   5.962  48.752  1.00  0.00     0.036 A 
HETATM   30 CL1  UNL     1      27.530   7.234  47.795  1.00  0.00    -0.084 Cl
HETATM   31  C11 UNL     1      25.679   6.156  49.530  1.00  0.00     0.053 A 
ENDBRANCH   7  25
TORSDOF 7
ENDMDL
MODEL 2
REMARK VINA RESULT:      -8.4      3.425      5.934
REMARK  7 active torsions:
REMARK  status: ('A' for Active; 'I' for Inactive)
REMARK    1  A    between atoms: O1_2  and  C2_3 
REMARK    2  A    between atoms: N3_9  and  C6_10 
REMARK    3  A    between atoms: C14_19  and  O2_20 
REMARK    4  A    between atoms: O2_20  and  C15_21 
REMARK    5  A    between atoms: C15_21  and  C16_22 
REMARK    6  A    between atoms: C16_22  and  C17_23 
REMARK    7  A    between atoms: C17_23  and  N4_24 
ROOT
HETATM    1  C2  UNL     1      20.305   2.189  51.180  1.00  0.00     0.103 A 
HETATM    2  C3  UNL     1      20.004   1.914  52.453  1.00  0.00     0.071 A 
HETATM    3  C4  UNL     1      20.675   0.823  53.128  1.00  0.00     0.083 A 
HETATM    4  N1  UNL     1      20.492   0.453  54.353  1.00  0.00    -0.180 NA
HETATM    5  N2  UNL     1      21.195  -0.621  54.914  1.00  0.00    -0.295 N 
HETATM    6  C5  UNL     1      22.561  -0.910  54.531  1.00  0.00     0.267 C 
HETATM    7  N3  UNL     1      22.828  -0.144  53.299  1.00  0.00    -0.349 N 
HETATM    8  C12 UNL     1      21.703  -0.034  52.439  1.00  0.00     0.166 A 
HETATM    9  C13 UNL     1      21.922   0.394  51.066  1.00  0.00     0.044 A 
HETATM   10  C14 UNL     1      21.298   1.413  50.446  1.00  0.00     0.100 A 
HETATM   11  H5  UNL     1      20.794  -1.271  55.632  1.00  0.00     0.184 HD
ENDROOT
BRANCH  10  12
HETATM   12  O2  UNL     1      21.471   1.844  49.158  1.00  0.00    -0.348 OA
BRANCH  12  13
HETATM   13  C15 UNL     1      22.622   2.389  48.588  1.00  0.00     0.177 C 
BRANCH  13  14
HETATM   14  C16 UNL     1      22.852   3.831  49.049  1.00  0.00     0.057 C 
BRANCH  14  15
HETATM   15  C17 UNL     1      24.101   3.936  49.872  1.00  0.00     0.278 C 
BRANCH  15  16
HETATM   16  N4  UNL     1      25.139   4.681  49.230  1.00  0.00     0.126 N 
HETATM   17  C18 UNL     1      25.078   6.082  49.561  1.00  0.00     0.302 C 
HETATM   18  C19 UNL     1      26.391   6.776  49.275  1.00  0.00     0.198 C 
HETATM   19  O3  UNL     1      27.023   6.045  48.246  1.00  0.00    -0.385 OA
HETATM   20  C20 UNL     1      27.539   4.855  48.807  1.00  0.00     0.237 C 
HETATM   21  C21 UNL     1      26.420   4.111  49.542  1.00  0.00     0.428 C 
HETATM   22  F1  UNL     1      26.436   2.797  49.123  1.00  0.00    -0.214 F 
ENDBRANCH  15  16
ENDBRANCH  14  15
ENDBRANCH  13  14
ENDBRANCH  12  13
ENDBRANCH  10  12
BRANCH   1  23
HETATM   23  O1  UNL     1      19.560   3.264  50.716  1.00  0.00    -0.353 OA
HETATM   24  C1  UNL     1      18.378   3.736  51.335  1.00  0.00     0.210 C 
ENDBRANCH   1  23
BRANCH   7  25
HETATM   25  C6  UNL     1      24.153   0.347  53.145  1.00  0.00     0.034 A 
HETATM   26  C7  UNL     1      24.506   1.663  52.948  1.00  0.00     0.029 A 
HETATM   27  C8  UNL     1      25.796   2.117  52.782  1.00  0.00     0.004 A 
HETATM   28  C9  UNL     1      26.833   1.221  52.808  1.00  0.00     0.024 A 
HETATM   29  C10 UNL     1      26.536  -0.104  53.002  1.00  0.00     0.036 A 
HETATM   30 CL1  UNL     1      27.893  -1.210  53.028  1.00  0.00    -0.084 Cl
HETATM   31  C11 UNL     1      25.229  -0.514  53.164  1.00  0.00     0.053 A 
ENDBRANCH   7  25
TORSDOF 7
ENDMDL
MODEL 3
REMARK VINA RESULT:      -8.3      3.310      7.575
REMARK  7 active torsions:
REMARK  status: ('A' for Active; 'I' for Inactive)
REMARK    1  A    between atoms: O1_2  and  C2_3 
REMARK    2  A    between atoms: N3_9  and  C6_10 
REMARK    3  A    between atoms: C14_19  and  O2_20 
REMARK    4  A    between atoms: O2_20  and  C15_21 
REMARK    5  A    between atoms: C15_21  and  C16_22 
REMARK    6  A    between atoms: C16_22  and  C17_23 
REMARK    7  A    between atoms: C17_23  and  N4_24 
ROOT
HETATM    1  C2  UNL     1      25.616   2.809  50.854  1.00  0.00     0.103 A 
HETATM    2  C3  UNL     1      26.379   1.718  50.978  1.00  0.00     0.071 A 
HETATM    3  C4  UNL     1      26.322   0.940  52.197  1.00  0.00     0.083 A 
HETATM    4  N1  UNL     1      26.992  -0.137  52.449  1.00  0.00    -0.180 NA
HETATM    5  N2  UNL     1      26.865  -0.819  53.666  1.00  0.00    -0.295 N 
HETATM    6  C5  UNL     1      25.603  -0.870  54.374  1.00  0.00     0.267 C 
HETATM    7  N3  UNL     1      24.736   0.160  53.771  1.00  0.00    -0.349 N 
HETATM    8  C12 UNL     1      25.436   1.323  53.352  1.00  0.00     0.166 A 
HETATM    9  C13 UNL     1      24.669   2.524  53.060  1.00  0.00     0.044 A 
HETATM   10  C14 UNL     1      24.723   3.241  51.923  1.00  0.00     0.100 A 
HETATM   11  H5  UNL     1      27.652  -1.328  54.136  1.00  0.00     0.184 HD
ENDROOT
BRANCH  10  12
HETATM   12  O2  UNL     1      24.023   4.375  51.611  1.00  0.00    -0.348 OA
BRANCH  12  13
HETATM   13  C15 UNL     1      22.871   4.865  52.228  1.00  0.00     0.177 C 
BRANCH  13  14
HETATM   14  C16 UNL     1      21.725   5.037  51.228  1.00  0.00     0.057 C 
BRANCH  14  15
HETATM   15  C17 UNL     1      21.106   3.713  50.891  1.00  0.00     0.278 C 
BRANCH  15  16
HETATM   16  N4  UNL     1      21.024   3.469  49.485  1.00  0.00     0.126 N 
HETATM   17  C18 UNL     1      20.534   4.618  48.767  1.00  0.00     0.302 C 
HETATM   18  C19 UNL     1      20.868   4.537  47.295  1.00  0.00     0.198 C 
HETATM   19  O3  UNL     1      20.980   3.165  46.978  1.00  0.00    -0.385 OA
HETATM   20  C20 UNL     1      22.208   2.694  47.494  1.00  0.00     0.237 C 
HETATM   21  C21 UNL     1      22.296   3.027  48.986  1.00  0.00     0.428 C 
HETATM   22  F1  UNL     1      22.662   1.879  49.657  1.00  0.00    -0.214 F 
ENDBRANCH  15  16
ENDBRANCH  14  15
ENDBRANCH  13  14
ENDBRANCH  12  13
ENDBRANCH  10  12
BRANCH   1  23
HETATM   23  O1  UNL     1      25.813   3.412  49.620  1.00  0.00    -0.353 OA
HETATM   24  C1  UNL     1      26.880   4.294  49.328  1.00  0.00     0.210 C 
ENDBRANCH   1  23
BRANCH   7  25
HETATM   25  C6  UNL     1      23.349  -0.147  53.714  1.00  0.00     0.034 A 
HETATM   26  C7  UNL     1      22.626  -0.794  54.691  1.00  0.00     0.029 A 
HETATM   27  C8  UNL     1      21.286  -1.098  54.609  1.00  0.00     0.004 A 
HETATM   28  C9  UNL     1      20.583  -0.747  53.484  1.00  0.00     0.024 A 
HETATM   29  C10 UNL     1      21.257  -0.099  52.480  1.00  0.00     0.036 A 
HETATM   30 CL1  UNL     1      20.319   0.328  51.065  1.00  0.00    -0.084 Cl
HETATM   31  C11 UNL     1      22.600   0.185  52.606  1.00  0.00     0.053 A 
ENDBRANCH   7  25
TORSDOF 7
ENDMDL
MODEL 4
REMARK VINA RESULT:      -8.3      1.761      2.150
REMARK  7 active torsions:
REMARK  status: ('A' for Active; 'I' for Inactive)
REMARK    1  A    between atoms: O1_2  and  C2_3 
REMARK    2  A    between atoms: N3_9  and  C6_10 
REMARK    3  A    between atoms: C14_19  and  O2_20 
REMARK    4  A    between atoms: O2_20  and  C15_21 
REMARK    5  A    between atoms: C15_21  and  C16_22 
REMARK    6  A    between atoms: C16_22  and  C17_23 
REMARK    7  A    between atoms: C17_23  and  N4_24 
ROOT
HETATM    1  C2  UNL     1      22.135   3.548  51.404  1.00  0.00     0.103 A 
HETATM    2  C3  UNL     1      21.540   4.033  50.310  1.00  0.00     0.071 A 
HETATM    3  C4  UNL     1      22.019   5.265  49.720  1.00  0.00     0.083 A 
HETATM    4  N1  UNL     1      21.548   5.842  48.663  1.00  0.00    -0.180 NA
HETATM    5  N2  UNL     1      22.086   7.038  48.171  1.00  0.00    -0.295 N 
HETATM    6  C5  UNL     1      23.500   7.329  48.279  1.00  0.00     0.267 C 
HETATM    7  N3  UNL     1      24.059   6.367  49.247  1.00  0.00    -0.349 N 
HETATM    8  C12 UNL     1      23.171   6.039  50.305  1.00  0.00     0.166 A 
HETATM    9  C13 UNL     1      23.712   5.379  51.483  1.00  0.00     0.044 A 
HETATM   10  C14 UNL     1      23.265   4.231  52.025  1.00  0.00     0.100 A 
HETATM   11  H5  UNL     1      21.519   7.785  47.702  1.00  0.00     0.184 HD
ENDROOT
BRANCH  10  12
HETATM   12  O2  UNL     1      23.742   3.582  53.131  1.00  0.00    -0.348 OA
BRANCH  12  13
HETATM   13  C15 UNL     1      24.864   2.758  53.220  1.00  0.00     0.177 C 
BRANCH  13  14
HETATM   14  C16 UNL     1      25.328   2.286  51.839  1.00  0.00     0.057 C 
BRANCH  14  15
HETATM   15  C17 UNL     1      26.807   2.036  51.829  1.00  0.00     0.278 C 
BRANCH  15  16
HETATM   16  N4  UNL     1      27.236   1.148  52.864  1.00  0.00     0.126 N 
HETATM   17  C18 UNL     1      27.223  -0.227  52.432  1.00  0.00     0.302 C 
HETATM   18  C19 UNL     1      28.081  -1.095  53.324  1.00  0.00     0.198 C 
HETATM   19  O3  UNL     1      28.113  -0.473  54.590  1.00  0.00    -0.385 OA
HETATM   20  C20 UNL     1      28.972   0.646  54.508  1.00  0.00     0.237 C 
HETATM   21  C21 UNL     1      28.527   1.545  53.350  1.00  0.00     0.428 C 
HETATM   22  F1  UNL     1      28.445   2.839  53.824  1.00  0.00    -0.214 F 
ENDBRANCH  15  16
ENDBRANCH  14  15
ENDBRANCH  13  14
ENDBRANCH  12  13
ENDBRANCH  10  12
BRANCH   1  23
HETATM   23  O1  UNL     1      21.534   2.366  51.812  1.00  0.00    -0.353 OA
HETATM   24  C1  UNL     1      20.418   2.303  52.680  1.00  0.00     0.210 C 
ENDBRANCH   1  23
BRANCH   7  25
HETATM   25  C6  UNL     1      25.389   5.931  48.996  1.00  0.00     0.034 A 
HETATM   26  C7  UNL     1      25.872   4.658  49.202  1.00  0.00     0.029 A 
HETATM   27  C8  UNL     1      27.169   4.260  48.969  1.00  0.00     0.004 A 
HETATM   28  C9  UNL     1      28.079   5.171  48.499  1.00  0.00     0.024 A 
HETATM   29  C10 UNL     1      27.650   6.455  48.277  1.00  0.00     0.036 A 
HETATM   30 CL1  UNL     1      28.847   7.582  47.678  1.00  0.00    -0.084 Cl
HETATM   31  C11 UNL     1      26.340   6.809  48.523  1.00  0.00     0.053 A 
ENDBRANCH   7  25
TORSDOF 7
ENDMDL
MODEL 5
REMARK VINA RESULT:      -7.9      4.290      6.770
REMARK  7 active torsions:
REMARK  status: ('A' for Active; 'I' for Inactive)
REMARK    1  A    between atoms: O1_2  and  C2_3 
REMARK    2  A    between atoms: N3_9  and  C6_10 
REMARK    3  A    between atoms: C14_19  and  O2_20 
REMARK    4  A    between atoms: O2_20  and  C15_21 
REMARK    5  A    between atoms: C15_21  and  C16_22 
REMARK    6  A    between atoms: C16_22  and  C17_23 
REMARK    7  A    between atoms: C17_23  and  N4_24 
ROOT
HETATM    1  C2  UNL     1      24.157   5.525  51.128  1.00  0.00     0.103 A 
HETATM    2  C3  UNL     1      23.121   5.017  51.803  1.00  0.00     0.071 A 
HETATM    3  C4  UNL     1      22.893   3.587  51.796  1.00  0.00     0.083 A 
HETATM    4  N1  UNL     1      21.942   2.961  52.409  1.00  0.00    -0.180 NA
HETATM    5  N2  UNL     1      21.808   1.568  52.339  1.00  0.00    -0.295 N 
HETATM    6  C5  UNL     1      22.966   0.703  52.252  1.00  0.00     0.267 C 
HETATM    7  N3  UNL     1      24.113   1.563  51.905  1.00  0.00    -0.349 N 
HETATM    8  C12 UNL     1      23.782   2.637  51.038  1.00  0.00     0.166 A 
HETATM    9  C13 UNL     1      24.862   3.341  50.365  1.00  0.00     0.044 A 
HETATM   10  C14 UNL     1      25.071   4.670  50.378  1.00  0.00     0.100 A 
HETATM   11  H5  UNL     1      20.887   1.068  52.346  1.00  0.00     0.184 HD
ENDROOT
BRANCH  10  12
HETATM   12  O2  UNL     1      26.069   5.370  49.756  1.00  0.00    -0.348 OA
BRANCH  12  13
HETATM   13  C15 UNL     1      27.023   4.883  48.861  1.00  0.00     0.177 C 
BRANCH  13  14
HETATM   14  C16 UNL     1      27.876   6.012  48.276  1.00  0.00     0.057 C 
BRANCH  14  15
HETATM   15  C17 UNL     1      29.320   5.611  48.208  1.00  0.00     0.278 C 
BRANCH  15  16
HETATM   16  N4  UNL     1      30.218   6.722  48.260  1.00  0.00     0.126 N 
HETATM   17  C18 UNL     1      29.554   7.931  48.676  1.00  0.00     0.302 C 
HETATM   18  C19 UNL     1      30.543   8.965  49.165  1.00  0.00     0.198 C 
HETATM   19  O3  UNL     1      31.765   8.702  48.510  1.00  0.00    -0.385 OA
HETATM   20  C20 UNL     1      32.348   7.563  49.111  1.00  0.00     0.237 C 
HETATM   21  C21 UNL     1      31.340   6.409  49.099  1.00  0.00     0.428 C 
HETATM   22  F1  UNL     1      31.977   5.294  48.595  1.00  0.00    -0.214 F 
ENDBRANCH  15  16
ENDBRANCH  14  15
ENDBRANCH  13  14
ENDBRANCH  12  13
ENDBRANCH  10  12
BRANCH   1  23
HETATM   23  O1  UNL     1      24.204   6.905  51.258  1.00  0.00    -0.353 OA
HETATM   24  C1  UNL     1      23.354   7.797  50.563  1.00  0.00     0.210 C 
ENDBRANCH   1  23
BRANCH   7  25
HETATM   25  C6  UNL     1      25.365   1.187  52.464  1.00  0.00     0.034 A 
HETATM   26  C7  UNL     1      26.240   2.024  53.118  1.00  0.00     0.029 A 
HETATM   27  C8  UNL     1      27.458   1.644  53.637  1.00  0.00     0.004 A 
HETATM   28  C9  UNL     1      27.866   0.341  53.509  1.00  0.00     0.024 A 
HETATM   29  C10 UNL     1      27.031  -0.536  52.865  1.00  0.00     0.036 A 
HETATM   30 CL1  UNL     1      27.595  -2.187  52.727  1.00  0.00    -0.084 Cl
HETATM   31  C11 UNL     1      25.820  -0.111  52.362  1.00  0.00     0.053 A 
ENDBRANCH   7  25
TORSDOF 7
ENDMDL
MODEL 6
REMARK VINA RESULT:      -7.9      3.445      7.744
REMARK  7 active torsions:
REMARK  status: ('A' for Active; 'I' for Inactive)
REMARK    1  A    between atoms: O1_2  and  C2_3 
REMARK    2  A    between atoms: N3_9  and  C6_10 
REMARK    3  A    between atoms: C14_19  and  O2_20 
REMARK    4  A    between atoms: O2_20  and  C15_21 
REMARK    5  A    between atoms: C15_21  and  C16_22 
REMARK    6  A    between atoms: C16_22  and  C17_23 
REMARK    7  A    between atoms: C17_23  and  N4_24 
ROOT
HETATM    1  C2  UNL     1      25.593   2.855  50.885  1.00  0.00     0.103 A 
HETATM    2  C3  UNL     1      26.375   1.775  50.985  1.00  0.00     0.071 A 
HETATM    3  C4  UNL     1      26.346   0.979  52.193  1.00  0.00     0.083 A 
HETATM    4  N1  UNL     1      27.037  -0.089  52.422  1.00  0.00    -0.180 NA
HETATM    5  N2  UNL     1      26.936  -0.790  53.631  1.00  0.00    -0.295 N 
HETATM    6  C5  UNL     1      25.683  -0.872  54.353  1.00  0.00     0.267 C 
HETATM    7  N3  UNL     1      24.792   0.151  53.774  1.00  0.00    -0.349 N 
HETATM    8  C12 UNL     1      25.467   1.331  53.364  1.00  0.00     0.166 A 
HETATM    9  C13 UNL     1      24.677   2.523  53.098  1.00  0.00     0.044 A 
HETATM   10  C14 UNL     1      24.705   3.256  51.970  1.00  0.00     0.100 A 
HETATM   11  H5  UNL     1      27.737  -1.292  54.085  1.00  0.00     0.184 HD
ENDROOT
BRANCH  10  12
HETATM   12  O2  UNL     1      23.982   4.383  51.682  1.00  0.00    -0.348 OA
BRANCH  12  13
HETATM   13  C15 UNL     1      22.782   4.798  52.259  1.00  0.00     0.177 C 
BRANCH  13  14
HETATM   14  C16 UNL     1      21.580   4.084  51.635  1.00  0.00     0.057 C 
BRANCH  14  15
HETATM   15  C17 UNL     1      20.731   5.047  50.858  1.00  0.00     0.278 C 
BRANCH  15  16
HETATM   16  N4  UNL     1      21.468   5.789  49.883  1.00  0.00     0.126 N 
HETATM   17  C18 UNL     1      21.332   5.226  48.564  1.00  0.00     0.302 C 
HETATM   18  C19 UNL     1      21.709   6.224  47.493  1.00  0.00     0.198 C 
HETATM   19  O3  UNL     1      22.627   7.123  48.079  1.00  0.00    -0.385 OA
HETATM   20  C20 UNL     1      21.908   7.994  48.927  1.00  0.00     0.237 C 
HETATM   21  C21 UNL     1      21.079   7.171  49.918  1.00  0.00     0.428 C 
HETATM   22  F1  UNL     1      21.314   7.667  51.184  1.00  0.00    -0.214 F 
ENDBRANCH  15  16
ENDBRANCH  14  15
ENDBRANCH  13  14
ENDBRANCH  12  13
ENDBRANCH  10  12
BRANCH   1  23
HETATM   23  O1  UNL     1      25.764   3.478  49.657  1.00  0.00    -0.353 OA
HETATM   24  C1  UNL     1      26.925   4.197  49.287  1.00  0.00     0.210 C 
ENDBRANCH   1  23
BRANCH   7  25
HETATM   25  C6  UNL     1      23.410  -0.179  53.730  1.00  0.00     0.034 A 
HETATM   26  C7  UNL     1      22.719  -0.886  54.687  1.00  0.00     0.029 A 
HETATM   27  C8  UNL     1      21.383  -1.211  54.616  1.00  0.00     0.004 A 
HETATM   28  C9  UNL     1      20.651  -0.819  53.524  1.00  0.00     0.024 A 
HETATM   29  C10 UNL     1      21.293  -0.110  52.540  1.00  0.00     0.036 A 
HETATM   30 CL1  UNL     1      20.319   0.368  51.167  1.00  0.00    -0.084 Cl
HETATM   31  C11 UNL     1      22.633   0.193  52.653  1.00  0.00     0.053 A 
ENDBRANCH   7  25
TORSDOF 7
ENDMDL
MODEL 7
REMARK VINA RESULT:      -7.9      3.651      7.588
REMARK  7 active torsions:
REMARK  status: ('A' for Active; 'I' for Inactive)
REMARK    1  A    between atoms: O1_2  and  C2_3 
REMARK    2  A    between atoms: N3_9  and  C6_10 
REMARK    3  A    between atoms: C14_19  and  O2_20 
REMARK    4  A    between atoms: O2_20  and  C15_21 
REMARK    5  A    between atoms: C15_21  and  C16_22 
REMARK    6  A    between atoms: C16_22  and  C17_23 
REMARK    7  A    between atoms: C17_23  and  N4_24 
ROOT
HETATM    1  C2  UNL     1      25.599   2.826  50.792  1.00  0.00     0.103 A 
HETATM    2  C3  UNL     1      26.424   1.802  51.038  1.00  0.00     0.071 A 
HETATM    3  C4  UNL     1      26.347   1.109  52.306  1.00  0.00     0.083 A 
HETATM    4  N1  UNL     1      27.071   0.103  52.673  1.00  0.00    -0.180 NA
HETATM    5  N2  UNL     1      26.918  -0.500  53.929  1.00  0.00    -0.295 N 
HETATM    6  C5  UNL     1      25.622  -0.590  54.569  1.00  0.00     0.267 C 
HETATM    7  N3  UNL     1      24.726   0.331  53.845  1.00  0.00    -0.349 N 
HETATM    8  C12 UNL     1      25.370   1.509  53.380  1.00  0.00     0.166 A 
HETATM    9  C13 UNL     1      24.544   2.629  52.959  1.00  0.00     0.044 A 
HETATM   10  C14 UNL     1      24.617   3.267  51.776  1.00  0.00     0.100 A 
HETATM   11  H5  UNL     1      27.708  -0.918  54.477  1.00  0.00     0.184 HD
ENDROOT
BRANCH  10  12
HETATM   12  O2  UNL     1      23.863   4.324  51.344  1.00  0.00    -0.348 OA
BRANCH  12  13
HETATM   13  C15 UNL     1      24.051   5.678  51.626  1.00  0.00     0.177 C 
BRANCH  13  14
HETATM   14  C16 UNL     1      24.309   6.489  50.353  1.00  0.00     0.057 C 
BRANCH  14  15
HETATM   15  C17 UNL     1      25.325   7.564  50.601  1.00  0.00     0.278 C 
BRANCH  15  16
HETATM   16  N4  UNL     1      26.267   7.708  49.535  1.00  0.00     0.126 N 
HETATM   17  C18 UNL     1      25.671   7.442  48.251  1.00  0.00     0.302 C 
HETATM   18  C19 UNL     1      26.498   8.019  47.126  1.00  0.00     0.198 C 
HETATM   19  O3  UNL     1      27.831   8.076  47.587  1.00  0.00    -0.385 OA
HETATM   20  C20 UNL     1      27.936   9.156  48.493  1.00  0.00     0.237 C 
HETATM   21  C21 UNL     1      26.873   9.009  49.586  1.00  0.00     0.428 C 
HETATM   22  F1  UNL     1      27.496   9.162  50.808  1.00  0.00    -0.214 F 
ENDBRANCH  15  16
ENDBRANCH  14  15
ENDBRANCH  13  14
ENDBRANCH  12  13
ENDBRANCH  10  12
BRANCH   1  23
HETATM   23  O1  UNL     1      25.828   3.353  49.529  1.00  0.00    -0.353 OA
HETATM   24  C1  UNL     1      26.954   4.139  49.189  1.00  0.00     0.210 C 
ENDBRANCH   1  23
BRANCH   7  25
HETATM   25  C6  UNL     1      23.369  -0.076  53.736  1.00  0.00     0.034 A 
HETATM   26  C7  UNL     1      22.682  -0.843  54.649  1.00  0.00     0.029 A 
HETATM   27  C8  UNL     1      21.370  -1.242  54.516  1.00  0.00     0.004 A 
HETATM   28  C9  UNL     1      20.663  -0.868  53.403  1.00  0.00     0.024 A 
HETATM   29  C10 UNL     1      21.301  -0.103  52.461  1.00  0.00     0.036 A 
HETATM   30 CL1  UNL     1      20.357   0.349  51.057  1.00  0.00    -0.084 Cl
HETATM   31  C11 UNL     1      22.615   0.275  52.636  1.00  0.00     0.053 A 
ENDBRANCH   7  25
TORSDOF 7
ENDMDL
MODEL 8
REMARK VINA RESULT:      -7.6      1.882      2.316
REMARK  7 active torsions:
REMARK  status: ('A' for Active; 'I' for Inactive)
REMARK    1  A    between atoms: O1_2  and  C2_3 
REMARK    2  A    between atoms: N3_9  and  C6_10 
REMARK    3  A    between atoms: C14_19  and  O2_20 
REMARK    4  A    between atoms: O2_20  and  C15_21 
REMARK    5  A    between atoms: C15_21  and  C16_22 
REMARK    6  A    between atoms: C16_22  and  C17_23 
REMARK    7  A    between atoms: C17_23  and  N4_24 
ROOT
HETATM    1  C2  UNL     1      22.201   1.257  51.633  1.00  0.00     0.103 A 
HETATM    2  C3  UNL     1      21.513   1.517  50.517  1.00  0.00     0.071 A 
HETATM    3  C4  UNL     1      21.572   2.839  49.930  1.00  0.00     0.083 A 
HETATM    4  N1  UNL     1      20.969   3.226  48.854  1.00  0.00    -0.180 NA
HETATM    5  N2  UNL     1      21.092   4.534  48.367  1.00  0.00    -0.295 N 
HETATM    6  C5  UNL     1      22.323   5.281  48.515  1.00  0.00     0.267 C 
HETATM    7  N3  UNL     1      23.141   4.560  49.509  1.00  0.00    -0.349 N 
HETATM    8  C12 UNL     1      22.380   3.952  50.543  1.00  0.00     0.166 A 
HETATM    9  C13 UNL     1      23.072   3.510  51.743  1.00  0.00     0.044 A 
HETATM   10  C14 UNL     1      23.016   2.278  52.282  1.00  0.00     0.100 A 
HETATM   11  H5  UNL     1      20.324   5.049  47.874  1.00  0.00     0.184 HD
ENDROOT
BRANCH  10  12
HETATM   12  O2  UNL     1      23.647   1.825  53.408  1.00  0.00    -0.348 OA
BRANCH  12  13
HETATM   13  C15 UNL     1      24.991   1.476  53.553  1.00  0.00     0.177 C 
BRANCH  13  14
HETATM   14  C16 UNL     1      25.617   1.076  52.215  1.00  0.00     0.057 C 
BRANCH  14  15
HETATM   15  C17 UNL     1      26.280  -0.266  52.315  1.00  0.00     0.278 C 
BRANCH  15  16
HETATM   16  N4  UNL     1      27.676  -0.185  52.614  1.00  0.00     0.126 N 
HETATM   17  C18 UNL     1      28.017   1.057  53.259  1.00  0.00     0.302 C 
HETATM   18  C19 UNL     1      29.347   0.965  53.970  1.00  0.00     0.198 C 
HETATM   19  O3  UNL     1      30.101  -0.023  53.299  1.00  0.00    -0.385 OA
HETATM   20  C20 UNL     1      29.587  -1.288  53.661  1.00  0.00     0.237 C 
HETATM   21  C21 UNL     1      28.080  -1.323  53.392  1.00  0.00     0.428 C 
HETATM   22  F1  UNL     1      27.802  -2.471  52.679  1.00  0.00    -0.214 F 
ENDBRANCH  15  16
ENDBRANCH  14  15
ENDBRANCH  13  14
ENDBRANCH  12  13
ENDBRANCH  10  12
BRANCH   1  23
HETATM   23  O1  UNL     1      22.016  -0.058  52.034  1.00  0.00    -0.353 OA
HETATM   24  C1  UNL     1      21.254  -0.444  53.162  1.00  0.00     0.210 C 
ENDBRANCH   1  23
BRANCH   7  25
HETATM   25  C6  UNL     1      24.547   4.593  49.303  1.00  0.00     0.034 A 
HETATM   26  C7  UNL     1      25.414   3.541  49.493  1.00  0.00     0.029 A 
HETATM   27  C8  UNL     1      26.777   3.599  49.305  1.00  0.00     0.004 A 
HETATM   28  C9  UNL     1      27.351   4.777  48.900  1.00  0.00     0.024 A 
HETATM   29  C10 UNL     1      26.531   5.857  48.696  1.00  0.00     0.036 A 
HETATM   30 CL1  UNL     1      27.309   7.337  48.180  1.00  0.00    -0.084 Cl
HETATM   31  C11 UNL     1      25.171   5.753  48.896  1.00  0.00     0.053 A 
ENDBRANCH   7  25
TORSDOF 7
ENDMDL
MODEL 9
REMARK VINA RESULT:      -7.4      4.223      8.423
REMARK  7 active torsions:
REMARK  status: ('A' for Active; 'I' for Inactive)
REMARK    1  A    between atoms: O1_2  and  C2_3 
REMARK    2  A    between atoms: N3_9  and  C6_10 
REMARK    3  A    between atoms: C14_19  and  O2_20 
REMARK    4  A    between atoms: O2_20  and  C15_21 
REMARK    5  A    between atoms: C15_21  and  C16_22 
REMARK    6  A    between atoms: C16_22  and  C17_23 
REMARK    7  A    between atoms: C17_23  and  N4_24 
ROOT
HETATM    1  C2  UNL     1      25.685   4.278  50.034  1.00  0.00     0.103 A 
HETATM    2  C3  UNL     1      26.414   3.173  50.217  1.00  0.00     0.071 A 
HETATM    3  C4  UNL     1      26.074   2.259  51.287  1.00  0.00     0.083 A 
HETATM    4  N1  UNL     1      26.682   1.154  51.572  1.00  0.00    -0.180 NA
HETATM    5  N2  UNL     1      26.272   0.336  52.633  1.00  0.00    -0.295 N 
HETATM    6  C5  UNL     1      24.875   0.216  52.996  1.00  0.00     0.267 C 
HETATM    7  N3  UNL     1      24.164   1.316  52.319  1.00  0.00    -0.349 N 
HETATM    8  C12 UNL     1      24.922   2.513  52.223  1.00  0.00     0.166 A 
HETATM    9  C13 UNL     1      24.228   3.747  51.890  1.00  0.00     0.044 A 
HETATM   10  C14 UNL     1      24.546   4.591  50.891  1.00  0.00     0.100 A 
HETATM   11  H5  UNL     1      26.928  -0.231  53.222  1.00  0.00     0.184 HD
ENDROOT
BRANCH  10  12
HETATM   12  O2  UNL     1      23.923   5.760  50.548  1.00  0.00    -0.348 OA
BRANCH  12  13
HETATM   13  C15 UNL     1      24.139   7.031  51.082  1.00  0.00     0.177 C 
BRANCH  13  14
HETATM   14  C16 UNL     1      24.136   8.108  49.994  1.00  0.00     0.057 C 
BRANCH  14  15
HETATM   15  C17 UNL     1      22.938   7.964  49.103  1.00  0.00     0.278 C 
BRANCH  15  16
HETATM   16  N4  UNL     1      21.914   8.925  49.372  1.00  0.00     0.126 N 
HETATM   17  C18 UNL     1      21.793   9.892  48.311  1.00  0.00     0.302 C 
HETATM   18  C19 UNL     1      20.462  10.606  48.362  1.00  0.00     0.198 C 
HETATM   19  O3  UNL     1      20.035  10.577  49.707  1.00  0.00    -0.385 OA
HETATM   20  C20 UNL     1      19.578   9.272  49.994  1.00  0.00     0.237 C 
HETATM   21  C21 UNL     1      20.670   8.259  49.636  1.00  0.00     0.428 C 
HETATM   22  F1  UNL     1      20.837   7.414  50.713  1.00  0.00    -0.214 F 
ENDBRANCH  15  16
ENDBRANCH  14  15
ENDBRANCH  13  14
ENDBRANCH  12  13
ENDBRANCH  10  12
BRANCH   1  23
HETATM   23  O1  UNL     1      26.167   5.018  48.965  1.00  0.00    -0.353 OA
HETATM   24  C1  UNL     1      27.534   5.095  48.605  1.00  0.00     0.210 C 
ENDBRANCH   1  23
BRANCH   7  25
HETATM   25  C6  UNL     1      22.841   1.031  51.886  1.00  0.00     0.034 A 
HETATM   26  C7  UNL     1      22.315   1.331  50.650  1.00  0.00     0.029 A 
HETATM   27  C8  UNL     1      21.023   1.062  50.256  1.00  0.00     0.004 A 
HETATM   28  C9  UNL     1      20.164   0.452  51.135  1.00  0.00     0.024 A 
HETATM   29  C10 UNL     1      20.638   0.132  52.381  1.00  0.00     0.036 A 
HETATM   30 CL1  UNL     1      19.506  -0.644  53.467  1.00  0.00    -0.084 Cl
HETATM   31  C11 UNL     1      21.940   0.419  52.732  1.00  0.00     0.053 A 
ENDBRANCH   7  25
TORSDOF 7
ENDMDL
