MODEL 1
REMARK VINA RESULT:      -7.9      0.000      0.000
REMARK  3 active torsions:
REMARK  status: ('A' for Active; 'I' for Inactive)
REMARK       I    between atoms: C2_2  and  N1_4 
REMARK    1  A    between atoms: N1_4  and  C3_5 
REMARK    2  A    between atoms: C5_7  and  N2_8 
REMARK    3  A    between atoms: N2_8  and  C6_9 
ROOT
HETATM    1  C3  UNL     1      26.373  -0.527  52.998  1.00  0.00     0.032 A 
HETATM    2  C4  UNL     1      27.175   0.467  53.389  1.00  0.00     0.061 A 
HETATM    3  C5  UNL     1      27.026   1.783  53.665  1.00  0.00     0.144 A 
HETATM    4  N3  UNL     1      28.065   2.576  54.041  1.00  0.00    -0.223 NA
HETATM    5  C12 UNL     1      29.310   2.027  54.147  1.00  0.00     0.236 A 
HETATM    6  N4  UNL     1      29.479   0.740  53.884  1.00  0.00    -0.241 NA
HETATM    7  C13 UNL     1      28.470  -0.047  53.513  1.00  0.00     0.070 A 
HETATM    8  C14 UNL     1      28.541  -1.317  53.226  1.00  0.00     0.012 A 
HETATM    9  C15 UNL     1      27.194  -1.767  52.865  1.00  0.00     0.087 A 
ENDROOT
BRANCH   3  10
HETATM   10  N2  UNL     1      25.804   2.488  53.655  1.00  0.00    -0.340 N 
HETATM   11  H5  UNL     1      25.021   2.966  54.163  1.00  0.00     0.167 HD
BRANCH  10  12
HETATM   12  C6  UNL     1      25.205   2.856  52.390  1.00  0.00     0.035 A 
HETATM   13  C7  UNL     1      25.959   2.867  51.208  1.00  0.00     0.029 A 
HETATM   14  C8  UNL     1      25.401   3.210  49.975  1.00  0.00     0.004 A 
HETATM   15  C9  UNL     1      24.067   3.546  49.932  1.00  0.00     0.019 A 
HETATM   16  C10 UNL     1      23.261   3.556  51.070  1.00  0.00     0.013 A 
HETATM   17 BR1  UNL     1      21.407   4.027  51.058  1.00  0.00    -0.051 Br
HETATM   18  C11 UNL     1      23.887   3.201  52.272  1.00  0.00     0.048 A 
ENDBRANCH  10  12
ENDBRANCH   3  10
BRANCH   1  19
HETATM   19  N1  UNL     1      24.951  -0.332  52.759  1.00  0.00    -0.330 N 
HETATM   20  C2  UNL     1      23.985  -0.560  53.840  1.00  0.00     0.217 C 
HETATM   21  C1  UNL     1      22.663  -0.235  53.178  1.00  0.00     0.117 C 
HETATM   22  O1  UNL     1      24.664  -0.910  54.801  1.00  0.00    -0.274 OA
HETATM   23  H4  UNL     1      24.694  -0.045  51.809  1.00  0.00     0.168 HD
ENDBRANCH   1  19
TORSDOF 3
ENDMDL
MODEL 2
REMARK VINA RESULT:      -7.5      3.189      5.609
REMARK  3 active torsions:
REMARK  status: ('A' for Active; 'I' for Inactive)
REMARK       I    between atoms: C2_2  and  N1_4 
REMARK    1  A    between atoms: N1_4  and  C3_5 
REMARK    2  A    between atoms: C5_7  and  N2_8 
REMARK    3  A    between atoms: N2_8  and  C6_9 
ROOT
HETATM    1  C3  UNL     1      21.893   0.222  52.370  1.00  0.00     0.032 A 
HETATM    2  C4  UNL     1      22.782  -0.201  53.272  1.00  0.00     0.061 A 
HETATM    3  C5  UNL     1      24.129  -0.175  53.395  1.00  0.00     0.144 A 
HETATM    4  N3  UNL     1      24.780  -0.718  54.458  1.00  0.00    -0.223 NA
HETATM    5  C12 UNL     1      24.049  -1.313  55.446  1.00  0.00     0.236 A 
HETATM    6  N4  UNL     1      22.729  -1.348  55.349  1.00  0.00    -0.241 NA
HETATM    7  C13 UNL     1      22.080  -0.821  54.311  1.00  0.00     0.070 A 
HETATM    8  C14 UNL     1      20.789  -0.816  54.125  1.00  0.00     0.012 A 
HETATM    9  C15 UNL     1      20.527  -0.138  52.852  1.00  0.00     0.087 A 
ENDROOT
BRANCH   3  10
HETATM   10  N2  UNL     1      25.021   0.445  52.494  1.00  0.00    -0.340 N 
HETATM   11  H5  UNL     1      25.215   0.900  51.570  1.00  0.00     0.167 HD
BRANCH  10  12
HETATM   12  C6  UNL     1      26.387   0.691  52.902  1.00  0.00     0.035 A 
HETATM   13  C7  UNL     1      26.829   1.986  53.207  1.00  0.00     0.029 A 
HETATM   14  C8  UNL     1      28.141   2.246  53.610  1.00  0.00     0.004 A 
HETATM   15  C9  UNL     1      29.016   1.189  53.708  1.00  0.00     0.019 A 
HETATM   16  C10 UNL     1      28.641  -0.122  53.420  1.00  0.00     0.013 A 
HETATM   17 BR1  UNL     1      29.828  -1.619  53.531  1.00  0.00    -0.051 Br
HETATM   18  C11 UNL     1      27.311  -0.310  53.020  1.00  0.00     0.048 A 
ENDBRANCH  10  12
ENDBRANCH   3  10
BRANCH   1  19
HETATM   19  N1  UNL     1      22.290   0.904  51.147  1.00  0.00    -0.330 N 
HETATM   20  C2  UNL     1      22.351   2.370  51.109  1.00  0.00     0.217 C 
HETATM   21  C1  UNL     1      22.809   2.646  49.692  1.00  0.00     0.117 C 
HETATM   22  O1  UNL     1      22.008   2.730  52.231  1.00  0.00    -0.274 OA
HETATM   23  H4  UNL     1      22.502   0.298  50.348  1.00  0.00     0.168 HD
ENDBRANCH   1  19
TORSDOF 3
ENDMDL
MODEL 3
REMARK VINA RESULT:      -7.4      2.816      5.236
REMARK  3 active torsions:
REMARK  status: ('A' for Active; 'I' for Inactive)
REMARK       I    between atoms: C2_2  and  N1_4 
REMARK    1  A    between atoms: N1_4  and  C3_5 
REMARK    2  A    between atoms: C5_7  and  N2_8 
REMARK    3  A    between atoms: N2_8  and  C6_9 
ROOT
HETATM    1  C3  UNL     1      26.032   3.028  50.472  1.00  0.00     0.032 A 
HETATM    2  C4  UNL     1      25.144   3.937  50.884  1.00  0.00     0.061 A 
HETATM    3  C5  UNL     1      24.182   3.994  51.833  1.00  0.00     0.144 A 
HETATM    4  N3  UNL     1      23.397   5.089  52.018  1.00  0.00    -0.223 NA
HETATM    5  C12 UNL     1      23.584   6.178  51.217  1.00  0.00     0.236 A 
HETATM    6  N4  UNL     1      24.522   6.147  50.282  1.00  0.00    -0.241 NA
HETATM    7  C13 UNL     1      25.297   5.079  50.090  1.00  0.00     0.070 A 
HETATM    8  C14 UNL     1      26.235   4.953  49.194  1.00  0.00     0.012 A 
HETATM    9  C15 UNL     1      26.815   3.615  49.344  1.00  0.00     0.087 A 
ENDROOT
BRANCH   3  10
HETATM   10  N2  UNL     1      23.898   2.980  52.772  1.00  0.00    -0.340 N 
HETATM   11  H5  UNL     1      24.003   2.568  53.730  1.00  0.00     0.167 HD
BRANCH  10  12
HETATM   12  C6  UNL     1      22.991   1.911  52.413  1.00  0.00     0.035 A 
HETATM   13  C7  UNL     1      22.404   1.857  51.141  1.00  0.00     0.029 A 
HETATM   14  C8  UNL     1      21.532   0.831  50.770  1.00  0.00     0.004 A 
HETATM   15  C9  UNL     1      21.250  -0.152  51.690  1.00  0.00     0.019 A 
HETATM   16  C10 UNL     1      21.801  -0.158  52.971  1.00  0.00     0.013 A 
HETATM   17 BR1  UNL     1      21.427  -1.497  54.285  1.00  0.00    -0.051 Br
HETATM   18  C11 UNL     1      22.665   0.902  53.276  1.00  0.00     0.048 A 
ENDBRANCH  10  12
ENDBRANCH   3  10
BRANCH   1  19
HETATM   19  N1  UNL     1      26.135   1.710  51.079  1.00  0.00    -0.330 N 
HETATM   20  C2  UNL     1      27.135   1.456  52.123  1.00  0.00     0.217 C 
HETATM   21  C1  UNL     1      26.889   0.004  52.473  1.00  0.00     0.117 C 
HETATM   22  O1  UNL     1      27.729   2.523  52.256  1.00  0.00    -0.274 OA
HETATM   23  H4  UNL     1      25.484   1.002  50.722  1.00  0.00     0.168 HD
ENDBRANCH   1  19
TORSDOF 3
ENDMDL
MODEL 4
REMARK VINA RESULT:      -7.3      2.273      3.377
REMARK  3 active torsions:
REMARK  status: ('A' for Active; 'I' for Inactive)
REMARK       I    between atoms: C2_2  and  N1_4 
REMARK    1  A    between atoms: N1_4  and  C3_5 
REMARK    2  A    between atoms: C5_7  and  N2_8 
REMARK    3  A    between atoms: N2_8  and  C6_9 
ROOT
HETATM    1  C3  UNL     1      22.977  -0.700  53.636  1.00  0.00     0.032 A 
HETATM    2  C4  UNL     1      24.243  -0.307  53.798  1.00  0.00     0.061 A 
HETATM    3  C5  UNL     1      25.149   0.378  53.062  1.00  0.00     0.144 A 
HETATM    4  N3  UNL     1      26.414   0.623  53.497  1.00  0.00    -0.223 NA
HETATM    5  C12 UNL     1      26.790   0.163  54.726  1.00  0.00     0.236 A 
HETATM    6  N4  UNL     1      25.920  -0.508  55.465  1.00  0.00    -0.241 NA
HETATM    7  C13 UNL     1      24.678  -0.756  55.049  1.00  0.00     0.070 A 
HETATM    8  C14 UNL     1      23.758  -1.412  55.700  1.00  0.00     0.012 A 
HETATM    9  C15 UNL     1      22.558  -1.445  54.860  1.00  0.00     0.087 A 
ENDROOT
BRANCH   3  10
HETATM   10  N2  UNL     1      24.904   0.963  51.802  1.00  0.00    -0.340 N 
HETATM   11  H5  UNL     1      24.801   0.881  50.762  1.00  0.00     0.167 HD
BRANCH  10  12
HETATM   12  C6  UNL     1      24.574   2.370  51.723  1.00  0.00     0.035 A 
HETATM   13  C7  UNL     1      23.806   2.990  52.718  1.00  0.00     0.029 A 
HETATM   14  C8  UNL     1      23.483   4.348  52.667  1.00  0.00     0.004 A 
HETATM   15  C9  UNL     1      23.939   5.089  51.601  1.00  0.00     0.019 A 
HETATM   16  C10 UNL     1      24.707   4.534  50.578  1.00  0.00     0.013 A 
HETATM   17 BR1  UNL     1      25.351   5.523  49.072  1.00  0.00    -0.051 Br
HETATM   18  C11 UNL     1      24.992   3.167  50.693  1.00  0.00     0.048 A 
ENDBRANCH  10  12
ENDBRANCH   3  10
BRANCH   1  19
HETATM   19  N1  UNL     1      22.219  -0.408  52.429  1.00  0.00    -0.330 N 
HETATM   20  C2  UNL     1      21.106   0.547  52.471  1.00  0.00     0.217 C 
HETATM   21  C1  UNL     1      20.625   0.559  51.036  1.00  0.00     0.117 C 
HETATM   22  O1  UNL     1      21.052   0.917  53.641  1.00  0.00    -0.274 OA
HETATM   23  H4  UNL     1      22.511  -0.914  51.587  1.00  0.00     0.168 HD
ENDBRANCH   1  19
TORSDOF 3
ENDMDL
MODEL 5
REMARK VINA RESULT:      -7.3      3.165      5.537
REMARK  3 active torsions:
REMARK  status: ('A' for Active; 'I' for Inactive)
REMARK       I    between atoms: C2_2  and  N1_4 
REMARK    1  A    between atoms: N1_4  and  C3_5 
REMARK    2  A    between atoms: C5_7  and  N2_8 
REMARK    3  A    between atoms: N2_8  and  C6_9 
ROOT
HETATM    1  C3  UNL     1      21.938   0.773  51.209  1.00  0.00     0.032 A 
HETATM    2  C4  UNL     1      22.835   1.709  50.887  1.00  0.00     0.061 A 
HETATM    3  C5  UNL     1      23.858   2.331  51.516  1.00  0.00     0.144 A 
HETATM    4  N3  UNL     1      24.616   3.288  50.917  1.00  0.00    -0.223 NA
HETATM    5  C12 UNL     1      24.338   3.638  49.628  1.00  0.00     0.236 A 
HETATM    6  N4  UNL     1      23.342   3.041  48.990  1.00  0.00    -0.241 NA
HETATM    7  C13 UNL     1      22.592   2.103  49.567  1.00  0.00     0.070 A 
HETATM    8  C14 UNL     1      21.590   1.469  49.025  1.00  0.00     0.012 A 
HETATM    9  C15 UNL     1      21.060   0.538  50.025  1.00  0.00     0.087 A 
ENDROOT
BRANCH   3  10
HETATM   10  N2  UNL     1      24.307   2.048  52.824  1.00  0.00    -0.340 N 
HETATM   11  H5  UNL     1      24.188   2.112  53.864  1.00  0.00     0.167 HD
BRANCH  10  12
HETATM   12  C6  UNL     1      25.495   1.243  53.010  1.00  0.00     0.035 A 
HETATM   13  C7  UNL     1      25.498  -0.124  52.699  1.00  0.00     0.029 A 
HETATM   14  C8  UNL     1      26.635  -0.919  52.862  1.00  0.00     0.004 A 
HETATM   15  C9  UNL     1      27.781  -0.330  53.345  1.00  0.00     0.019 A 
HETATM   16  C10 UNL     1      27.844   1.023  53.674  1.00  0.00     0.013 A 
HETATM   17 BR1  UNL     1      29.412   1.881  54.360  1.00  0.00    -0.051 Br
HETATM   18  C11 UNL     1      26.668   1.760  53.486  1.00  0.00     0.048 A 
ENDBRANCH  10  12
ENDBRANCH   3  10
BRANCH   1  19
HETATM   19  N1  UNL     1      21.900   0.152  52.525  1.00  0.00    -0.330 N 
HETATM   20  C2  UNL     1      21.034   0.703  53.574  1.00  0.00     0.217 C 
HETATM   21  C1  UNL     1      21.287  -0.232  54.738  1.00  0.00     0.117 C 
HETATM   22  O1  UNL     1      20.486   1.671  53.055  1.00  0.00    -0.274 OA
HETATM   23  H4  UNL     1      22.512  -0.660  52.652  1.00  0.00     0.168 HD
ENDBRANCH   1  19
TORSDOF 3
ENDMDL
MODEL 6
REMARK VINA RESULT:      -7.2      2.452      4.661
REMARK  3 active torsions:
REMARK  status: ('A' for Active; 'I' for Inactive)
REMARK       I    between atoms: C2_2  and  N1_4 
REMARK    1  A    between atoms: N1_4  and  C3_5 
REMARK    2  A    between atoms: C5_7  and  N2_8 
REMARK    3  A    between atoms: N2_8  and  C6_9 
ROOT
HETATM    1  C3  UNL     1      24.607  -0.273  53.823  1.00  0.00     0.032 A 
HETATM    2  C4  UNL     1      23.285  -0.265  53.633  1.00  0.00     0.061 A 
HETATM    3  C5  UNL     1      22.443   0.216  52.690  1.00  0.00     0.144 A 
HETATM    4  N3  UNL     1      21.092   0.080  52.774  1.00  0.00    -0.223 NA
HETATM    5  C12 UNL     1      20.560  -0.567  53.851  1.00  0.00     0.236 A 
HETATM    6  N4  UNL     1      21.365  -1.048  54.786  1.00  0.00    -0.241 NA
HETATM    7  C13 UNL     1      22.690  -0.921  54.716  1.00  0.00     0.070 A 
HETATM    8  C14 UNL     1      23.558  -1.351  55.588  1.00  0.00     0.012 A 
HETATM    9  C15 UNL     1      24.892  -0.983  55.106  1.00  0.00     0.087 A 
ENDROOT
BRANCH   3  10
HETATM   10  N2  UNL     1      22.833   0.859  51.496  1.00  0.00    -0.340 N 
HETATM   11  H5  UNL     1      23.010   0.837  50.463  1.00  0.00     0.167 HD
BRANCH  10  12
HETATM   12  C6  UNL     1      23.144   2.272  51.518  1.00  0.00     0.035 A 
HETATM   13  C7  UNL     1      22.543   3.131  52.449  1.00  0.00     0.029 A 
HETATM   14  C8  UNL     1      22.834   4.496  52.494  1.00  0.00     0.004 A 
HETATM   15  C9  UNL     1      23.741   5.001  51.591  1.00  0.00     0.019 A 
HETATM   16  C10 UNL     1      24.374   4.202  50.639  1.00  0.00     0.013 A 
HETATM   17 BR1  UNL     1      25.631   4.864  49.358  1.00  0.00    -0.051 Br
HETATM   18  C11 UNL     1      24.034   2.843  50.651  1.00  0.00     0.048 A 
ENDBRANCH  10  12
ENDBRANCH   3  10
BRANCH   1  19
HETATM   19  N1  UNL     1      25.533   0.342  52.884  1.00  0.00    -0.330 N 
HETATM   20  C2  UNL     1      26.308   1.523  53.280  1.00  0.00     0.217 C 
HETATM   21  C1  UNL     1      27.128   1.813  52.041  1.00  0.00     0.117 C 
HETATM   22  O1  UNL     1      25.958   1.757  54.434  1.00  0.00    -0.274 OA
HETATM   23  H4  UNL     1      25.584  -0.096  51.958  1.00  0.00     0.168 HD
ENDBRANCH   1  19
TORSDOF 3
ENDMDL
MODEL 7
REMARK VINA RESULT:      -7.1      1.952      4.044
REMARK  3 active torsions:
REMARK  status: ('A' for Active; 'I' for Inactive)
REMARK       I    between atoms: C2_2  and  N1_4 
REMARK    1  A    between atoms: N1_4  and  C3_5 
REMARK    2  A    between atoms: C5_7  and  N2_8 
REMARK    3  A    between atoms: N2_8  and  C6_9 
ROOT
HETATM    1  C3  UNL     1      25.258  -0.075  53.984  1.00  0.00     0.032 A 
HETATM    2  C4  UNL     1      24.453   0.400  53.031  1.00  0.00     0.061 A 
HETATM    3  C5  UNL     1      24.592   1.214  51.960  1.00  0.00     0.144 A 
HETATM    4  N3  UNL     1      23.552   1.543  51.147  1.00  0.00    -0.223 NA
HETATM    5  C12 UNL     1      22.315   1.033  51.420  1.00  0.00     0.236 A 
HETATM    6  N4  UNL     1      22.155   0.233  52.462  1.00  0.00    -0.241 NA
HETATM    7  C13 UNL     1      23.166  -0.096  53.266  1.00  0.00     0.070 A 
HETATM    8  C14 UNL     1      23.104  -0.866  54.316  1.00  0.00     0.012 A 
HETATM    9  C15 UNL     1      24.449  -0.940  54.894  1.00  0.00     0.087 A 
ENDROOT
BRANCH   3  10
HETATM   10  N2  UNL     1      25.806   1.778  51.512  1.00  0.00    -0.340 N 
HETATM   11  H5  UNL     1      26.847   1.730  51.395  1.00  0.00     0.167 HD
BRANCH  10  12
HETATM   12  C6  UNL     1      25.785   3.037  50.801  1.00  0.00     0.035 A 
HETATM   13  C7  UNL     1      26.672   3.286  49.744  1.00  0.00     0.029 A 
HETATM   14  C8  UNL     1      26.665   4.491  49.038  1.00  0.00     0.004 A 
HETATM   15  C9  UNL     1      25.754   5.456  49.400  1.00  0.00     0.019 A 
HETATM   16  C10 UNL     1      24.844   5.273  50.441  1.00  0.00     0.013 A 
HETATM   17 BR1  UNL     1      23.569   6.591  50.986  1.00  0.00    -0.051 Br
HETATM   18  C11 UNL     1      24.908   4.041  51.106  1.00  0.00     0.048 A 
ENDBRANCH  10  12
ENDBRANCH   3  10
BRANCH   1  19
HETATM   19  N1  UNL     1      26.673   0.258  54.046  1.00  0.00    -0.330 N 
HETATM   20  C2  UNL     1      27.675  -0.689  53.545  1.00  0.00     0.217 C 
HETATM   21  C1  UNL     1      28.976   0.047  53.783  1.00  0.00     0.117 C 
HETATM   22  O1  UNL     1      27.028  -1.656  53.153  1.00  0.00    -0.274 OA
HETATM   23  H4  UNL     1      26.899   1.168  54.463  1.00  0.00     0.168 HD
ENDBRANCH   1  19
TORSDOF 3
ENDMDL
MODEL 8
REMARK VINA RESULT:      -7.0      3.375      6.526
REMARK  3 active torsions:
REMARK  status: ('A' for Active; 'I' for Inactive)
REMARK       I    between atoms: C2_2  and  N1_4 
REMARK    1  A    between atoms: N1_4  and  C3_5 
REMARK    2  A    between atoms: C5_7  and  N2_8 
REMARK    3  A    between atoms: N2_8  and  C6_9 
ROOT
HETATM    1  C3  UNL     1      23.606   4.296  51.415  1.00  0.00     0.032 A 
HETATM    2  C4  UNL     1      22.759   3.336  51.796  1.00  0.00     0.061 A 
HETATM    3  C5  UNL     1      22.794   1.987  51.878  1.00  0.00     0.144 A 
HETATM    4  N3  UNL     1      21.735   1.249  52.306  1.00  0.00    -0.223 NA
HETATM    5  C12 UNL     1      20.588   1.892  52.670  1.00  0.00     0.236 A 
HETATM    6  N4  UNL     1      20.530   3.213  52.601  1.00  0.00    -0.241 NA
HETATM    7  C13 UNL     1      21.561   3.947  52.182  1.00  0.00     0.070 A 
HETATM    8  C14 UNL     1      21.595   5.246  52.072  1.00  0.00     0.012 A 
HETATM    9  C15 UNL     1      22.921   5.614  51.567  1.00  0.00     0.087 A 
ENDROOT
BRANCH   3  10
HETATM   10  N2  UNL     1      23.915   1.179  51.591  1.00  0.00    -0.340 N 
HETATM   11  H5  UNL     1      24.498   0.633  50.911  1.00  0.00     0.167 HD
BRANCH  10  12
HETATM   12  C6  UNL     1      24.869   0.888  52.640  1.00  0.00     0.035 A 
HETATM   13  C7  UNL     1      24.607  -0.095  53.604  1.00  0.00     0.029 A 
HETATM   14  C8  UNL     1      25.516  -0.398  54.620  1.00  0.00     0.004 A 
HETATM   15  C9  UNL     1      26.703   0.296  54.664  1.00  0.00     0.019 A 
HETATM   16  C10 UNL     1      27.026   1.285  53.736  1.00  0.00     0.013 A 
HETATM   17 BR1  UNL     1      28.658   2.282  53.766  1.00  0.00    -0.051 Br
HETATM   18  C11 UNL     1      26.067   1.537  52.745  1.00  0.00     0.048 A 
ENDBRANCH  10  12
ENDBRANCH   3  10
BRANCH   1  19
HETATM   19  N1  UNL     1      24.950   4.004  50.938  1.00  0.00    -0.330 N 
HETATM   20  C2  UNL     1      25.200   3.832  49.502  1.00  0.00     0.217 C 
HETATM   21  C1  UNL     1      26.689   3.566  49.454  1.00  0.00     0.117 C 
HETATM   22  O1  UNL     1      24.102   3.979  48.971  1.00  0.00    -0.274 OA
HETATM   23  H4  UNL     1      25.671   3.922  51.662  1.00  0.00     0.168 HD
ENDBRANCH   1  19
TORSDOF 3
ENDMDL
MODEL 9
REMARK VINA RESULT:      -6.8      3.316      5.530
REMARK  3 active torsions:
REMARK  status: ('A' for Active; 'I' for Inactive)
REMARK       I    between atoms: C2_2  and  N1_4 
REMARK    1  A    between atoms: N1_4  and  C3_5 
REMARK    2  A    between atoms: C5_7  and  N2_8 
REMARK    3  A    between atoms: N2_8  and  C6_9 
ROOT
HETATM    1  C3  UNL     1      24.588   4.796  49.985  1.00  0.00     0.032 A 
HETATM    2  C4  UNL     1      25.081   3.831  50.765  1.00  0.00     0.061 A 
HETATM    3  C5  UNL     1      24.635   3.112  51.821  1.00  0.00     0.144 A 
HETATM    4  N3  UNL     1      25.394   2.171  52.443  1.00  0.00    -0.223 NA
HETATM    5  C12 UNL     1      26.660   1.938  51.987  1.00  0.00     0.236 A 
HETATM    6  N4  UNL     1      27.118   2.628  50.954  1.00  0.00    -0.241 NA
HETATM    7  C13 UNL     1      26.383   3.553  50.337  1.00  0.00     0.070 A 
HETATM    8  C14 UNL     1      26.751   4.286  49.323  1.00  0.00     0.012 A 
HETATM    9  C15 UNL     1      25.630   5.166  48.982  1.00  0.00     0.087 A 
ENDROOT
BRANCH   3  10
HETATM   10  N2  UNL     1      23.340   3.194  52.377  1.00  0.00    -0.340 N 
HETATM   11  H5  UNL     1      22.613   3.713  52.925  1.00  0.00     0.167 HD
BRANCH  10  12
HETATM   12  C6  UNL     1      22.394   2.126  52.135  1.00  0.00     0.035 A 
HETATM   13  C7  UNL     1      21.655   2.070  50.944  1.00  0.00     0.029 A 
HETATM   14  C8  UNL     1      20.742   1.045  50.686  1.00  0.00     0.004 A 
HETATM   15  C9  UNL     1      20.572   0.065  51.637  1.00  0.00     0.019 A 
HETATM   16  C10 UNL     1      21.275   0.062  52.841  1.00  0.00     0.013 A 
HETATM   17 BR1  UNL     1      21.061  -1.272  54.196  1.00  0.00    -0.051 Br
HETATM   18  C11 UNL     1      22.173   1.120  53.034  1.00  0.00     0.048 A 
ENDBRANCH  10  12
ENDBRANCH   3  10
BRANCH   1  19
HETATM   19  N1  UNL     1      23.249   5.336  50.167  1.00  0.00    -0.330 N 
HETATM   20  C2  UNL     1      23.051   6.568  50.939  1.00  0.00     0.217 C 
HETATM   21  C1  UNL     1      21.553   6.770  50.864  1.00  0.00     0.117 C 
HETATM   22  O1  UNL     1      24.177   6.896  51.305  1.00  0.00    -0.274 OA
HETATM   23  H4  UNL     1      22.489   4.798  49.737  1.00  0.00     0.168 HD
ENDBRANCH   1  19
TORSDOF 3
ENDMDL
