MODEL 1
REMARK VINA RESULT:     -10.0      0.000      0.000
REMARK  3 active torsions:
REMARK  status: ('A' for Active; 'I' for Inactive)
REMARK       I    between atoms: N1_1  and  C1_2 
REMARK       I    between atoms: C1_2  and  N2_4 
REMARK    1  A    between atoms: C13_20  and  O2_21 
REMARK    2  A    between atoms: O2_21  and  C14_22 
REMARK    3  A    between atoms: C14_22  and  C15_23 
ROOT
HETATM    1  N1  UNL     1      25.225   7.624  50.811  1.00  0.00    -0.352 N 
HETATM    2  C1  UNL     1      24.140   6.673  50.943  1.00  0.00     0.318 C 
HETATM    3  O1  UNL     1      23.067   6.902  50.361  1.00  0.00    -0.247 OA
HETATM    4  N2  UNL     1      24.461   5.568  51.746  1.00  0.00    -0.315 N 
HETATM    5  C2  UNL     1      23.485   4.630  51.917  1.00  0.00     0.015 A 
HETATM    6  C3  UNL     1      23.597   3.468  52.665  1.00  0.00     0.090 A 
HETATM    7  C4  UNL     1      23.943   2.432  51.744  1.00  0.00     0.146 C 
HETATM    8  N3  UNL     1      23.581   2.779  50.403  1.00  0.00    -0.225 NA
HETATM    9  C5  UNL     1      22.543   2.557  49.704  1.00  0.00     0.235 C 
HETATM   10  N4  UNL     1      21.342   1.891  49.931  1.00  0.00    -0.246 NA
HETATM   11  C6  UNL     1      20.635   1.862  50.968  1.00  0.00     0.036 C 
HETATM   12  C7  UNL     1      21.504   2.747  51.684  1.00  0.00     0.043 C 
HETATM   13  C8  UNL     1      22.428   3.632  51.935  1.00  0.00     0.060 A 
HETATM   14  C9  UNL     1      19.678   1.713  52.119  1.00  0.00     0.087 C 
HETATM   15  C10 UNL     1      20.541   1.331  53.302  1.00  0.00     0.002 C 
HETATM   16  C11 UNL     1      21.604   0.580  53.416  1.00  0.00     0.047 A 
HETATM   17 CL1  UNL     1      21.911  -0.020  51.804  1.00  0.00    -0.138 Cl
HETATM   18  C12 UNL     1      22.800  -0.238  53.660  1.00  0.00     0.323 A 
HETATM   19  F1  UNL     1      22.712  -1.526  53.222  1.00  0.00    -0.223 F 
HETATM   20  C13 UNL     1      24.060   0.407  53.109  1.00  0.00     0.192 C 
HETATM   21  N5  UNL     1      24.556   1.356  52.421  1.00  0.00    -0.208 NA
HETATM   22  H1  UNL     1      26.262   7.466  50.671  1.00  0.00     0.160 HD
HETATM   23  H2  UNL     1      25.242   8.683  50.823  1.00  0.00     0.160 HD
HETATM   24  H3  UNL     1      25.314   5.313  52.252  1.00  0.00     0.170 HD
ENDROOT
BRANCH  20  25
HETATM   25  O2  UNL     1      25.111  -0.390  53.544  1.00  0.00    -0.330 OA
BRANCH  25  26
HETATM   26  C14 UNL     1      25.996  -1.116  52.749  1.00  0.00     0.215 C 
BRANCH  26  27
HETATM   27  C15 UNL     1      27.405  -0.785  53.058  1.00  0.00    -0.034 A 
HETATM   28  C16 UNL     1      27.839   0.502  53.264  1.00  0.00     0.009 A 
HETATM   29  C17 UNL     1      29.160   0.776  53.562  1.00  0.00     0.001 A 
HETATM   30  C18 UNL     1      30.101  -0.256  53.663  1.00  0.00     0.000 A 
HETATM   31  C19 UNL     1      29.698  -1.549  53.461  1.00  0.00     0.001 A 
HETATM   32  C20 UNL     1      28.359  -1.760  53.165  1.00  0.00     0.009 A 
ENDBRANCH  26  27
ENDBRANCH  25  26
ENDBRANCH  20  25
TORSDOF 3
ENDMDL
MODEL 2
REMARK VINA RESULT:      -9.2      2.856      4.812
REMARK  3 active torsions:
REMARK  status: ('A' for Active; 'I' for Inactive)
REMARK       I    between atoms: N1_1  and  C1_2 
REMARK       I    between atoms: C1_2  and  N2_4 
REMARK    1  A    between atoms: C13_20  and  O2_21 
REMARK    2  A    between atoms: O2_21  and  C14_22 
REMARK    3  A    between atoms: C14_22  and  C15_23 
ROOT
HETATM    1  N1  UNL     1      16.728  -1.405  53.087  1.00  0.00    -0.352 N 
HETATM    2  C1  UNL     1      17.487  -0.456  52.296  1.00  0.00     0.318 C 
HETATM    3  O1  UNL     1      16.875   0.359  51.587  1.00  0.00    -0.247 OA
HETATM    4  N2  UNL     1      18.876  -0.589  52.445  1.00  0.00    -0.315 N 
HETATM    5  C2  UNL     1      19.655   0.272  51.728  1.00  0.00     0.015 A 
HETATM    6  C3  UNL     1      21.040   0.310  51.734  1.00  0.00     0.090 A 
HETATM    7  C4  UNL     1      21.408   1.318  52.678  1.00  0.00     0.146 C 
HETATM    8  N3  UNL     1      20.337   2.241  52.904  1.00  0.00    -0.225 NA
HETATM    9  C5  UNL     1      20.033   3.357  52.376  1.00  0.00     0.235 C 
HETATM   10  N4  UNL     1      20.599   4.147  51.380  1.00  0.00    -0.246 NA
HETATM   11  C6  UNL     1      21.141   3.799  50.302  1.00  0.00     0.036 C 
HETATM   12  C7  UNL     1      20.894   2.407  50.533  1.00  0.00     0.043 C 
HETATM   13  C8  UNL     1      20.389   1.309  51.024  1.00  0.00     0.060 A 
HETATM   14  C9  UNL     1      21.823   3.559  48.983  1.00  0.00     0.087 C 
HETATM   15  C10 UNL     1      22.878   2.513  49.269  1.00  0.00     0.002 C 
HETATM   16  C11 UNL     1      23.657   2.301  50.296  1.00  0.00     0.047 A 
HETATM   17 CL1  UNL     1      23.275   3.575  51.428  1.00  0.00    -0.138 Cl
HETATM   18  C12 UNL     1      24.575   1.967  51.394  1.00  0.00     0.323 A 
HETATM   19  F1  UNL     1      25.382   2.989  51.797  1.00  0.00    -0.223 F 
HETATM   20  C13 UNL     1      23.850   1.381  52.593  1.00  0.00     0.192 C 
HETATM   21  N5  UNL     1      22.729   1.110  53.130  1.00  0.00    -0.208 NA
HETATM   22  H1  UNL     1      16.874  -1.741  54.079  1.00  0.00     0.160 HD
HETATM   23  H2  UNL     1      15.866  -1.977  52.866  1.00  0.00     0.160 HD
HETATM   24  H3  UNL     1      19.447  -1.229  53.005  1.00  0.00     0.170 HD
ENDROOT
BRANCH  20  25
HETATM   25  O2  UNL     1      24.846   0.976  53.473  1.00  0.00    -0.330 OA
BRANCH  25  26
HETATM   26  C14 UNL     1      25.312  -0.323  53.670  1.00  0.00     0.215 C 
BRANCH  26  27
HETATM   27  C15 UNL     1      26.791  -0.368  53.729  1.00  0.00    -0.034 A 
HETATM   28  C16 UNL     1      27.533  -1.322  53.077  1.00  0.00     0.009 A 
HETATM   29  C17 UNL     1      28.913  -1.329  53.145  1.00  0.00     0.001 A 
HETATM   30  C18 UNL     1      29.599  -0.358  53.884  1.00  0.00     0.000 A 
HETATM   31  C19 UNL     1      28.886   0.606  54.546  1.00  0.00     0.001 A 
HETATM   32  C20 UNL     1      27.503   0.560  54.440  1.00  0.00     0.009 A 
ENDBRANCH  26  27
ENDBRANCH  25  26
ENDBRANCH  20  25
TORSDOF 3
ENDMDL
MODEL 3
REMARK VINA RESULT:      -9.0      3.508      6.224
REMARK  3 active torsions:
REMARK  status: ('A' for Active; 'I' for Inactive)
REMARK       I    between atoms: N1_1  and  C1_2 
REMARK       I    between atoms: C1_2  and  N2_4 
REMARK    1  A    between atoms: C13_20  and  O2_21 
REMARK    2  A    between atoms: O2_21  and  C14_22 
REMARK    3  A    between atoms: C14_22  and  C15_23 
ROOT
HETATM    1  N1  UNL     1      24.247  -1.619  56.110  1.00  0.00    -0.352 N 
HETATM    2  C1  UNL     1      23.429  -1.181  54.997  1.00  0.00     0.318 C 
HETATM    3  O1  UNL     1      22.225  -1.483  54.982  1.00  0.00    -0.247 OA
HETATM    4  N2  UNL     1      24.139  -0.440  54.040  1.00  0.00    -0.315 N 
HETATM    5  C2  UNL     1      23.432   0.005  52.961  1.00  0.00     0.015 A 
HETATM    6  C3  UNL     1      23.940   0.752  51.910  1.00  0.00     0.090 A 
HETATM    7  C4  UNL     1      23.655   2.118  52.217  1.00  0.00     0.146 C 
HETATM    8  N3  UNL     1      22.579   2.232  53.155  1.00  0.00    -0.225 NA
HETATM    9  C5  UNL     1      21.324   2.378  53.016  1.00  0.00     0.235 C 
HETATM   10  N4  UNL     1      20.474   2.495  51.920  1.00  0.00    -0.246 NA
HETATM   11  C6  UNL     1      20.514   1.895  50.818  1.00  0.00     0.036 C 
HETATM   12  C7  UNL     1      21.657   1.116  51.190  1.00  0.00     0.043 C 
HETATM   13  C8  UNL     1      22.569   0.535  51.919  1.00  0.00     0.060 A 
HETATM   14  C9  UNL     1      20.417   1.278  49.450  1.00  0.00     0.087 C 
HETATM   15  C10 UNL     1      21.804   1.411  48.858  1.00  0.00     0.002 C 
HETATM   16  C11 UNL     1      22.713   2.345  48.937  1.00  0.00     0.047 A 
HETATM   17 CL1  UNL     1      21.999   3.592  49.930  1.00  0.00    -0.138 Cl
HETATM   18  C12 UNL     1      23.806   3.327  48.958  1.00  0.00     0.323 A 
HETATM   19  F1  UNL     1      23.450   4.588  48.580  1.00  0.00    -0.223 F 
HETATM   20  C13 UNL     1      24.512   3.373  50.302  1.00  0.00     0.192 C 
HETATM   21  N5  UNL     1      24.526   2.974  51.510  1.00  0.00    -0.208 NA
HETATM   22  H1  UNL     1      24.999  -1.107  56.651  1.00  0.00     0.160 HD
HETATM   23  H2  UNL     1      24.290  -2.536  56.638  1.00  0.00     0.160 HD
HETATM   24  H3  UNL     1      25.121  -0.154  53.985  1.00  0.00     0.170 HD
ENDROOT
BRANCH  20  25
HETATM   25  O2  UNL     1      25.601   4.218  50.126  1.00  0.00    -0.330 OA
BRANCH  25  26
HETATM   26  C14 UNL     1      26.735   3.972  49.355  1.00  0.00     0.215 C 
BRANCH  26  27
HETATM   27  C15 UNL     1      27.225   5.205  48.697  1.00  0.00    -0.034 A 
HETATM   28  C16 UNL     1      26.404   6.264  48.396  1.00  0.00     0.009 A 
HETATM   29  C17 UNL     1      26.896   7.405  47.791  1.00  0.00     0.001 A 
HETATM   30  C18 UNL     1      28.253   7.515  47.465  1.00  0.00     0.000 A 
HETATM   31  C19 UNL     1      29.096   6.473  47.751  1.00  0.00     0.001 A 
HETATM   32  C20 UNL     1      28.543   5.356  48.359  1.00  0.00     0.009 A 
ENDBRANCH  26  27
ENDBRANCH  25  26
ENDBRANCH  20  25
TORSDOF 3
ENDMDL
MODEL 4
REMARK VINA RESULT:      -9.0      3.123      5.172
REMARK  3 active torsions:
REMARK  status: ('A' for Active; 'I' for Inactive)
REMARK       I    between atoms: N1_1  and  C1_2 
REMARK       I    between atoms: C1_2  and  N2_4 
REMARK    1  A    between atoms: C13_20  and  O2_21 
REMARK    2  A    between atoms: O2_21  and  C14_22 
REMARK    3  A    between atoms: C14_22  and  C15_23 
ROOT
HETATM    1  N1  UNL     1      29.054   9.576  50.085  1.00  0.00    -0.352 N 
HETATM    2  C1  UNL     1      27.616   9.515  49.909  1.00  0.00     0.318 C 
HETATM    3  O1  UNL     1      27.044  10.445  49.318  1.00  0.00    -0.247 OA
HETATM    4  N2  UNL     1      27.036   8.360  50.454  1.00  0.00    -0.315 N 
HETATM    5  C2  UNL     1      25.683   8.235  50.327  1.00  0.00     0.015 A 
HETATM    6  C3  UNL     1      24.918   7.176  50.790  1.00  0.00     0.090 A 
HETATM    7  C4  UNL     1      24.751   6.289  49.682  1.00  0.00     0.146 C 
HETATM    8  N3  UNL     1      24.955   6.963  48.435  1.00  0.00    -0.225 NA
HETATM    9  C5  UNL     1      24.163   7.542  47.627  1.00  0.00     0.235 C 
HETATM   10  N4  UNL     1      22.788   7.761  47.601  1.00  0.00    -0.246 NA
HETATM   11  C6  UNL     1      22.012   8.045  48.546  1.00  0.00     0.036 C 
HETATM   12  C7  UNL     1      23.068   8.076  49.513  1.00  0.00     0.043 C 
HETATM   13  C8  UNL     1      24.263   8.137  50.033  1.00  0.00     0.060 A 
HETATM   14  C9  UNL     1      20.948   8.378  49.555  1.00  0.00     0.087 C 
HETATM   15  C10 UNL     1      21.143   7.383  50.678  1.00  0.00     0.002 C 
HETATM   16  C11 UNL     1      21.489   6.123  50.693  1.00  0.00     0.047 A 
HETATM   17 CL1  UNL     1      21.696   5.688  49.014  1.00  0.00    -0.138 Cl
HETATM   18  C12 UNL     1      21.871   4.711  50.829  1.00  0.00     0.323 A 
HETATM   19  F1  UNL     1      21.118   3.841  50.098  1.00  0.00    -0.223 F 
HETATM   20  C13 UNL     1      23.345   4.484  50.541  1.00  0.00     0.192 C 
HETATM   21  N5  UNL     1      24.439   4.989  50.133  1.00  0.00    -0.208 NA
HETATM   22  H1  UNL     1      29.788   8.820  49.991  1.00  0.00     0.160 HD
HETATM   23  H2  UNL     1      29.700  10.373  50.345  1.00  0.00     0.160 HD
HETATM   24  H3  UNL     1      27.438   7.559  50.950  1.00  0.00     0.170 HD
ENDROOT
BRANCH  20  25
HETATM   25  O2  UNL     1      23.589   3.153  50.856  1.00  0.00    -0.330 OA
BRANCH  25  26
HETATM   26  C14 UNL     1      23.453   2.550  52.106  1.00  0.00     0.215 C 
BRANCH  26  27
HETATM   27  C15 UNL     1      24.461   1.484  52.309  1.00  0.00    -0.034 A 
HETATM   28  C16 UNL     1      25.701   1.511  51.721  1.00  0.00     0.009 A 
HETATM   29  C17 UNL     1      26.622   0.505  51.940  1.00  0.00     0.001 A 
HETATM   30  C18 UNL     1      26.316  -0.579  52.772  1.00  0.00     0.000 A 
HETATM   31  C19 UNL     1      25.085  -0.634  53.371  1.00  0.00     0.001 A 
HETATM   32  C20 UNL     1      24.204   0.406  53.112  1.00  0.00     0.009 A 
ENDBRANCH  26  27
ENDBRANCH  25  26
ENDBRANCH  20  25
TORSDOF 3
ENDMDL
MODEL 5
REMARK VINA RESULT:      -8.8      7.855     10.968
REMARK  3 active torsions:
REMARK  status: ('A' for Active; 'I' for Inactive)
REMARK       I    between atoms: N1_1  and  C1_2 
REMARK       I    between atoms: C1_2  and  N2_4 
REMARK    1  A    between atoms: C13_20  and  O2_21 
REMARK    2  A    between atoms: O2_21  and  C14_22 
REMARK    3  A    between atoms: C14_22  and  C15_23 
ROOT
HETATM    1  N1  UNL     1      35.070   4.125  48.926  1.00  0.00    -0.352 N 
HETATM    2  C1  UNL     1      34.625   5.481  48.675  1.00  0.00     0.318 C 
HETATM    3  O1  UNL     1      35.405   6.278  48.127  1.00  0.00    -0.247 OA
HETATM    4  N2  UNL     1      33.311   5.725  49.102  1.00  0.00    -0.315 N 
HETATM    5  C2  UNL     1      32.824   6.984  48.899  1.00  0.00     0.015 A 
HETATM    6  C3  UNL     1      31.558   7.430  49.243  1.00  0.00     0.090 A 
HETATM    7  C4  UNL     1      30.758   7.310  48.064  1.00  0.00     0.146 C 
HETATM    8  N3  UNL     1      31.567   7.272  46.883  1.00  0.00    -0.225 NA
HETATM    9  C5  UNL     1      31.969   8.174  46.083  1.00  0.00     0.235 C 
HETATM   10  N4  UNL     1      31.795   9.554  46.005  1.00  0.00    -0.246 NA
HETATM   11  C6  UNL     1      31.768  10.403  46.930  1.00  0.00     0.036 C 
HETATM   12  C7  UNL     1      32.011   9.424  47.947  1.00  0.00     0.043 C 
HETATM   13  C8  UNL     1      32.358   8.309  48.528  1.00  0.00     0.060 A 
HETATM   14  C9  UNL     1      31.703  11.544  47.907  1.00  0.00     0.087 C 
HETATM   15  C10 UNL     1      30.709  11.105  48.960  1.00  0.00     0.002 C 
HETATM   16  C11 UNL     1      29.600  10.418  48.898  1.00  0.00     0.047 A 
HETATM   17 CL1  UNL     1      29.386  10.052  47.203  1.00  0.00    -0.138 Cl
HETATM   18  C12 UNL     1      28.345   9.655  48.946  1.00  0.00     0.323 A 
HETATM   19  F1  UNL     1      27.365  10.111  48.116  1.00  0.00    -0.223 F 
HETATM   20  C13 UNL     1      28.565   8.171  48.715  1.00  0.00     0.192 C 
HETATM   21  N5  UNL     1      29.389   7.253  48.401  1.00  0.00    -0.208 NA
HETATM   22  H1  UNL     1      34.561   3.205  48.811  1.00  0.00     0.160 HD
HETATM   23  H2  UNL     1      35.991   3.737  49.276  1.00  0.00     0.160 HD
HETATM   24  H3  UNL     1      32.615   5.126  49.555  1.00  0.00     0.170 HD
ENDROOT
BRANCH  20  25
HETATM   25  O2  UNL     1      27.334   7.568  48.941  1.00  0.00    -0.330 OA
BRANCH  25  26
HETATM   26  C14 UNL     1      26.758   6.536  48.202  1.00  0.00     0.215 C 
BRANCH  26  27
HETATM   27  C15 UNL     1      26.324   5.419  49.072  1.00  0.00    -0.034 A 
HETATM   28  C16 UNL     1      26.982   4.215  49.120  1.00  0.00     0.009 A 
HETATM   29  C17 UNL     1      26.556   3.196  49.951  1.00  0.00     0.001 A 
HETATM   30  C18 UNL     1      25.435   3.363  50.773  1.00  0.00     0.000 A 
HETATM   31  C19 UNL     1      24.757   4.553  50.745  1.00  0.00     0.001 A 
HETATM   32  C20 UNL     1      25.233   5.537  49.890  1.00  0.00     0.009 A 
ENDBRANCH  26  27
ENDBRANCH  25  26
ENDBRANCH  20  25
TORSDOF 3
ENDMDL
MODEL 6
REMARK VINA RESULT:      -8.7      6.722      9.501
REMARK  3 active torsions:
REMARK  status: ('A' for Active; 'I' for Inactive)
REMARK       I    between atoms: N1_1  and  C1_2 
REMARK       I    between atoms: C1_2  and  N2_4 
REMARK    1  A    between atoms: C13_20  and  O2_21 
REMARK    2  A    between atoms: O2_21  and  C14_22 
REMARK    3  A    between atoms: C14_22  and  C15_23 
ROOT
HETATM    1  N1  UNL     1      35.424   4.794  49.201  1.00  0.00    -0.352 N 
HETATM    2  C1  UNL     1      34.444   5.831  48.947  1.00  0.00     0.318 C 
HETATM    3  O1  UNL     1      34.826   6.916  48.480  1.00  0.00    -0.247 OA
HETATM    4  N2  UNL     1      33.134   5.453  49.276  1.00  0.00    -0.315 N 
HETATM    5  C2  UNL     1      32.156   6.382  49.065  1.00  0.00     0.015 A 
HETATM    6  C3  UNL     1      30.805   6.210  49.319  1.00  0.00     0.090 A 
HETATM    7  C4  UNL     1      30.212   5.818  48.079  1.00  0.00     0.146 C 
HETATM    8  N3  UNL     1      31.024   6.202  46.964  1.00  0.00    -0.225 NA
HETATM    9  C5  UNL     1      31.036   7.231  46.218  1.00  0.00     0.235 C 
HETATM   10  N4  UNL     1      30.279   8.398  46.159  1.00  0.00    -0.246 NA
HETATM   11  C6  UNL     1      29.826   9.098  47.098  1.00  0.00     0.036 C 
HETATM   12  C7  UNL     1      30.412   8.270  48.108  1.00  0.00     0.043 C 
HETATM   13  C8  UNL     1      31.179   7.389  48.689  1.00  0.00     0.060 A 
HETATM   14  C9  UNL     1      29.207  10.041  48.093  1.00  0.00     0.087 C 
HETATM   15  C10 UNL     1      28.446   9.156  49.055  1.00  0.00     0.002 C 
HETATM   16  C11 UNL     1      27.758   8.058  48.891  1.00  0.00     0.047 A 
HETATM   17 CL1  UNL     1      27.828   7.728  47.177  1.00  0.00    -0.138 Cl
HETATM   18  C12 UNL     1      26.965   6.822  48.824  1.00  0.00     0.323 A 
HETATM   19  F1  UNL     1      25.937   6.849  47.930  1.00  0.00    -0.223 F 
HETATM   20  C13 UNL     1      27.829   5.597  48.577  1.00  0.00     0.192 C 
HETATM   21  N5  UNL     1      28.989   5.151  48.307  1.00  0.00    -0.208 NA
HETATM   22  H1  UNL     1      35.379   3.751  49.026  1.00  0.00     0.160 HD
HETATM   23  H2  UNL     1      36.399   4.828  49.613  1.00  0.00     0.160 HD
HETATM   24  H3  UNL     1      32.746   4.586  49.660  1.00  0.00     0.170 HD
ENDROOT
BRANCH  20  25
HETATM   25  O2  UNL     1      26.976   4.506  48.693  1.00  0.00    -0.330 OA
BRANCH  25  26
HETATM   26  C14 UNL     1      26.809   3.690  49.810  1.00  0.00     0.215 C 
BRANCH  26  27
HETATM   27  C15 UNL     1      25.401   3.255  49.961  1.00  0.00    -0.034 A 
HETATM   28  C16 UNL     1      24.972   2.474  51.005  1.00  0.00     0.009 A 
HETATM   29  C17 UNL     1      23.648   2.094  51.122  1.00  0.00     0.001 A 
HETATM   30  C18 UNL     1      22.701   2.497  50.173  1.00  0.00     0.000 A 
HETATM   31  C19 UNL     1      23.100   3.276  49.119  1.00  0.00     0.001 A 
HETATM   32  C20 UNL     1      24.441   3.624  49.058  1.00  0.00     0.009 A 
ENDBRANCH  26  27
ENDBRANCH  25  26
ENDBRANCH  20  25
TORSDOF 3
ENDMDL
MODEL 7
REMARK VINA RESULT:      -8.7      3.210      6.313
REMARK  3 active torsions:
REMARK  status: ('A' for Active; 'I' for Inactive)
REMARK       I    between atoms: N1_1  and  C1_2 
REMARK       I    between atoms: C1_2  and  N2_4 
REMARK    1  A    between atoms: C13_20  and  O2_21 
REMARK    2  A    between atoms: O2_21  and  C14_22 
REMARK    3  A    between atoms: C14_22  and  C15_23 
ROOT
HETATM    1  N1  UNL     1      26.810   0.639  54.980  1.00  0.00    -0.352 N 
HETATM    2  C1  UNL     1      25.769   0.597  53.972  1.00  0.00     0.318 C 
HETATM    3  O1  UNL     1      24.915  -0.303  54.028  1.00  0.00    -0.247 OA
HETATM    4  N2  UNL     1      25.868   1.628  53.025  1.00  0.00    -0.315 N 
HETATM    5  C2  UNL     1      24.920   1.651  52.043  1.00  0.00     0.015 A 
HETATM    6  C3  UNL     1      24.835   2.580  51.019  1.00  0.00     0.090 A 
HETATM    7  C4  UNL     1      23.904   3.572  51.455  1.00  0.00     0.146 C 
HETATM    8  N3  UNL     1      23.041   3.067  52.481  1.00  0.00    -0.225 NA
HETATM    9  C5  UNL     1      21.894   2.521  52.452  1.00  0.00     0.235 C 
HETATM   10  N4  UNL     1      20.999   2.191  51.438  1.00  0.00    -0.246 NA
HETATM   11  C6  UNL     1      21.231   1.734  50.292  1.00  0.00     0.036 C 
HETATM   12  C7  UNL     1      22.646   1.680  50.511  1.00  0.00     0.043 C 
HETATM   13  C8  UNL     1      23.800   1.662  51.118  1.00  0.00     0.060 A 
HETATM   14  C9  UNL     1      21.329   1.196  48.891  1.00  0.00     0.087 C 
HETATM   15  C10 UNL     1      22.359   2.067  48.205  1.00  0.00     0.002 C 
HETATM   16  C11 UNL     1      22.636   3.341  48.287  1.00  0.00     0.047 A 
HETATM   17 CL1  UNL     1      21.481   3.985  49.429  1.00  0.00    -0.138 Cl
HETATM   18  C12 UNL     1      23.035   4.755  48.301  1.00  0.00     0.323 A 
HETATM   19  F1  UNL     1      22.025   5.638  48.054  1.00  0.00    -0.223 F 
HETATM   20  C13 UNL     1      23.749   5.139  49.585  1.00  0.00     0.192 C 
HETATM   21  N5  UNL     1      24.105   4.779  50.753  1.00  0.00    -0.208 NA
HETATM   22  H1  UNL     1      27.228   1.460  55.500  1.00  0.00     0.160 HD
HETATM   23  H2  UNL     1      27.390  -0.125  55.428  1.00  0.00     0.160 HD
HETATM   24  H3  UNL     1      26.535   2.397  52.916  1.00  0.00     0.170 HD
ENDROOT
BRANCH  20  25
HETATM   25  O2  UNL     1      24.197   6.440  49.392  1.00  0.00    -0.330 OA
BRANCH  25  26
HETATM   26  C14 UNL     1      24.814   6.953  48.252  1.00  0.00     0.215 C 
BRANCH  26  27
HETATM   27  C15 UNL     1      26.258   6.624  48.221  1.00  0.00    -0.034 A 
HETATM   28  C16 UNL     1      26.756   5.418  48.646  1.00  0.00     0.009 A 
HETATM   29  C17 UNL     1      28.108   5.139  48.593  1.00  0.00     0.001 A 
HETATM   30  C18 UNL     1      29.016   6.085  48.102  1.00  0.00     0.000 A 
HETATM   31  C19 UNL     1      28.549   7.299  47.671  1.00  0.00     0.001 A 
HETATM   32  C20 UNL     1      27.181   7.518  47.749  1.00  0.00     0.009 A 
ENDBRANCH  26  27
ENDBRANCH  25  26
ENDBRANCH  20  25
TORSDOF 3
ENDMDL
MODEL 8
REMARK VINA RESULT:      -8.6      2.984      4.790
REMARK  3 active torsions:
REMARK  status: ('A' for Active; 'I' for Inactive)
REMARK       I    between atoms: N1_1  and  C1_2 
REMARK       I    between atoms: C1_2  and  N2_4 
REMARK    1  A    between atoms: C13_20  and  O2_21 
REMARK    2  A    between atoms: O2_21  and  C14_22 
REMARK    3  A    between atoms: C14_22  and  C15_23 
ROOT
HETATM    1  N1  UNL     1      18.561  -0.871  52.528  1.00  0.00    -0.352 N 
HETATM    2  C1  UNL     1      19.034   0.322  51.854  1.00  0.00     0.318 C 
HETATM    3  O1  UNL     1      18.226   1.231  51.605  1.00  0.00    -0.247 OA
HETATM    4  N2  UNL     1      20.405   0.289  51.559  1.00  0.00    -0.315 N 
HETATM    5  C2  UNL     1      20.922   1.379  50.921  1.00  0.00     0.015 A 
HETATM    6  C3  UNL     1      22.244   1.548  50.544  1.00  0.00     0.090 A 
HETATM    7  C4  UNL     1      22.864   2.303  51.587  1.00  0.00     0.146 C 
HETATM    8  N3  UNL     1      21.897   3.026  52.357  1.00  0.00    -0.225 NA
HETATM    9  C5  UNL     1      21.433   4.207  52.272  1.00  0.00     0.235 C 
HETATM   10  N4  UNL     1      21.663   5.283  51.419  1.00  0.00    -0.246 NA
HETATM   11  C6  UNL     1      21.862   5.284  50.179  1.00  0.00     0.036 C 
HETATM   12  C7  UNL     1      21.715   3.863  50.071  1.00  0.00     0.043 C 
HETATM   13  C8  UNL     1      21.397   2.631  50.357  1.00  0.00     0.060 A 
HETATM   14  C9  UNL     1      22.121   5.467  48.709  1.00  0.00     0.087 C 
HETATM   15  C10 UNL     1      23.229   4.490  48.379  1.00  0.00     0.002 C 
HETATM   16  C11 UNL     1      24.282   4.091  49.041  1.00  0.00     0.047 A 
HETATM   17 CL1  UNL     1      24.238   4.980  50.544  1.00  0.00    -0.138 Cl
HETATM   18  C12 UNL     1      25.492   3.571  49.693  1.00  0.00     0.323 A 
HETATM   19  F1  UNL     1      26.367   4.525  50.120  1.00  0.00    -0.223 F 
HETATM   20  C13 UNL     1      25.167   2.623  50.834  1.00  0.00     0.192 C 
HETATM   21  N5  UNL     1      24.262   2.114  51.569  1.00  0.00    -0.208 NA
HETATM   22  H1  UNL     1      19.002  -1.440  53.303  1.00  0.00     0.160 HD
HETATM   23  H2  UNL     1      17.680  -1.446  52.411  1.00  0.00     0.160 HD
HETATM   24  H3  UNL     1      21.127  -0.418  51.731  1.00  0.00     0.170 HD
ENDROOT
BRANCH  20  25
HETATM   25  O2  UNL     1      26.386   2.100  51.246  1.00  0.00    -0.330 OA
BRANCH  25  26
HETATM   26  C14 UNL     1      26.916   2.126  52.536  1.00  0.00     0.215 C 
BRANCH  26  27
HETATM   27  C15 UNL     1      27.663   0.885  52.843  1.00  0.00    -0.034 A 
HETATM   28  C16 UNL     1      28.903   0.889  53.433  1.00  0.00     0.009 A 
HETATM   29  C17 UNL     1      29.569  -0.288  53.716  1.00  0.00     0.001 A 
HETATM   30  C18 UNL     1      28.995  -1.528  53.408  1.00  0.00     0.000 A 
HETATM   31  C19 UNL     1      27.760  -1.564  52.817  1.00  0.00     0.001 A 
HETATM   32  C20 UNL     1      27.142  -0.349  52.558  1.00  0.00     0.009 A 
ENDBRANCH  26  27
ENDBRANCH  25  26
ENDBRANCH  20  25
TORSDOF 3
ENDMDL
MODEL 9
REMARK VINA RESULT:      -8.6      3.627      5.758
REMARK  3 active torsions:
REMARK  status: ('A' for Active; 'I' for Inactive)
REMARK       I    between atoms: N1_1  and  C1_2 
REMARK       I    between atoms: C1_2  and  N2_4 
REMARK    1  A    between atoms: C13_20  and  O2_21 
REMARK    2  A    between atoms: O2_21  and  C14_22 
REMARK    3  A    between atoms: C14_22  and  C15_23 
ROOT
HETATM    1  N1  UNL     1      15.780   4.484  50.818  1.00  0.00    -0.352 N 
HETATM    2  C1  UNL     1      16.821   3.547  51.191  1.00  0.00     0.318 C 
HETATM    3  O1  UNL     1      16.529   2.348  51.329  1.00  0.00    -0.247 OA
HETATM    4  N2  UNL     1      18.079   4.147  51.354  1.00  0.00    -0.315 N 
HETATM    5  C2  UNL     1      19.109   3.324  51.707  1.00  0.00     0.015 A 
HETATM    6  C3  UNL     1      20.424   3.712  51.913  1.00  0.00     0.090 A 
HETATM    7  C4  UNL     1      21.111   3.465  50.685  1.00  0.00     0.146 C 
HETATM    8  N3  UNL     1      20.421   2.501  49.882  1.00  0.00    -0.225 NA
HETATM    9  C5  UNL     1      20.520   1.238  49.773  1.00  0.00     0.235 C 
HETATM   10  N4  UNL     1      21.327   0.271  50.367  1.00  0.00    -0.246 NA
HETATM   11  C6  UNL     1      21.721   0.188  51.557  1.00  0.00     0.036 C 
HETATM   12  C7  UNL     1      21.010   1.364  51.961  1.00  0.00     0.043 C 
HETATM   13  C8  UNL     1      20.158   2.351  51.960  1.00  0.00     0.060 A 
HETATM   14  C9  UNL     1      22.285  -0.062  52.928  1.00  0.00     0.087 C 
HETATM   15  C10 UNL     1      22.917   1.250  53.339  1.00  0.00     0.002 C 
HETATM   16  C11 UNL     1      23.571   2.164  52.673  1.00  0.00     0.047 A 
HETATM   17 CL1  UNL     1      23.644   1.566  51.033  1.00  0.00    -0.138 Cl
HETATM   18  C12 UNL     1      24.314   3.253  52.025  1.00  0.00     0.323 A 
HETATM   19  F1  UNL     1      25.421   2.859  51.334  1.00  0.00    -0.223 F 
HETATM   20  C13 UNL     1      23.427   4.104  51.134  1.00  0.00     0.192 C 
HETATM   21  N5  UNL     1      22.279   4.253  50.607  1.00  0.00    -0.208 NA
HETATM   22  H1  UNL     1      15.797   5.291  50.135  1.00  0.00     0.160 HD
HETATM   23  H2  UNL     1      14.774   4.584  51.133  1.00  0.00     0.160 HD
HETATM   24  H3  UNL     1      18.394   5.117  51.258  1.00  0.00     0.170 HD
ENDROOT
BRANCH  20  25
HETATM   25  O2  UNL     1      24.220   5.168  50.720  1.00  0.00    -0.330 OA
BRANCH  25  26
HETATM   26  C14 UNL     1      24.305   5.698  49.434  1.00  0.00     0.215 C 
BRANCH  26  27
HETATM   27  C15 UNL     1      25.713   5.854  49.001  1.00  0.00    -0.034 A 
HETATM   28  C16 UNL     1      26.243   7.060  48.617  1.00  0.00     0.009 A 
HETATM   29  C17 UNL     1      27.565   7.174  48.228  1.00  0.00     0.001 A 
HETATM   30  C18 UNL     1      28.406   6.054  48.215  1.00  0.00     0.000 A 
HETATM   31  C19 UNL     1      27.904   4.837  48.592  1.00  0.00     0.001 A 
HETATM   32  C20 UNL     1      26.571   4.788  48.971  1.00  0.00     0.009 A 
ENDBRANCH  26  27
ENDBRANCH  25  26
ENDBRANCH  20  25
TORSDOF 3
ENDMDL
