MODEL 1
REMARK VINA RESULT:      -7.9      0.000      0.000
REMARK  5 active torsions:
REMARK  status: ('A' for Active; 'I' for Inactive)
REMARK    1  A    between atoms: C6_7  and  C7_8 
REMARK       I    between atoms: C7_8  and  N2_10 
REMARK    2  A    between atoms: N2_10  and  C8_11 
REMARK    3  A    between atoms: C11_14  and  C12_15 
REMARK    4  A    between atoms: C12_15  and  O2_16 
REMARK    5  A    between atoms: C12_15  and  C13_17 
ROOT
HETATM    1  C1  UNL     1      29.024   6.006  48.208  1.00  0.00     0.017 C 
HETATM    2  C2  UNL     1      27.928   6.507  48.171  1.00  0.00    -0.087 C 
HETATM    3  C3  UNL     1      26.624   7.107  48.128  1.00  0.00     0.090 C 
HETATM    4  C4  UNL     1      25.690   6.807  49.045  1.00  0.00     0.035 C 
HETATM    5  C5  UNL     1      24.323   7.377  49.077  1.00  0.00     0.177 C 
HETATM    6  N1  UNL     1      23.341   6.304  49.280  1.00  0.00    -0.379 N 
HETATM    7  C6  UNL     1      23.661   5.373  50.316  1.00  0.00     0.112 C 
HETATM    8  C20 UNL     1      24.926   5.160  50.707  1.00  0.00     0.123 C 
HETATM    9  N3  UNL     1      26.000   5.876  50.080  1.00  0.00    -0.365 N 
HETATM   10  H5  UNL     1      22.444   6.145  48.759  1.00  0.00     0.160 HD
HETATM   11  H19 UNL     1      27.003   5.722  50.372  1.00  0.00     0.165 HD
ENDROOT
BRANCH   7  12
HETATM   12  C7  UNL     1      22.637   4.588  51.023  1.00  0.00     0.270 C 
HETATM   13  O1  UNL     1      21.491   5.025  51.297  1.00  0.00    -0.266 OA
HETATM   14  N2  UNL     1      22.943   3.252  51.426  1.00  0.00    -0.345 N 
HETATM   15  H6  UNL     1      23.860   2.789  51.252  1.00  0.00     0.163 HD
BRANCH  14  16
HETATM   16  C8  UNL     1      22.069   2.332  52.127  1.00  0.00     0.131 A 
HETATM   17  C9  UNL     1      21.546   1.307  51.193  1.00  0.00     0.003 A 
HETATM   18  C10 UNL     1      22.041   0.142  51.615  1.00  0.00     0.008 A 
HETATM   19  C11 UNL     1      22.874   0.286  52.777  1.00  0.00    -0.027 A 
HETATM   20  C19 UNL     1      22.893   1.576  53.083  1.00  0.00     0.012 A 
BRANCH  19  21
HETATM   21  C12 UNL     1      23.589  -0.787  53.518  1.00  0.00     0.184 C 
BRANCH  21  22
HETATM   22  O2  UNL     1      22.997  -1.021  54.755  1.00  0.00    -0.386 OA
HETATM   23  H11 UNL     1      22.190  -1.571  54.707  1.00  0.00     0.210 HD
ENDBRANCH  21  22
BRANCH  21  24
HETATM   24  C13 UNL     1      25.023  -0.413  53.616  1.00  0.00    -0.025 A 
HETATM   25  C14 UNL     1      25.664  -0.142  54.822  1.00  0.00     0.010 A 
HETATM   26  C15 UNL     1      27.017   0.203  54.836  1.00  0.00     0.001 A 
HETATM   27  C16 UNL     1      27.763   0.291  53.702  1.00  0.00     0.000 A 
HETATM   28  C17 UNL     1      27.170   0.032  52.499  1.00  0.00     0.001 A 
HETATM   29  C18 UNL     1      25.833  -0.308  52.494  1.00  0.00     0.010 A 
ENDBRANCH  21  24
ENDBRANCH  19  21
ENDBRANCH  14  16
ENDBRANCH   7  12
TORSDOF 5
ENDMDL
MODEL 2
REMARK VINA RESULT:      -7.8      3.369      7.646
REMARK  5 active torsions:
REMARK  status: ('A' for Active; 'I' for Inactive)
REMARK    1  A    between atoms: C6_7  and  C7_8 
REMARK       I    between atoms: C7_8  and  N2_10 
REMARK    2  A    between atoms: N2_10  and  C8_11 
REMARK    3  A    between atoms: C11_14  and  C12_15 
REMARK    4  A    between atoms: C12_15  and  O2_16 
REMARK    5  A    between atoms: C12_15  and  C13_17 
ROOT
HETATM    1  C1  UNL     1      17.328   0.781  49.651  1.00  0.00     0.017 C 
HETATM    2  C2  UNL     1      17.415   0.089  50.635  1.00  0.00    -0.087 C 
HETATM    3  C3  UNL     1      17.516  -0.733  51.808  1.00  0.00     0.090 C 
HETATM    4  C4  UNL     1      18.517  -0.571  52.687  1.00  0.00     0.035 C 
HETATM    5  C5  UNL     1      18.699  -1.371  53.920  1.00  0.00     0.177 C 
HETATM    6  N1  UNL     1      20.096  -1.808  54.029  1.00  0.00    -0.379 N 
HETATM    7  C6  UNL     1      21.073  -0.792  53.786  1.00  0.00     0.112 C 
HETATM    8  C20 UNL     1      20.800   0.284  53.036  1.00  0.00     0.123 C 
HETATM    9  N3  UNL     1      19.498   0.438  52.450  1.00  0.00    -0.365 N 
HETATM   10  H5  UNL     1      20.455  -2.766  54.261  1.00  0.00     0.160 HD
HETATM   11  H19 UNL     1      19.264   1.278  51.855  1.00  0.00     0.165 HD
ENDROOT
BRANCH   7  12
HETATM   12  C7  UNL     1      22.435  -0.854  54.338  1.00  0.00     0.270 C 
HETATM   13  O1  UNL     1      22.707  -1.319  55.473  1.00  0.00    -0.266 OA
HETATM   14  N2  UNL     1      23.524  -0.363  53.553  1.00  0.00    -0.345 N 
HETATM   15  H6  UNL     1      23.415   0.044  52.600  1.00  0.00     0.163 HD
BRANCH  14  16
HETATM   16  C8  UNL     1      24.925  -0.340  53.925  1.00  0.00     0.131 A 
HETATM   17  C9  UNL     1      25.701  -1.265  53.066  1.00  0.00     0.003 A 
HETATM   18  C10 UNL     1      26.541  -0.499  52.368  1.00  0.00     0.008 A 
HETATM   19  C11 UNL     1      26.402   0.897  52.681  1.00  0.00    -0.027 A 
HETATM   20  C19 UNL     1      25.451   0.995  53.600  1.00  0.00     0.012 A 
BRANCH  19  21
HETATM   21  C12 UNL     1      27.165   2.035  52.105  1.00  0.00     0.184 C 
BRANCH  21  22
HETATM   22  O2  UNL     1      27.629   2.884  53.105  1.00  0.00    -0.386 OA
HETATM   23  H11 UNL     1      27.984   3.731  52.768  1.00  0.00     0.210 HD
ENDBRANCH  21  22
BRANCH  21  24
HETATM   24  C13 UNL     1      26.303   2.721  51.108  1.00  0.00    -0.025 A 
HETATM   25  C14 UNL     1      26.791   3.611  50.155  1.00  0.00     0.010 A 
HETATM   26  C15 UNL     1      25.919   4.219  49.249  1.00  0.00     0.001 A 
HETATM   27  C16 UNL     1      24.580   3.979  49.247  1.00  0.00     0.000 A 
HETATM   28  C17 UNL     1      24.063   3.111  50.166  1.00  0.00     0.001 A 
HETATM   29  C18 UNL     1      24.931   2.515  51.058  1.00  0.00     0.010 A 
ENDBRANCH  21  24
ENDBRANCH  19  21
ENDBRANCH  14  16
ENDBRANCH   7  12
TORSDOF 5
ENDMDL
MODEL 3
REMARK VINA RESULT:      -7.7      2.502      3.950
REMARK  5 active torsions:
REMARK  status: ('A' for Active; 'I' for Inactive)
REMARK    1  A    between atoms: C6_7  and  C7_8 
REMARK       I    between atoms: C7_8  and  N2_10 
REMARK    2  A    between atoms: N2_10  and  C8_11 
REMARK    3  A    between atoms: C11_14  and  C12_15 
REMARK    4  A    between atoms: C12_15  and  O2_16 
REMARK    5  A    between atoms: C12_15  and  C13_17 
ROOT
HETATM    1  C1  UNL     1      30.555  10.766  49.330  1.00  0.00     0.017 C 
HETATM    2  C2  UNL     1      30.116   9.704  48.967  1.00  0.00    -0.087 C 
HETATM    3  C3  UNL     1      29.594   8.438  48.532  1.00  0.00     0.090 C 
HETATM    4  C4  UNL     1      28.308   8.111  48.734  1.00  0.00     0.035 C 
HETATM    5  C5  UNL     1      27.685   6.832  48.320  1.00  0.00     0.177 C 
HETATM    6  N1  UNL     1      26.891   6.284  49.425  1.00  0.00    -0.379 N 
HETATM    7  C6  UNL     1      26.032   7.219  50.083  1.00  0.00     0.112 C 
HETATM    8  C20 UNL     1      26.286   8.535  50.074  1.00  0.00     0.123 C 
HETATM    9  N3  UNL     1      27.445   9.037  49.392  1.00  0.00    -0.365 N 
HETATM   10  H5  UNL     1      26.882   5.297  49.784  1.00  0.00     0.160 HD
HETATM   11  H19 UNL     1      27.663  10.071  49.374  1.00  0.00     0.165 HD
ENDROOT
BRANCH   7  12
HETATM   12  C7  UNL     1      24.821   6.810  50.809  1.00  0.00     0.270 C 
HETATM   13  O1  UNL     1      23.916   7.609  51.160  1.00  0.00    -0.266 OA
HETATM   14  N2  UNL     1      24.644   5.432  51.140  1.00  0.00    -0.345 N 
HETATM   15  H6  UNL     1      25.328   4.684  50.899  1.00  0.00     0.163 HD
BRANCH  14  16
HETATM   16  C8  UNL     1      23.523   4.843  51.848  1.00  0.00     0.131 A 
HETATM   17  C9  UNL     1      22.275   5.010  51.065  1.00  0.00     0.003 A 
HETATM   18  C10 UNL     1      21.882   3.777  50.738  1.00  0.00     0.008 A 
HETATM   19  C11 UNL     1      22.770   2.765  51.237  1.00  0.00    -0.027 A 
HETATM   20  C19 UNL     1      23.739   3.388  51.893  1.00  0.00     0.012 A 
BRANCH  19  21
HETATM   21  C12 UNL     1      22.652   1.292  51.069  1.00  0.00     0.184 C 
BRANCH  21  22
HETATM   22  O2  UNL     1      21.788   0.976  50.025  1.00  0.00    -0.386 OA
HETATM   23  H11 UNL     1      20.843   1.024  50.269  1.00  0.00     0.210 HD
ENDBRANCH  21  22
BRANCH  21  24
HETATM   24  C13 UNL     1      22.242   0.703  52.369  1.00  0.00    -0.025 A 
HETATM   25  C14 UNL     1      21.016   0.963  52.976  1.00  0.00     0.010 A 
HETATM   26  C15 UNL     1      20.699   0.371  54.201  1.00  0.00     0.001 A 
HETATM   27  C16 UNL     1      21.548  -0.470  54.850  1.00  0.00     0.000 A 
HETATM   28  C17 UNL     1      22.761  -0.750  54.286  1.00  0.00     0.001 A 
HETATM   29  C18 UNL     1      23.066  -0.161  53.077  1.00  0.00     0.010 A 
ENDBRANCH  21  24
ENDBRANCH  19  21
ENDBRANCH  14  16
ENDBRANCH   7  12
TORSDOF 5
ENDMDL
MODEL 4
REMARK VINA RESULT:      -7.6      3.059      4.837
REMARK  5 active torsions:
REMARK  status: ('A' for Active; 'I' for Inactive)
REMARK    1  A    between atoms: C6_7  and  C7_8 
REMARK       I    between atoms: C7_8  and  N2_10 
REMARK    2  A    between atoms: N2_10  and  C8_11 
REMARK    3  A    between atoms: C11_14  and  C12_15 
REMARK    4  A    between atoms: C12_15  and  O2_16 
REMARK    5  A    between atoms: C12_15  and  C13_17 
ROOT
HETATM    1  C1  UNL     1      30.505  12.174  49.272  1.00  0.00     0.017 C 
HETATM    2  C2  UNL     1      30.763  11.006  49.126  1.00  0.00    -0.087 C 
HETATM    3  C3  UNL     1      31.072   9.614  48.950  1.00  0.00     0.090 C 
HETATM    4  C4  UNL     1      30.142   8.745  48.523  1.00  0.00     0.035 C 
HETATM    5  C5  UNL     1      30.372   7.296  48.313  1.00  0.00     0.177 C 
HETATM    6  N1  UNL     1      29.280   6.526  48.921  1.00  0.00    -0.379 N 
HETATM    7  C6  UNL     1      27.963   7.004  48.635  1.00  0.00     0.112 C 
HETATM    8  C20 UNL     1      27.734   8.283  48.308  1.00  0.00     0.123 C 
HETATM    9  N3  UNL     1      28.825   9.213  48.239  1.00  0.00    -0.365 N 
HETATM   10  H5  UNL     1      29.355   5.677  49.534  1.00  0.00     0.160 HD
HETATM   11  H19 UNL     1      28.665  10.225  47.983  1.00  0.00     0.165 HD
ENDROOT
BRANCH   7  12
HETATM   12  C7  UNL     1      26.777   6.135  48.678  1.00  0.00     0.270 C 
HETATM   13  O1  UNL     1      25.668   6.445  48.175  1.00  0.00    -0.266 OA
HETATM   14  N2  UNL     1      26.872   4.863  49.322  1.00  0.00    -0.345 N 
HETATM   15  H6  UNL     1      27.740   4.504  49.772  1.00  0.00     0.163 HD
BRANCH  14  16
HETATM   16  C8  UNL     1      25.818   3.877  49.463  1.00  0.00     0.131 A 
HETATM   17  C9  UNL     1      26.396   2.515  49.541  1.00  0.00     0.003 A 
HETATM   18  C10 UNL     1      26.097   2.060  50.760  1.00  0.00     0.008 A 
HETATM   19  C11 UNL     1      25.352   3.014  51.536  1.00  0.00    -0.027 A 
HETATM   20  C19 UNL     1      25.185   4.087  50.775  1.00  0.00     0.012 A 
BRANCH  19  21
HETATM   21  C12 UNL     1      24.850   2.857  52.926  1.00  0.00     0.184 C 
BRANCH  21  22
HETATM   22  O2  UNL     1      25.903   2.797  53.834  1.00  0.00    -0.386 OA
HETATM   23  H11 UNL     1      26.432   3.618  53.877  1.00  0.00     0.210 HD
ENDBRANCH  21  22
BRANCH  21  24
HETATM   24  C13 UNL     1      23.966   1.664  52.974  1.00  0.00    -0.025 A 
HETATM   25  C14 UNL     1      24.400   0.405  53.380  1.00  0.00     0.010 A 
HETATM   26  C15 UNL     1      23.510  -0.672  53.399  1.00  0.00     0.001 A 
HETATM   27  C16 UNL     1      22.206  -0.552  53.032  1.00  0.00     0.000 A 
HETATM   28  C17 UNL     1      21.743   0.669  52.628  1.00  0.00     0.001 A 
HETATM   29  C18 UNL     1      22.628   1.726  52.611  1.00  0.00     0.010 A 
ENDBRANCH  21  24
ENDBRANCH  19  21
ENDBRANCH  14  16
ENDBRANCH   7  12
TORSDOF 5
ENDMDL
MODEL 5
REMARK VINA RESULT:      -7.5      6.217      9.659
REMARK  5 active torsions:
REMARK  status: ('A' for Active; 'I' for Inactive)
REMARK    1  A    between atoms: C6_7  and  C7_8 
REMARK       I    between atoms: C7_8  and  N2_10 
REMARK    2  A    between atoms: N2_10  and  C8_11 
REMARK    3  A    between atoms: C11_14  and  C12_15 
REMARK    4  A    between atoms: C12_15  and  O2_16 
REMARK    5  A    between atoms: C12_15  and  C13_17 
ROOT
HETATM    1  C1  UNL     1      32.503   0.982  47.032  1.00  0.00     0.017 C 
HETATM    2  C2  UNL     1      33.183   1.970  46.907  1.00  0.00    -0.087 C 
HETATM    3  C3  UNL     1      33.996   3.144  46.757  1.00  0.00     0.090 C 
HETATM    4  C4  UNL     1      33.782   4.237  47.507  1.00  0.00     0.035 C 
HETATM    5  C5  UNL     1      34.570   5.489  47.422  1.00  0.00     0.177 C 
HETATM    6  N1  UNL     1      33.665   6.644  47.380  1.00  0.00    -0.379 N 
HETATM    7  C6  UNL     1      32.610   6.628  48.344  1.00  0.00     0.112 C 
HETATM    8  C20 UNL     1      32.155   5.483  48.872  1.00  0.00     0.123 C 
HETATM    9  N3  UNL     1      32.729   4.230  48.469  1.00  0.00    -0.365 N 
HETATM   10  H5  UNL     1      33.704   7.469  46.732  1.00  0.00     0.160 HD
HETATM   11  H19 UNL     1      32.384   3.317  48.872  1.00  0.00     0.165 HD
ENDROOT
BRANCH   7  12
HETATM   12  C7  UNL     1      31.953   7.853  48.824  1.00  0.00     0.270 C 
HETATM   13  O1  UNL     1      32.161   8.357  49.956  1.00  0.00    -0.266 OA
HETATM   14  N2  UNL     1      31.027   8.524  47.968  1.00  0.00    -0.345 N 
HETATM   15  H6  UNL     1      30.779   8.196  47.010  1.00  0.00     0.163 HD
BRANCH  14  16
HETATM   16  C8  UNL     1      30.287   9.736  48.263  1.00  0.00     0.131 A 
HETATM   17  C9  UNL     1      29.409  10.094  47.124  1.00  0.00     0.003 A 
HETATM   18  C10 UNL     1      28.159   9.991  47.579  1.00  0.00     0.008 A 
HETATM   19  C11 UNL     1      28.107   9.586  48.957  1.00  0.00    -0.027 A 
HETATM   20  C19 UNL     1      29.359   9.434  49.364  1.00  0.00     0.012 A 
BRANCH  19  21
HETATM   21  C12 UNL     1      26.896   9.370  49.792  1.00  0.00     0.184 C 
BRANCH  21  22
HETATM   22  O2  UNL     1      27.116   9.776  51.105  1.00  0.00    -0.386 OA
HETATM   23  H11 UNL     1      26.294   9.911  51.618  1.00  0.00     0.210 HD
ENDBRANCH  21  22
BRANCH  21  24
HETATM   24  C13 UNL     1      26.495   7.944  49.679  1.00  0.00    -0.025 A 
HETATM   25  C14 UNL     1      25.495   7.365  50.455  1.00  0.00     0.010 A 
HETATM   26  C15 UNL     1      25.172   6.016  50.292  1.00  0.00     0.001 A 
HETATM   27  C16 UNL     1      25.801   5.216  49.389  1.00  0.00     0.000 A 
HETATM   28  C17 UNL     1      26.788   5.748  48.609  1.00  0.00     0.001 A 
HETATM   29  C18 UNL     1      27.101   7.081  48.776  1.00  0.00     0.010 A 
ENDBRANCH  21  24
ENDBRANCH  19  21
ENDBRANCH  14  16
ENDBRANCH   7  12
TORSDOF 5
ENDMDL
MODEL 6
REMARK VINA RESULT:      -7.4      5.134      7.999
REMARK  5 active torsions:
REMARK  status: ('A' for Active; 'I' for Inactive)
REMARK    1  A    between atoms: C6_7  and  C7_8 
REMARK       I    between atoms: C7_8  and  N2_10 
REMARK    2  A    between atoms: N2_10  and  C8_11 
REMARK    3  A    between atoms: C11_14  and  C12_15 
REMARK    4  A    between atoms: C12_15  and  O2_16 
REMARK    5  A    between atoms: C12_15  and  C13_17 
ROOT
HETATM    1  C1  UNL     1      12.157   3.961  54.567  1.00  0.00     0.017 C 
HETATM    2  C2  UNL     1      12.815   4.143  53.573  1.00  0.00    -0.087 C 
HETATM    3  C3  UNL     1      13.596   4.360  52.387  1.00  0.00     0.090 C 
HETATM    4  C4  UNL     1      14.350   3.381  51.864  1.00  0.00     0.035 C 
HETATM    5  C5  UNL     1      15.185   3.515  50.647  1.00  0.00     0.177 C 
HETATM    6  N1  UNL     1      16.520   2.956  50.894  1.00  0.00    -0.379 N 
HETATM    7  C6  UNL     1      16.537   1.677  51.533  1.00  0.00     0.112 C 
HETATM    8  C20 UNL     1      15.520   1.258  52.299  1.00  0.00     0.123 C 
HETATM    9  N3  UNL     1      14.376   2.103  52.496  1.00  0.00    -0.365 N 
HETATM   10  H5  UNL     1      17.450   3.383  50.660  1.00  0.00     0.160 HD
HETATM   11  H19 UNL     1      13.565   1.791  53.097  1.00  0.00     0.165 HD
ENDROOT
BRANCH   7  12
HETATM   12  C7  UNL     1      17.659   0.737  51.397  1.00  0.00     0.270 C 
HETATM   13  O1  UNL     1      17.530  -0.451  51.007  1.00  0.00    -0.266 OA
HETATM   14  N2  UNL     1      18.978   1.181  51.719  1.00  0.00    -0.345 N 
HETATM   15  H6  UNL     1      19.202   2.143  52.052  1.00  0.00     0.163 HD
BRANCH  14  16
HETATM   16  C8  UNL     1      20.201   0.404  51.648  1.00  0.00     0.131 A 
HETATM   17  C9  UNL     1      20.897   0.657  50.364  1.00  0.00     0.003 A 
HETATM   18  C10 UNL     1      22.052   1.243  50.683  1.00  0.00     0.008 A 
HETATM   19  C11 UNL     1      22.208   1.416  52.102  1.00  0.00    -0.027 A 
HETATM   20  C19 UNL     1      21.119   0.923  52.674  1.00  0.00     0.012 A 
BRANCH  19  21
HETATM   21  C12 UNL     1      23.358   2.027  52.819  1.00  0.00     0.184 C 
BRANCH  21  22
HETATM   22  O2  UNL     1      23.646   3.292  52.317  1.00  0.00    -0.386 OA
HETATM   23  H11 UNL     1      23.983   3.916  52.991  1.00  0.00     0.210 HD
ENDBRANCH  21  22
BRANCH  21  24
HETATM   24  C13 UNL     1      24.509   1.091  52.744  1.00  0.00    -0.025 A 
HETATM   25  C14 UNL     1      24.574  -0.102  53.458  1.00  0.00     0.010 A 
HETATM   26  C15 UNL     1      25.690  -0.933  53.337  1.00  0.00     0.001 A 
HETATM   27  C16 UNL     1      26.746  -0.631  52.535  1.00  0.00     0.000 A 
HETATM   28  C17 UNL     1      26.718   0.532  51.817  1.00  0.00     0.001 A 
HETATM   29  C18 UNL     1      25.613   1.347  51.942  1.00  0.00     0.010 A 
ENDBRANCH  21  24
ENDBRANCH  19  21
ENDBRANCH  14  16
ENDBRANCH   7  12
TORSDOF 5
ENDMDL
MODEL 7
REMARK VINA RESULT:      -7.1      3.383      4.418
REMARK  5 active torsions:
REMARK  status: ('A' for Active; 'I' for Inactive)
REMARK    1  A    between atoms: C6_7  and  C7_8 
REMARK       I    between atoms: C7_8  and  N2_10 
REMARK    2  A    between atoms: N2_10  and  C8_11 
REMARK    3  A    between atoms: C11_14  and  C12_15 
REMARK    4  A    between atoms: C12_15  and  O2_16 
REMARK    5  A    between atoms: C12_15  and  C13_17 
ROOT
HETATM    1  C1  UNL     1      20.795   5.165  42.904  1.00  0.00     0.017 C 
HETATM    2  C2  UNL     1      20.562   4.469  43.860  1.00  0.00    -0.087 C 
HETATM    3  C3  UNL     1      20.280   3.639  44.999  1.00  0.00     0.090 C 
HETATM    4  C4  UNL     1      20.785   3.926  46.209  1.00  0.00     0.035 C 
HETATM    5  C5  UNL     1      20.548   3.130  47.435  1.00  0.00     0.177 C 
HETATM    6  N1  UNL     1      21.818   2.904  48.136  1.00  0.00    -0.379 N 
HETATM    7  C6  UNL     1      22.646   4.059  48.285  1.00  0.00     0.112 C 
HETATM    8  C20 UNL     1      22.559   5.102  47.447  1.00  0.00     0.123 C 
HETATM    9  N3  UNL     1      21.616   5.076  46.366  1.00  0.00    -0.365 N 
HETATM   10  H5  UNL     1      22.182   2.003  48.534  1.00  0.00     0.160 HD
HETATM   11  H19 UNL     1      21.532   5.887  45.694  1.00  0.00     0.165 HD
ENDROOT
BRANCH   7  12
HETATM   12  C7  UNL     1      23.644   4.187  49.358  1.00  0.00     0.270 C 
HETATM   13  O1  UNL     1      24.290   5.241  49.586  1.00  0.00    -0.266 OA
HETATM   14  N2  UNL     1      23.906   3.062  50.199  1.00  0.00    -0.345 N 
HETATM   15  H6  UNL     1      23.430   2.141  50.100  1.00  0.00     0.163 HD
BRANCH  14  16
HETATM   16  C8  UNL     1      24.847   2.998  51.300  1.00  0.00     0.131 A 
HETATM   17  C9  UNL     1      24.165   3.310  52.578  1.00  0.00     0.003 A 
HETATM   18  C10 UNL     1      24.229   2.195  53.308  1.00  0.00     0.008 A 
HETATM   19  C11 UNL     1      24.907   1.128  52.625  1.00  0.00    -0.027 A 
HETATM   20  C19 UNL     1      25.274   1.597  51.440  1.00  0.00     0.012 A 
BRANCH  19  21
HETATM   21  C12 UNL     1      25.164  -0.249  53.124  1.00  0.00     0.184 C 
BRANCH  21  22
HETATM   22  O2  UNL     1      24.338  -0.552  54.202  1.00  0.00    -0.386 OA
HETATM   23  H11 UNL     1      24.496   0.008  54.988  1.00  0.00     0.210 HD
ENDBRANCH  21  22
BRANCH  21  24
HETATM   24  C13 UNL     1      26.610  -0.371  53.441  1.00  0.00    -0.025 A 
HETATM   25  C14 UNL     1      27.450  -1.306  52.842  1.00  0.00     0.010 A 
HETATM   26  C15 UNL     1      28.801  -1.361  53.191  1.00  0.00     0.001 A 
HETATM   27  C16 UNL     1      29.356  -0.526  54.110  1.00  0.00     0.000 A 
HETATM   28  C17 UNL     1      28.564   0.406  54.720  1.00  0.00     0.001 A 
HETATM   29  C18 UNL     1      27.231   0.454  54.370  1.00  0.00     0.010 A 
ENDBRANCH  21  24
ENDBRANCH  19  21
ENDBRANCH  14  16
ENDBRANCH   7  12
TORSDOF 5
ENDMDL
MODEL 8
REMARK VINA RESULT:      -7.0      2.176      3.224
REMARK  5 active torsions:
REMARK  status: ('A' for Active; 'I' for Inactive)
REMARK    1  A    between atoms: C6_7  and  C7_8 
REMARK       I    between atoms: C7_8  and  N2_10 
REMARK    2  A    between atoms: N2_10  and  C8_11 
REMARK    3  A    between atoms: C11_14  and  C12_15 
REMARK    4  A    between atoms: C12_15  and  O2_16 
REMARK    5  A    between atoms: C12_15  and  C13_17 
ROOT
HETATM    1  C1  UNL     1      30.356   6.818  47.542  1.00  0.00     0.017 C 
HETATM    2  C2  UNL     1      29.271   7.283  47.295  1.00  0.00    -0.087 C 
HETATM    3  C3  UNL     1      27.981   7.841  47.001  1.00  0.00     0.090 C 
HETATM    4  C4  UNL     1      26.958   7.717  47.862  1.00  0.00     0.035 C 
HETATM    5  C5  UNL     1      25.597   8.259  47.641  1.00  0.00     0.177 C 
HETATM    6  N1  UNL     1      24.595   7.233  47.958  1.00  0.00    -0.379 N 
HETATM    7  C6  UNL     1      24.805   6.535  49.188  1.00  0.00     0.112 C 
HETATM    8  C20 UNL     1      26.022   6.427  49.738  1.00  0.00     0.123 C 
HETATM    9  N3  UNL     1      27.157   7.019  49.090  1.00  0.00    -0.365 N 
HETATM   10  H5  UNL     1      23.755   6.957  47.393  1.00  0.00     0.160 HD
HETATM   11  H19 UNL     1      28.125   6.944  49.506  1.00  0.00     0.165 HD
ENDROOT
BRANCH   7  12
HETATM   12  C7  UNL     1      23.711   5.893  49.933  1.00  0.00     0.270 C 
HETATM   13  O1  UNL     1      22.937   6.512  50.705  1.00  0.00    -0.266 OA
HETATM   14  N2  UNL     1      23.501   4.488  49.781  1.00  0.00    -0.345 N 
HETATM   15  H6  UNL     1      24.081   3.877  49.169  1.00  0.00     0.163 HD
BRANCH  14  16
HETATM   16  C8  UNL     1      22.481   3.685  50.428  1.00  0.00     0.131 A 
HETATM   17  C9  UNL     1      22.340   2.380  49.739  1.00  0.00     0.003 A 
HETATM   18  C10 UNL     1      22.714   1.456  50.626  1.00  0.00     0.008 A 
HETATM   19  C11 UNL     1      23.107   2.028  51.884  1.00  0.00    -0.027 A 
HETATM   20  C19 UNL     1      22.971   3.342  51.772  1.00  0.00     0.012 A 
BRANCH  19  21
HETATM   21  C12 UNL     1      23.578   1.310  53.097  1.00  0.00     0.184 C 
BRANCH  21  22
HETATM   22  O2  UNL     1      24.825   0.730  52.883  1.00  0.00    -0.386 OA
HETATM   23  H11 UNL     1      24.963  -0.102  53.378  1.00  0.00     0.210 HD
ENDBRANCH  21  22
BRANCH  21  24
HETATM   24  C13 UNL     1      22.537   0.329  53.497  1.00  0.00    -0.025 A 
HETATM   25  C14 UNL     1      22.828  -0.928  54.021  1.00  0.00     0.010 A 
HETATM   26  C15 UNL     1      21.794  -1.798  54.375  1.00  0.00     0.001 A 
HETATM   27  C16 UNL     1      20.481  -1.473  54.231  1.00  0.00     0.000 A 
HETATM   28  C17 UNL     1      20.156  -0.248  53.721  1.00  0.00     0.001 A 
HETATM   29  C18 UNL     1      21.182   0.605  53.373  1.00  0.00     0.010 A 
ENDBRANCH  21  24
ENDBRANCH  19  21
ENDBRANCH  14  16
ENDBRANCH   7  12
TORSDOF 5
ENDMDL
MODEL 9
REMARK VINA RESULT:      -6.8      4.549      7.786
REMARK  5 active torsions:
REMARK  status: ('A' for Active; 'I' for Inactive)
REMARK    1  A    between atoms: C6_7  and  C7_8 
REMARK       I    between atoms: C7_8  and  N2_10 
REMARK    2  A    between atoms: N2_10  and  C8_11 
REMARK    3  A    between atoms: C11_14  and  C12_15 
REMARK    4  A    between atoms: C12_15  and  O2_16 
REMARK    5  A    between atoms: C12_15  and  C13_17 
ROOT
HETATM    1  C1  UNL     1      34.983   3.997  45.972  1.00  0.00     0.017 C 
HETATM    2  C2  UNL     1      34.538   4.654  46.879  1.00  0.00    -0.087 C 
HETATM    3  C3  UNL     1      34.010   5.436  47.963  1.00  0.00     0.090 C 
HETATM    4  C4  UNL     1      32.719   5.345  48.320  1.00  0.00     0.035 C 
HETATM    5  C5  UNL     1      32.091   6.111  49.422  1.00  0.00     0.177 C 
HETATM    6  N1  UNL     1      30.820   6.687  48.966  1.00  0.00    -0.379 N 
HETATM    7  C6  UNL     1      29.964   5.791  48.252  1.00  0.00     0.112 C 
HETATM    8  C20 UNL     1      30.448   4.723  47.603  1.00  0.00     0.123 C 
HETATM    9  N3  UNL     1      31.858   4.456  47.611  1.00  0.00    -0.365 N 
HETATM   10  H5  UNL     1      30.473   7.669  49.101  1.00  0.00     0.160 HD
HETATM   11  H19 UNL     1      32.259   3.620  47.105  1.00  0.00     0.165 HD
ENDROOT
BRANCH   7  12
HETATM   12  C7  UNL     1      28.507   5.973  48.181  1.00  0.00     0.270 C 
HETATM   13  O1  UNL     1      27.956   6.990  47.689  1.00  0.00    -0.266 OA
HETATM   14  N2  UNL     1      27.654   4.947  48.692  1.00  0.00    -0.345 N 
HETATM   15  H6  UNL     1      28.001   4.064  49.120  1.00  0.00     0.163 HD
BRANCH  14  16
HETATM   16  C8  UNL     1      26.204   4.948  48.708  1.00  0.00     0.131 A 
HETATM   17  C9  UNL     1      25.700   3.954  49.686  1.00  0.00     0.003 A 
HETATM   18  C10 UNL     1      25.067   4.656  50.627  1.00  0.00     0.008 A 
HETATM   19  C11 UNL     1      25.096   6.070  50.373  1.00  0.00    -0.027 A 
HETATM   20  C19 UNL     1      25.765   6.247  49.242  1.00  0.00     0.012 A 
BRANCH  19  21
HETATM   21  C12 UNL     1      24.499   7.152  51.200  1.00  0.00     0.184 C 
BRANCH  21  22
HETATM   22  O2  UNL     1      24.371   6.754  52.527  1.00  0.00    -0.386 OA
HETATM   23  H11 UNL     1      24.298   7.500  53.155  1.00  0.00     0.210 HD
ENDBRANCH  21  22
BRANCH  21  24
HETATM   24  C13 UNL     1      23.210   7.557  50.582  1.00  0.00    -0.025 A 
HETATM   25  C14 UNL     1      21.992   6.953  50.883  1.00  0.00     0.010 A 
HETATM   26  C15 UNL     1      20.820   7.389  50.262  1.00  0.00     0.001 A 
HETATM   27  C16 UNL     1      20.804   8.401  49.353  1.00  0.00     0.000 A 
HETATM   28  C17 UNL     1      21.979   9.019  49.032  1.00  0.00     0.001 A 
HETATM   29  C18 UNL     1      23.133   8.582  49.649  1.00  0.00     0.010 A 
ENDBRANCH  21  24
ENDBRANCH  19  21
ENDBRANCH  14  16
ENDBRANCH   7  12
TORSDOF 5
ENDMDL
