MODEL 1
REMARK VINA RESULT:      -7.5      0.000      0.000
REMARK  6 active torsions:
REMARK  status: ('A' for Active; 'I' for Inactive)
REMARK    1  A    between atoms: C2_2  and  C3_3 
REMARK    2  A    between atoms: C3_3  and  C4_4 
REMARK    3  A    between atoms: C4_4  and  C5_5 
REMARK    4  A    between atoms: C4_4  and  C12_14 
REMARK       I    between atoms: C5_5  and  N1_7 
REMARK    5  A    between atoms: N1_7  and  C6_8 
REMARK    6  A    between atoms: C15_17  and  O2_18 
ROOT
HETATM    1  C4  UNL     1      23.655   0.274  53.480  1.00  0.00     0.111 C 
ENDROOT
BRANCH   1   2
HETATM    2  C3  UNL     1      22.668  -0.859  53.174  1.00  0.00     0.023 C 
BRANCH   2   3
HETATM    3  C2  UNL     1      21.708  -1.038  54.295  1.00  0.00    -0.009 C 
HETATM    4  C1  UNL     1      20.977   0.029  54.681  1.00  0.00     0.005 C 
ENDBRANCH   2   3
ENDBRANCH   1   2
BRANCH   1   5
HETATM    5  C5  UNL     1      25.043  -0.199  53.488  1.00  0.00     0.230 C 
HETATM    6  O1  UNL     1      25.162  -0.630  54.686  1.00  0.00    -0.272 OA
HETATM    7  N1  UNL     1      26.083  -0.241  52.529  1.00  0.00    -0.327 N 
HETATM    8  H7  UNL     1      25.741   0.162  51.631  1.00  0.00     0.169 HD
BRANCH   7   9
HETATM    9  C6  UNL     1      27.349  -0.780  52.868  1.00  0.00     0.034 A 
HETATM   10  C7  UNL     1      28.290   0.133  53.339  1.00  0.00     0.029 A 
HETATM   11  C8  UNL     1      29.549  -0.360  53.684  1.00  0.00     0.002 A 
HETATM   12  C9  UNL     1      29.816  -1.708  53.552  1.00  0.00     0.000 A 
HETATM   13  C10 UNL     1      28.851  -2.582  53.081  1.00  0.00     0.002 A 
HETATM   14  C11 UNL     1      27.598  -2.121  52.732  1.00  0.00     0.029 A 
ENDBRANCH   7   9
ENDBRANCH   1   5
BRANCH   1  15
HETATM   15  C12 UNL     1      23.443   1.391  52.527  1.00  0.00    -0.045 A 
HETATM   16  C13 UNL     1      23.870   2.651  52.929  1.00  0.00     0.011 A 
HETATM   17  C14 UNL     1      23.725   3.758  52.126  1.00  0.00     0.037 A 
HETATM   18  C15 UNL     1      23.138   3.647  50.870  1.00  0.00     0.065 A 
HETATM   19  C16 UNL     1      22.713   2.401  50.467  1.00  0.00     0.037 A 
HETATM   20  C17 UNL     1      22.856   1.279  51.271  1.00  0.00     0.011 A 
BRANCH  18  21
HETATM   21  O2  UNL     1      23.014   4.795  50.099  1.00  0.00    -0.361 OA
HETATM   22  H15 UNL     1      23.726   5.022  49.402  1.00  0.00     0.217 HD
ENDBRANCH  18  21
ENDBRANCH   1  15
TORSDOF 6
ENDMDL
MODEL 2
REMARK VINA RESULT:      -7.3      2.350      6.672
REMARK  6 active torsions:
REMARK  status: ('A' for Active; 'I' for Inactive)
REMARK    1  A    between atoms: C2_2  and  C3_3 
REMARK    2  A    between atoms: C3_3  and  C4_4 
REMARK    3  A    between atoms: C4_4  and  C5_5 
REMARK    4  A    between atoms: C4_4  and  C12_14 
REMARK       I    between atoms: C5_5  and  N1_7 
REMARK    5  A    between atoms: N1_7  and  C6_8 
REMARK    6  A    between atoms: C15_17  and  O2_18 
ROOT
HETATM    1  C4  UNL     1      26.341   2.261  52.157  1.00  0.00     0.111 C 
ENDROOT
BRANCH   1   2
HETATM    2  C3  UNL     1      26.447   2.300  50.628  1.00  0.00     0.023 C 
BRANCH   2   3
HETATM    3  C2  UNL     1      26.118   3.654  50.112  1.00  0.00    -0.009 C 
HETATM    4  C1  UNL     1      26.943   4.202  49.194  1.00  0.00     0.005 C 
ENDBRANCH   2   3
ENDBRANCH   1   2
BRANCH   1   5
HETATM    5  C5  UNL     1      25.007   1.849  52.602  1.00  0.00     0.230 C 
HETATM    6  O1  UNL     1      24.802   2.650  53.577  1.00  0.00    -0.272 OA
HETATM    7  N1  UNL     1      24.079   0.867  52.180  1.00  0.00    -0.327 N 
HETATM    8  H7  UNL     1      24.473   0.346  51.368  1.00  0.00     0.169 HD
BRANCH   7   9
HETATM    9  C6  UNL     1      22.836   0.723  52.846  1.00  0.00     0.034 A 
HETATM   10  C7  UNL     1      22.794  -0.247  53.846  1.00  0.00     0.029 A 
HETATM   11  C8  UNL     1      21.587  -0.418  54.525  1.00  0.00     0.002 A 
HETATM   12  C9  UNL     1      20.497   0.361  54.193  1.00  0.00     0.000 A 
HETATM   13  C10 UNL     1      20.583   1.315  53.194  1.00  0.00     0.002 A 
HETATM   14  C11 UNL     1      21.764   1.505  52.506  1.00  0.00     0.029 A 
ENDBRANCH   7   9
ENDBRANCH   1   5
BRANCH   1  15
HETATM   15  C12 UNL     1      27.415   1.397  52.709  1.00  0.00    -0.045 A 
HETATM   16  C13 UNL     1      27.253   0.024  52.565  1.00  0.00     0.011 A 
HETATM   17  C14 UNL     1      28.184  -0.871  53.038  1.00  0.00     0.037 A 
HETATM   18  C15 UNL     1      29.332  -0.421  53.682  1.00  0.00     0.065 A 
HETATM   19  C16 UNL     1      29.497   0.938  53.827  1.00  0.00     0.037 A 
HETATM   20  C17 UNL     1      28.562   1.848  53.354  1.00  0.00     0.011 A 
BRANCH  18  21
HETATM   21  O2  UNL     1      30.241  -1.365  54.140  1.00  0.00    -0.361 OA
HETATM   22  H15 UNL     1      31.239  -1.245  53.958  1.00  0.00     0.217 HD
ENDBRANCH  18  21
ENDBRANCH   1  15
TORSDOF 6
ENDMDL
MODEL 3
REMARK VINA RESULT:      -7.1      1.797      3.867
REMARK  6 active torsions:
REMARK  status: ('A' for Active; 'I' for Inactive)
REMARK    1  A    between atoms: C2_2  and  C3_3 
REMARK    2  A    between atoms: C3_3  and  C4_4 
REMARK    3  A    between atoms: C4_4  and  C5_5 
REMARK    4  A    between atoms: C4_4  and  C12_14 
REMARK       I    between atoms: C5_5  and  N1_7 
REMARK    5  A    between atoms: N1_7  and  C6_8 
REMARK    6  A    between atoms: C15_17  and  O2_18 
ROOT
HETATM    1  C4  UNL     1      24.090   1.611  52.404  1.00  0.00     0.111 C 
ENDROOT
BRANCH   1   2
HETATM    2  C3  UNL     1      23.932   2.997  53.039  1.00  0.00     0.023 C 
BRANCH   2   3
HETATM    3  C2  UNL     1      23.820   4.046  51.993  1.00  0.00    -0.009 C 
HETATM    4  C1  UNL     1      22.850   4.975  52.126  1.00  0.00     0.005 C 
ENDBRANCH   2   3
ENDBRANCH   1   2
BRANCH   1   5
HETATM    5  C5  UNL     1      25.423   1.050  52.642  1.00  0.00     0.230 C 
HETATM    6  O1  UNL     1      25.946   1.124  51.477  1.00  0.00    -0.272 OA
HETATM    7  N1  UNL     1      26.095   0.531  53.774  1.00  0.00    -0.327 N 
HETATM    8  H7  UNL     1      25.464   0.581  54.602  1.00  0.00     0.169 HD
BRANCH   7   9
HETATM    9  C6  UNL     1      27.424   0.053  53.663  1.00  0.00     0.034 A 
HETATM   10  C7  UNL     1      27.559  -1.277  53.269  1.00  0.00     0.029 A 
HETATM   11  C8  UNL     1      28.853  -1.784  53.148  1.00  0.00     0.002 A 
HETATM   12  C9  UNL     1      29.936  -0.970  53.414  1.00  0.00     0.000 A 
HETATM   13  C10 UNL     1      29.757   0.347  53.801  1.00  0.00     0.002 A 
HETATM   14  C11 UNL     1      28.488   0.874  53.930  1.00  0.00     0.029 A 
ENDBRANCH   7   9
ENDBRANCH   1   5
BRANCH   1  15
HETATM   15  C12 UNL     1      23.006   0.717  52.882  1.00  0.00    -0.045 A 
HETATM   16  C13 UNL     1      21.728   1.258  52.948  1.00  0.00     0.011 A 
HETATM   17  C14 UNL     1      20.648   0.521  53.376  1.00  0.00     0.037 A 
HETATM   18  C15 UNL     1      20.807  -0.807  53.759  1.00  0.00     0.065 A 
HETATM   19  C16 UNL     1      22.071  -1.347  53.694  1.00  0.00     0.037 A 
HETATM   20  C17 UNL     1      23.166  -0.611  53.264  1.00  0.00     0.011 A 
BRANCH  18  21
HETATM   21  O2  UNL     1      19.685  -1.506  54.182  1.00  0.00    -0.361 OA
HETATM   22  H15 UNL     1      18.759  -1.247  53.836  1.00  0.00     0.217 HD
ENDBRANCH  18  21
ENDBRANCH   1  15
TORSDOF 6
ENDMDL
MODEL 4
REMARK VINA RESULT:      -7.1      2.559      5.449
REMARK  6 active torsions:
REMARK  status: ('A' for Active; 'I' for Inactive)
REMARK    1  A    between atoms: C2_2  and  C3_3 
REMARK    2  A    between atoms: C3_3  and  C4_4 
REMARK    3  A    between atoms: C4_4  and  C5_5 
REMARK    4  A    between atoms: C4_4  and  C12_14 
REMARK       I    between atoms: C5_5  and  N1_7 
REMARK    5  A    between atoms: N1_7  and  C6_8 
REMARK    6  A    between atoms: C15_17  and  O2_18 
ROOT
HETATM    1  C4  UNL     1      24.518   0.705  53.371  1.00  0.00     0.111 C 
ENDROOT
BRANCH   1   2
HETATM    2  C3  UNL     1      25.353  -0.552  53.097  1.00  0.00     0.023 C 
BRANCH   2   3
HETATM    3  C2  UNL     1      26.688  -0.447  53.739  1.00  0.00    -0.009 C 
HETATM    4  C1  UNL     1      26.772   0.178  54.933  1.00  0.00     0.005 C 
ENDBRANCH   2   3
ENDBRANCH   1   2
BRANCH   1   5
HETATM    5  C5  UNL     1      24.778   1.758  52.386  1.00  0.00     0.230 C 
HETATM    6  O1  UNL     1      25.002   2.767  53.139  1.00  0.00    -0.272 OA
HETATM    7  N1  UNL     1      24.811   1.810  50.972  1.00  0.00    -0.327 N 
HETATM    8  H7  UNL     1      24.600   0.864  50.587  1.00  0.00     0.169 HD
BRANCH   7   9
HETATM    9  C6  UNL     1      25.103   3.025  50.305  1.00  0.00     0.034 A 
HETATM   10  C7  UNL     1      26.431   3.202  49.922  1.00  0.00     0.029 A 
HETATM   11  C8  UNL     1      26.758   4.388  49.262  1.00  0.00     0.002 A 
HETATM   12  C9  UNL     1      25.777   5.327  49.014  1.00  0.00     0.000 A 
HETATM   13  C10 UNL     1      24.468   5.110  49.411  1.00  0.00     0.002 A 
HETATM   14  C11 UNL     1      24.118   3.947  50.066  1.00  0.00     0.029 A 
ENDBRANCH   7   9
ENDBRANCH   1   5
BRANCH   1  15
HETATM   15  C12 UNL     1      23.081   0.342  53.447  1.00  0.00    -0.045 A 
HETATM   16  C13 UNL     1      22.757  -0.798  54.173  1.00  0.00     0.011 A 
HETATM   17  C14 UNL     1      21.458  -1.228  54.311  1.00  0.00     0.037 A 
HETATM   18  C15 UNL     1      20.415  -0.523  53.719  1.00  0.00     0.065 A 
HETATM   19  C16 UNL     1      20.731   0.608  52.999  1.00  0.00     0.037 A 
HETATM   20  C17 UNL     1      22.038   1.048  52.855  1.00  0.00     0.011 A 
BRANCH  18  21
HETATM   21  O2  UNL     1      19.122  -0.998  53.888  1.00  0.00    -0.361 OA
HETATM   22  H15 UNL     1      18.361  -0.626  53.316  1.00  0.00     0.217 HD
ENDBRANCH  18  21
ENDBRANCH   1  15
TORSDOF 6
ENDMDL
MODEL 5
REMARK VINA RESULT:      -6.9      2.719      6.090
REMARK  6 active torsions:
REMARK  status: ('A' for Active; 'I' for Inactive)
REMARK    1  A    between atoms: C2_2  and  C3_3 
REMARK    2  A    between atoms: C3_3  and  C4_4 
REMARK    3  A    between atoms: C4_4  and  C5_5 
REMARK    4  A    between atoms: C4_4  and  C12_14 
REMARK       I    between atoms: C5_5  and  N1_7 
REMARK    5  A    between atoms: N1_7  and  C6_8 
REMARK    6  A    between atoms: C15_17  and  O2_18 
ROOT
HETATM    1  C4  UNL     1      24.335   1.390  51.913  1.00  0.00     0.111 C 
ENDROOT
BRANCH   1   2
HETATM    2  C3  UNL     1      23.240   1.682  52.947  1.00  0.00     0.023 C 
BRANCH   2   3
HETATM    3  C2  UNL     1      22.184   0.637  52.904  1.00  0.00    -0.009 C 
HETATM    4  C1  UNL     1      22.300  -0.418  53.737  1.00  0.00     0.005 C 
ENDBRANCH   2   3
ENDBRANCH   1   2
BRANCH   1   5
HETATM    5  C5  UNL     1      24.671   2.579  51.125  1.00  0.00     0.230 C 
HETATM    6  O1  UNL     1      24.406   3.519  51.951  1.00  0.00    -0.272 OA
HETATM    7  N1  UNL     1      25.161   2.797  49.815  1.00  0.00    -0.327 N 
HETATM    8  H7  UNL     1      25.302   1.879  49.343  1.00  0.00     0.169 HD
BRANCH   7   9
HETATM    9  C6  UNL     1      25.386   4.114  49.344  1.00  0.00     0.034 A 
HETATM   10  C7  UNL     1      26.721   4.479  49.179  1.00  0.00     0.029 A 
HETATM   11  C8  UNL     1      26.982   5.769  48.716  1.00  0.00     0.002 A 
HETATM   12  C9  UNL     1      25.934   6.624  48.440  1.00  0.00     0.000 A 
HETATM   13  C10 UNL     1      24.621   6.220  48.616  1.00  0.00     0.002 A 
HETATM   14  C11 UNL     1      24.335   4.950  49.074  1.00  0.00     0.029 A 
ENDBRANCH   7   9
ENDBRANCH   1   5
BRANCH   1  15
HETATM   15  C12 UNL     1      25.519   0.807  52.592  1.00  0.00    -0.045 A 
HETATM   16  C13 UNL     1      25.732   1.178  53.915  1.00  0.00     0.011 A 
HETATM   17  C14 UNL     1      26.797   0.699  54.641  1.00  0.00     0.037 A 
HETATM   18  C15 UNL     1      27.704  -0.185  54.065  1.00  0.00     0.065 A 
HETATM   19  C16 UNL     1      27.496  -0.555  52.755  1.00  0.00     0.037 A 
HETATM   20  C17 UNL     1      26.425  -0.077  52.015  1.00  0.00     0.011 A 
BRANCH  18  21
HETATM   21  O2  UNL     1      28.761  -0.639  54.841  1.00  0.00    -0.361 OA
HETATM   22  H15 UNL     1      29.332   0.025  55.367  1.00  0.00     0.217 HD
ENDBRANCH  18  21
ENDBRANCH   1  15
TORSDOF 6
ENDMDL
MODEL 6
REMARK VINA RESULT:      -6.7      3.406      5.873
REMARK  6 active torsions:
REMARK  status: ('A' for Active; 'I' for Inactive)
REMARK    1  A    between atoms: C2_2  and  C3_3 
REMARK    2  A    between atoms: C3_3  and  C4_4 
REMARK    3  A    between atoms: C4_4  and  C5_5 
REMARK    4  A    between atoms: C4_4  and  C12_14 
REMARK       I    between atoms: C5_5  and  N1_7 
REMARK    5  A    between atoms: N1_7  and  C6_8 
REMARK    6  A    between atoms: C15_17  and  O2_18 
ROOT
HETATM    1  C4  UNL     1      22.987   3.405  49.402  1.00  0.00     0.111 C 
ENDROOT
BRANCH   1   2
HETATM    2  C3  UNL     1      22.583   2.782  48.061  1.00  0.00     0.023 C 
BRANCH   2   3
HETATM    3  C2  UNL     1      21.883   3.777  47.208  1.00  0.00    -0.009 C 
HETATM    4  C1  UNL     1      21.890   3.586  45.872  1.00  0.00     0.005 C 
ENDBRANCH   2   3
ENDBRANCH   1   2
BRANCH   1   5
HETATM    5  C5  UNL     1      22.855   2.452  50.508  1.00  0.00     0.230 C 
HETATM    6  O1  UNL     1      22.461   1.401  49.896  1.00  0.00    -0.272 OA
HETATM    7  N1  UNL     1      23.064   2.518  51.906  1.00  0.00    -0.327 N 
HETATM    8  H7  UNL     1      23.386   3.475  52.162  1.00  0.00     0.169 HD
BRANCH   7   9
HETATM    9  C6  UNL     1      22.837   1.379  52.719  1.00  0.00     0.034 A 
HETATM   10  C7  UNL     1      23.962   0.611  53.013  1.00  0.00     0.029 A 
HETATM   11  C8  UNL     1      23.778  -0.518  53.812  1.00  0.00     0.002 A 
HETATM   12  C9  UNL     1      22.516  -0.831  54.277  1.00  0.00     0.000 A 
HETATM   13  C10 UNL     1      21.425  -0.039  53.962  1.00  0.00     0.002 A 
HETATM   14  C11 UNL     1      21.579   1.083  53.173  1.00  0.00     0.029 A 
ENDBRANCH   7   9
ENDBRANCH   1   5
BRANCH   1  15
HETATM   15  C12 UNL     1      24.357   3.966  49.299  1.00  0.00    -0.045 A 
HETATM   16  C13 UNL     1      25.413   3.102  49.566  1.00  0.00     0.011 A 
HETATM   17  C14 UNL     1      26.723   3.514  49.500  1.00  0.00     0.037 A 
HETATM   18  C15 UNL     1      27.034   4.826  49.158  1.00  0.00     0.065 A 
HETATM   19  C16 UNL     1      25.992   5.686  48.892  1.00  0.00     0.037 A 
HETATM   20  C17 UNL     1      24.667   5.279  48.957  1.00  0.00     0.011 A 
BRANCH  18  21
HETATM   21  O2  UNL     1      28.372   5.191  49.105  1.00  0.00    -0.361 OA
HETATM   22  H15 UNL     1      29.091   4.480  48.959  1.00  0.00     0.217 HD
ENDBRANCH  18  21
ENDBRANCH   1  15
TORSDOF 6
ENDMDL
MODEL 7
REMARK VINA RESULT:      -6.5      2.417      6.761
REMARK  6 active torsions:
REMARK  status: ('A' for Active; 'I' for Inactive)
REMARK    1  A    between atoms: C2_2  and  C3_3 
REMARK    2  A    between atoms: C3_3  and  C4_4 
REMARK    3  A    between atoms: C4_4  and  C5_5 
REMARK    4  A    between atoms: C4_4  and  C12_14 
REMARK       I    between atoms: C5_5  and  N1_7 
REMARK    5  A    between atoms: N1_7  and  C6_8 
REMARK    6  A    between atoms: C15_17  and  O2_18 
ROOT
HETATM    1  C4  UNL     1      24.474   2.389  52.033  1.00  0.00     0.111 C 
ENDROOT
BRANCH   1   2
HETATM    2  C3  UNL     1      24.883   2.698  50.588  1.00  0.00     0.023 C 
BRANCH   2   3
HETATM    3  C2  UNL     1      25.568   4.014  50.505  1.00  0.00    -0.009 C 
HETATM    4  C1  UNL     1      25.578   4.651  49.315  1.00  0.00     0.005 C 
ENDBRANCH   2   3
ENDBRANCH   1   2
BRANCH   1   5
HETATM    5  C5  UNL     1      23.144   1.777  52.105  1.00  0.00     0.230 C 
HETATM    6  O1  UNL     1      22.421   2.774  52.452  1.00  0.00    -0.272 OA
HETATM    7  N1  UNL     1      22.636   0.475  51.884  1.00  0.00    -0.327 N 
HETATM    8  H7  UNL     1      23.417  -0.157  51.608  1.00  0.00     0.169 HD
BRANCH   7   9
HETATM    9  C6  UNL     1      21.254   0.208  52.044  1.00  0.00     0.034 A 
HETATM   10  C7  UNL     1      20.886  -0.374  53.256  1.00  0.00     0.029 A 
HETATM   11  C8  UNL     1      19.532  -0.651  53.451  1.00  0.00     0.002 A 
HETATM   12  C9  UNL     1      18.620  -0.347  52.461  1.00  0.00     0.000 A 
HETATM   13  C10 UNL     1      19.029   0.233  51.271  1.00  0.00     0.002 A 
HETATM   14  C11 UNL     1      20.361   0.517  51.052  1.00  0.00     0.029 A 
ENDBRANCH   7   9
ENDBRANCH   1   5
BRANCH   1  15
HETATM   15  C12 UNL     1      25.517   1.553  52.679  1.00  0.00    -0.045 A 
HETATM   16  C13 UNL     1      26.106   0.567  51.896  1.00  0.00     0.011 A 
HETATM   17  C14 UNL     1      27.084  -0.265  52.390  1.00  0.00     0.037 A 
HETATM   18  C15 UNL     1      27.518  -0.141  53.706  1.00  0.00     0.065 A 
HETATM   19  C16 UNL     1      26.938   0.835  54.485  1.00  0.00     0.037 A 
HETATM   20  C17 UNL     1      25.951   1.678  53.995  1.00  0.00     0.011 A 
BRANCH  18  21
HETATM   21  O2  UNL     1      28.507  -1.005  54.155  1.00  0.00    -0.361 OA
HETATM   22  H15 UNL     1      29.467  -0.672  54.262  1.00  0.00     0.217 HD
ENDBRANCH  18  21
ENDBRANCH   1  15
TORSDOF 6
ENDMDL
MODEL 8
REMARK VINA RESULT:      -6.4      3.224      4.958
REMARK  6 active torsions:
REMARK  status: ('A' for Active; 'I' for Inactive)
REMARK    1  A    between atoms: C2_2  and  C3_3 
REMARK    2  A    between atoms: C3_3  and  C4_4 
REMARK    3  A    between atoms: C4_4  and  C5_5 
REMARK    4  A    between atoms: C4_4  and  C12_14 
REMARK       I    between atoms: C5_5  and  N1_7 
REMARK    5  A    between atoms: N1_7  and  C6_8 
REMARK    6  A    between atoms: C15_17  and  O2_18 
ROOT
HETATM    1  C4  UNL     1      25.302   3.952  49.601  1.00  0.00     0.111 C 
ENDROOT
BRANCH   1   2
HETATM    2  C3  UNL     1      25.616   5.433  49.846  1.00  0.00     0.023 C 
BRANCH   2   3
HETATM    3  C2  UNL     1      26.268   6.037  48.655  1.00  0.00    -0.009 C 
HETATM    4  C1  UNL     1      27.592   5.839  48.486  1.00  0.00     0.005 C 
ENDBRANCH   2   3
ENDBRANCH   1   2
BRANCH   1   5
HETATM    5  C5  UNL     1      26.065   3.077  50.495  1.00  0.00     0.230 C 
HETATM    6  O1  UNL     1      26.952   2.609  49.701  1.00  0.00    -0.272 OA
HETATM    7  N1  UNL     1      25.978   2.738  51.866  1.00  0.00    -0.327 N 
HETATM    8  H7  UNL     1      25.179   3.249  52.298  1.00  0.00     0.169 HD
BRANCH   7   9
HETATM    9  C6  UNL     1      26.902   1.830  52.440  1.00  0.00     0.034 A 
HETATM   10  C7  UNL     1      26.617   0.478  52.258  1.00  0.00     0.029 A 
HETATM   11  C8  UNL     1      27.504  -0.447  52.809  1.00  0.00     0.002 A 
HETATM   12  C9  UNL     1      28.614  -0.004  53.500  1.00  0.00     0.000 A 
HETATM   13  C10 UNL     1      28.861   1.350  53.656  1.00  0.00     0.002 A 
HETATM   14  C11 UNL     1      27.999   2.285  53.123  1.00  0.00     0.029 A 
ENDBRANCH   7   9
ENDBRANCH   1   5
BRANCH   1  15
HETATM   15  C12 UNL     1      23.838   3.730  49.705  1.00  0.00    -0.045 A 
HETATM   16  C13 UNL     1      23.127   4.596  50.528  1.00  0.00     0.011 A 
HETATM   17  C14 UNL     1      21.767   4.483  50.698  1.00  0.00     0.037 A 
HETATM   18  C15 UNL     1      21.053   3.486  50.043  1.00  0.00     0.065 A 
HETATM   19  C16 UNL     1      21.753   2.626  49.227  1.00  0.00     0.037 A 
HETATM   20  C17 UNL     1      23.125   2.731  49.049  1.00  0.00     0.011 A 
BRANCH  18  21
HETATM   21  O2  UNL     1      19.682   3.415  50.248  1.00  0.00    -0.361 OA
HETATM   22  H15 UNL     1      19.072   3.060  49.510  1.00  0.00     0.217 HD
ENDBRANCH  18  21
ENDBRANCH   1  15
TORSDOF 6
ENDMDL
MODEL 9
REMARK VINA RESULT:      -6.4      3.359      5.889
REMARK  6 active torsions:
REMARK  status: ('A' for Active; 'I' for Inactive)
REMARK    1  A    between atoms: C2_2  and  C3_3 
REMARK    2  A    between atoms: C3_3  and  C4_4 
REMARK    3  A    between atoms: C4_4  and  C5_5 
REMARK    4  A    between atoms: C4_4  and  C12_14 
REMARK       I    between atoms: C5_5  and  N1_7 
REMARK    5  A    between atoms: N1_7  and  C6_8 
REMARK    6  A    between atoms: C15_17  and  O2_18 
ROOT
HETATM    1  C4  UNL     1      21.302   1.104  51.479  1.00  0.00     0.111 C 
ENDROOT
BRANCH   1   2
HETATM    2  C3  UNL     1      19.969   1.811  51.749  1.00  0.00     0.023 C 
BRANCH   2   3
HETATM    3  C2  UNL     1      18.909   1.300  50.841  1.00  0.00    -0.009 C 
HETATM    4  C1  UNL     1      18.322   0.124  51.148  1.00  0.00     0.005 C 
ENDBRANCH   2   3
ENDBRANCH   1   2
BRANCH   1   5
HETATM    5  C5  UNL     1      22.324   2.034  50.992  1.00  0.00     0.230 C 
HETATM    6  O1  UNL     1      22.314   2.930  51.905  1.00  0.00    -0.272 OA
HETATM    7  N1  UNL     1      23.170   2.076  49.858  1.00  0.00    -0.327 N 
HETATM    8  H7  UNL     1      22.995   1.236  49.266  1.00  0.00     0.169 HD
BRANCH   7   9
HETATM    9  C6  UNL     1      24.075   3.152  49.678  1.00  0.00     0.034 A 
HETATM   10  C7  UNL     1      23.560   4.275  49.034  1.00  0.00     0.029 A 
HETATM   11  C8  UNL     1      24.421   5.356  48.838  1.00  0.00     0.002 A 
HETATM   12  C9  UNL     1      25.727   5.280  49.280  1.00  0.00     0.000 A 
HETATM   13  C10 UNL     1      26.198   4.144  49.916  1.00  0.00     0.002 A 
HETATM   14  C11 UNL     1      25.368   3.061  50.122  1.00  0.00     0.029 A 
ENDBRANCH   7   9
ENDBRANCH   1   5
BRANCH   1  15
HETATM   15  C12 UNL     1      21.736   0.374  52.697  1.00  0.00    -0.045 A 
HETATM   16  C13 UNL     1      23.047  -0.086  52.721  1.00  0.00     0.011 A 
HETATM   17  C14 UNL     1      23.556  -0.773  53.799  1.00  0.00     0.037 A 
HETATM   18  C15 UNL     1      22.761  -1.031  54.911  1.00  0.00     0.065 A 
HETATM   19  C16 UNL     1      21.462  -0.576  54.892  1.00  0.00     0.037 A 
HETATM   20  C17 UNL     1      20.940   0.117  53.809  1.00  0.00     0.011 A 
BRANCH  18  21
HETATM   21  O2  UNL     1      23.323  -1.728  55.972  1.00  0.00    -0.361 OA
HETATM   22  H15 UNL     1      23.380  -2.748  55.941  1.00  0.00     0.217 HD
ENDBRANCH  18  21
ENDBRANCH   1  15
TORSDOF 6
ENDMDL
