MODEL 1
REMARK VINA RESULT:      -8.1      0.000      0.000
REMARK  7 active torsions:
REMARK  status: ('A' for Active; 'I' for Inactive)
REMARK    1  A    between atoms: C5_6  and  N2_7 
REMARK    2  A    between atoms: C7_9  and  C8_10 
REMARK    3  A    between atoms: C13_17  and  N4_18 
REMARK    4  A    between atoms: N4_18  and  C14_19 
REMARK    5  A    between atoms: C14_19  and  C15_20 
REMARK    6  A    between atoms: C15_20  and  O2_21 
REMARK    7  A    between atoms: C16_23  and  N6_24 
ROOT
HETATM    1  C1  UNL     1      21.596   0.228  54.101  1.00  0.00     0.050 C 
HETATM    2  C2  UNL     1      22.838   0.410  53.331  1.00  0.00    -0.025 C 
HETATM    3  C3  UNL     1      24.112  -0.040  53.481  1.00  0.00     0.097 C 
HETATM    4  C4  UNL     1      24.289  -0.894  54.635  1.00  0.00     0.104 C 
HETATM    5  N1  UNL     1      24.423  -1.560  55.569  1.00  0.00    -0.191 NA
HETATM    6  C5  UNL     1      25.218   0.421  52.648  1.00  0.00     0.147 C 
HETATM    7  N3  UNL     1      25.084   1.329  51.698  1.00  0.00    -0.253 NA
HETATM    8  C12 UNL     1      23.803   1.928  51.459  1.00  0.00     0.216 A 
HETATM    9  C13 UNL     1      23.426   2.375  50.151  1.00  0.00     0.132 A 
HETATM   10  N5  UNL     1      22.241   1.878  49.903  1.00  0.00    -0.215 NA
HETATM   11  C16 UNL     1      21.811   1.078  51.024  1.00  0.00     0.132 A 
HETATM   12  C17 UNL     1      22.749   1.065  51.996  1.00  0.00     0.027 A 
ENDROOT
BRANCH   6  13
HETATM   13  N2  UNL     1      26.477  -0.161  52.918  1.00  0.00    -0.336 N 
HETATM   14  C6  UNL     1      27.407   0.707  53.594  1.00  0.00     0.107 A 
HETATM   15  C7  UNL     1      28.639   0.348  53.905  1.00  0.00     0.017 A 
HETATM   16  C9  UNL     1      29.126  -0.987  53.579  1.00  0.00     0.013 A 
HETATM   17  C10 UNL     1      28.270  -1.772  52.976  1.00  0.00    -0.006 A 
HETATM   18  C11 UNL     1      26.881  -1.527  52.568  1.00  0.00     0.157 A 
BRANCH  15  19
HETATM   19  C8  UNL     1      29.527   1.279  54.588  1.00  0.00     0.271 C 
HETATM   20  O1  UNL     1      29.260   2.516  54.590  1.00  0.00    -0.301 OA
ENDBRANCH  15  19
ENDBRANCH   6  13
BRANCH  11  21
HETATM   21  N6  UNL     1      20.554   0.381  51.142  1.00  0.00    -0.383 N 
HETATM   22  H17 UNL     1      20.199  -0.382  51.757  1.00  0.00     0.157 HD
HETATM   23  H18 UNL     1      19.870   0.736  50.452  1.00  0.00     0.157 HD
ENDBRANCH  11  21
BRANCH   9  24
HETATM   24  N4  UNL     1      24.147   3.195  49.240  1.00  0.00    -0.374 N 
HETATM   25  H11 UNL     1      24.081   2.934  48.218  1.00  0.00     0.161 HD
BRANCH  24  26
HETATM   26  C14 UNL     1      24.935   4.329  49.694  1.00  0.00     0.147 C 
BRANCH  26  27
HETATM   27  C15 UNL     1      26.393   3.952  49.522  1.00  0.00     0.183 C 
BRANCH  27  28
HETATM   28  O2  UNL     1      26.957   3.554  50.723  1.00  0.00    -0.399 OA
HETATM   29  H16 UNL     1      27.091   4.306  51.369  1.00  0.00     0.209 HD
ENDBRANCH  27  28
ENDBRANCH  26  27
ENDBRANCH  24  26
ENDBRANCH   9  24
TORSDOF 7
ENDMDL
MODEL 2
REMARK VINA RESULT:      -8.0      1.623      5.523
REMARK  7 active torsions:
REMARK  status: ('A' for Active; 'I' for Inactive)
REMARK    1  A    between atoms: C5_6  and  N2_7 
REMARK    2  A    between atoms: C7_9  and  C8_10 
REMARK    3  A    between atoms: C13_17  and  N4_18 
REMARK    4  A    between atoms: N4_18  and  C14_19 
REMARK    5  A    between atoms: C14_19  and  C15_20 
REMARK    6  A    between atoms: C15_20  and  O2_21 
REMARK    7  A    between atoms: C16_23  and  N6_24 
ROOT
HETATM    1  C1  UNL     1      22.417  -1.278  53.027  1.00  0.00     0.050 C 
HETATM    2  C2  UNL     1      23.368  -0.153  53.081  1.00  0.00    -0.025 C 
HETATM    3  C3  UNL     1      23.364   1.106  52.570  1.00  0.00     0.097 C 
HETATM    4  C4  UNL     1      22.167   1.420  51.821  1.00  0.00     0.104 C 
HETATM    5  N1  UNL     1      21.215   1.655  51.211  1.00  0.00    -0.191 NA
HETATM    6  C5  UNL     1      24.522   1.992  52.640  1.00  0.00     0.147 C 
HETATM    7  N3  UNL     1      25.675   1.641  53.180  1.00  0.00    -0.253 NA
HETATM    8  C12 UNL     1      25.839   0.322  53.719  1.00  0.00     0.216 A 
HETATM    9  C13 UNL     1      26.721   0.076  54.821  1.00  0.00     0.132 A 
HETATM   10  N5  UNL     1      26.047  -0.619  55.703  1.00  0.00    -0.215 NA
HETATM   11  C16 UNL     1      24.704  -0.833  55.221  1.00  0.00     0.132 A 
HETATM   12  C17 UNL     1      24.525  -0.255  54.012  1.00  0.00     0.027 A 
ENDROOT
BRANCH   6  13
HETATM   13  N2  UNL     1      24.348   3.277  52.079  1.00  0.00    -0.336 N 
HETATM   14  C6  UNL     1      25.151   3.534  50.909  1.00  0.00     0.107 A 
HETATM   15  C7  UNL     1      25.144   4.687  50.265  1.00  0.00     0.017 A 
HETATM   16  C9  UNL     1      24.291   5.781  50.714  1.00  0.00     0.013 A 
HETATM   17  C10 UNL     1      23.557   5.534  51.769  1.00  0.00    -0.006 A 
HETATM   18  C11 UNL     1      23.450   4.319  52.587  1.00  0.00     0.157 A 
BRANCH  15  19
HETATM   19  C8  UNL     1      25.983   4.879  49.090  1.00  0.00     0.271 C 
HETATM   20  O1  UNL     1      27.102   4.293  49.014  1.00  0.00    -0.301 OA
ENDBRANCH  15  19
ENDBRANCH   6  13
BRANCH  11  21
HETATM   21  N6  UNL     1      23.663  -1.569  55.895  1.00  0.00    -0.383 N 
HETATM   22  H17 UNL     1      22.891  -1.310  56.546  1.00  0.00     0.157 HD
HETATM   23  H18 UNL     1      23.716  -2.576  55.664  1.00  0.00     0.157 HD
ENDBRANCH  11  21
BRANCH   9  24
HETATM   24  N4  UNL     1      28.073   0.478  54.996  1.00  0.00    -0.374 N 
HETATM   25  H11 UNL     1      28.419   0.542  55.992  1.00  0.00     0.161 HD
BRANCH  24  26
HETATM   26  C14 UNL     1      28.930   0.786  53.863  1.00  0.00     0.147 C 
BRANCH  26  27
HETATM   27  C15 UNL     1      29.069   2.294  53.811  1.00  0.00     0.183 C 
BRANCH  27  28
HETATM   28  O2  UNL     1      28.337   2.834  52.766  1.00  0.00    -0.399 OA
HETATM   29  H16 UNL     1      28.047   3.777  52.929  1.00  0.00     0.209 HD
ENDBRANCH  27  28
ENDBRANCH  26  27
ENDBRANCH  24  26
ENDBRANCH   9  24
TORSDOF 7
ENDMDL
MODEL 3
REMARK VINA RESULT:      -7.7      1.797      2.259
REMARK  7 active torsions:
REMARK  status: ('A' for Active; 'I' for Inactive)
REMARK    1  A    between atoms: C5_6  and  N2_7 
REMARK    2  A    between atoms: C7_9  and  C8_10 
REMARK    3  A    between atoms: C13_17  and  N4_18 
REMARK    4  A    between atoms: N4_18  and  C14_19 
REMARK    5  A    between atoms: C14_19  and  C15_20 
REMARK    6  A    between atoms: C15_20  and  O2_21 
REMARK    7  A    between atoms: C16_23  and  N6_24 
ROOT
HETATM    1  C1  UNL     1      22.231   0.197  53.686  1.00  0.00     0.050 C 
HETATM    2  C2  UNL     1      23.482   0.722  53.111  1.00  0.00    -0.025 C 
HETATM    3  C3  UNL     1      24.798   0.533  53.392  1.00  0.00     0.097 C 
HETATM    4  C4  UNL     1      25.027  -0.392  54.480  1.00  0.00     0.104 C 
HETATM    5  N1  UNL     1      25.199  -1.119  55.360  1.00  0.00    -0.191 NA
HETATM    6  C5  UNL     1      25.861   1.308  52.761  1.00  0.00     0.147 C 
HETATM    7  N3  UNL     1      25.639   2.272  51.885  1.00  0.00    -0.253 NA
HETATM    8  C12 UNL     1      24.292   2.613  51.528  1.00  0.00     0.216 A 
HETATM    9  C13 UNL     1      23.977   3.120  50.226  1.00  0.00     0.132 A 
HETATM   10  N5  UNL     1      22.967   2.419  49.776  1.00  0.00    -0.215 NA
HETATM   11  C16 UNL     1      22.601   1.423  50.753  1.00  0.00     0.132 A 
HETATM   12  C17 UNL     1      23.402   1.493  51.839  1.00  0.00     0.027 A 
ENDROOT
BRANCH   6  13
HETATM   13  N2  UNL     1      27.179   0.974  53.147  1.00  0.00    -0.336 N 
HETATM   14  C6  UNL     1      27.530  -0.410  52.948  1.00  0.00     0.107 A 
HETATM   15  C7  UNL     1      28.706  -0.913  53.275  1.00  0.00     0.017 A 
HETATM   16  C9  UNL     1      29.738  -0.064  53.858  1.00  0.00     0.013 A 
HETATM   17  C10 UNL     1      29.414   1.193  54.024  1.00  0.00    -0.006 A 
HETATM   18  C11 UNL     1      28.165   1.900  53.714  1.00  0.00     0.157 A 
BRANCH  15  19
HETATM   19  C8  UNL     1      28.993  -2.323  53.048  1.00  0.00     0.271 C 
HETATM   20  O1  UNL     1      28.058  -3.110  52.721  1.00  0.00    -0.301 OA
ENDBRANCH  15  19
ENDBRANCH   6  13
BRANCH  11  21
HETATM   21  N6  UNL     1      21.525   0.470  50.637  1.00  0.00    -0.383 N 
HETATM   22  H17 UNL     1      20.734   0.185  51.254  1.00  0.00     0.157 HD
HETATM   23  H18 UNL     1      21.570  -0.028  49.732  1.00  0.00     0.157 HD
ENDBRANCH  11  21
BRANCH   9  24
HETATM   24  N4  UNL     1      24.597   4.172  49.498  1.00  0.00    -0.374 N 
HETATM   25  H11 UNL     1      24.592   4.082  48.445  1.00  0.00     0.161 HD
BRANCH  24  26
HETATM   26  C14 UNL     1      25.205   5.309  50.168  1.00  0.00     0.147 C 
BRANCH  26  27
HETATM   27  C15 UNL     1      24.079   6.112  50.787  1.00  0.00     0.183 C 
BRANCH  27  28
HETATM   28  O2  UNL     1      24.440   6.621  52.024  1.00  0.00    -0.399 OA
HETATM   29  H16 UNL     1      25.229   6.158  52.430  1.00  0.00     0.209 HD
ENDBRANCH  27  28
ENDBRANCH  26  27
ENDBRANCH  24  26
ENDBRANCH   9  24
TORSDOF 7
ENDMDL
MODEL 4
REMARK VINA RESULT:      -7.5      2.635      4.718
REMARK  7 active torsions:
REMARK  status: ('A' for Active; 'I' for Inactive)
REMARK    1  A    between atoms: C5_6  and  N2_7 
REMARK    2  A    between atoms: C7_9  and  C8_10 
REMARK    3  A    between atoms: C13_17  and  N4_18 
REMARK    4  A    between atoms: N4_18  and  C14_19 
REMARK    5  A    between atoms: C14_19  and  C15_20 
REMARK    6  A    between atoms: C15_20  and  O2_21 
REMARK    7  A    between atoms: C16_23  and  N6_24 
ROOT
HETATM    1  C1  UNL     1      23.149   3.504  49.600  1.00  0.00     0.050 C 
HETATM    2  C2  UNL     1      23.387   2.679  50.798  1.00  0.00    -0.025 C 
HETATM    3  C3  UNL     1      24.505   2.193  51.397  1.00  0.00     0.097 C 
HETATM    4  C4  UNL     1      25.729   2.575  50.728  1.00  0.00     0.104 C 
HETATM    5  N1  UNL     1      26.700   2.872  50.177  1.00  0.00    -0.191 NA
HETATM    6  C5  UNL     1      24.461   1.251  52.511  1.00  0.00     0.147 C 
HETATM    7  N3  UNL     1      23.337   0.773  53.015  1.00  0.00    -0.253 NA
HETATM    8  C12 UNL     1      22.078   1.163  52.450  1.00  0.00     0.216 A 
HETATM    9  C13 UNL     1      20.895   1.237  53.254  1.00  0.00     0.132 A 
HETATM   10  N5  UNL     1      20.344   2.402  53.019  1.00  0.00    -0.215 NA
HETATM   11  C16 UNL     1      21.152   3.133  52.074  1.00  0.00     0.132 A 
HETATM   12  C17 UNL     1      22.240   2.417  51.710  1.00  0.00     0.027 A 
ENDROOT
BRANCH   6  13
HETATM   13  N2  UNL     1      25.712   0.858  53.036  1.00  0.00    -0.336 N 
HETATM   14  C6  UNL     1      26.126  -0.472  52.668  1.00  0.00     0.107 A 
HETATM   15  C7  UNL     1      27.252  -1.023  53.084  1.00  0.00     0.017 A 
HETATM   16  C9  UNL     1      28.160  -0.283  53.952  1.00  0.00     0.013 A 
HETATM   17  C10 UNL     1      27.782   0.928  54.271  1.00  0.00    -0.006 A 
HETATM   18  C11 UNL     1      26.577   1.677  53.893  1.00  0.00     0.157 A 
BRANCH  15  19
HETATM   19  C8  UNL     1      27.607  -2.374  52.674  1.00  0.00     0.271 C 
HETATM   20  O1  UNL     1      28.576  -2.967  53.233  1.00  0.00    -0.301 OA
ENDBRANCH  15  19
ENDBRANCH   6  13
BRANCH  11  21
HETATM   21  N6  UNL     1      20.871   4.446  51.547  1.00  0.00    -0.383 N 
HETATM   22  H17 UNL     1      20.114   5.146  51.701  1.00  0.00     0.157 HD
HETATM   23  H18 UNL     1      21.597   4.734  50.870  1.00  0.00     0.157 HD
ENDBRANCH  11  21
BRANCH   9  24
HETATM   24  N4  UNL     1      20.363   0.278  54.158  1.00  0.00    -0.374 N 
HETATM   25  H11 UNL     1      20.107   0.629  55.121  1.00  0.00     0.161 HD
BRANCH  24  26
HETATM   26  C14 UNL     1      20.182  -1.113  53.775  1.00  0.00     0.147 C 
BRANCH  26  27
HETATM   27  C15 UNL     1      21.342  -1.888  54.366  1.00  0.00     0.183 C 
BRANCH  27  28
HETATM   28  O2  UNL     1      22.042  -1.126  55.288  1.00  0.00    -0.399 OA
HETATM   29  H16 UNL     1      22.990  -0.952  55.022  1.00  0.00     0.209 HD
ENDBRANCH  27  28
ENDBRANCH  26  27
ENDBRANCH  24  26
ENDBRANCH   9  24
TORSDOF 7
ENDMDL
MODEL 5
REMARK VINA RESULT:      -7.3      1.971      5.695
REMARK  7 active torsions:
REMARK  status: ('A' for Active; 'I' for Inactive)
REMARK    1  A    between atoms: C5_6  and  N2_7 
REMARK    2  A    between atoms: C7_9  and  C8_10 
REMARK    3  A    between atoms: C13_17  and  N4_18 
REMARK    4  A    between atoms: N4_18  and  C14_19 
REMARK    5  A    between atoms: C14_19  and  C15_20 
REMARK    6  A    between atoms: C15_20  and  O2_21 
REMARK    7  A    between atoms: C16_23  and  N6_24 
ROOT
HETATM    1  C1  UNL     1      21.021  -0.051  51.842  1.00  0.00     0.050 C 
HETATM    2  C2  UNL     1      22.269   0.708  52.033  1.00  0.00    -0.025 C 
HETATM    3  C3  UNL     1      22.677   1.954  51.673  1.00  0.00     0.097 C 
HETATM    4  C4  UNL     1      21.668   2.706  50.960  1.00  0.00     0.104 C 
HETATM    5  N1  UNL     1      20.862   3.292  50.376  1.00  0.00    -0.191 NA
HETATM    6  C5  UNL     1      24.047   2.421  51.853  1.00  0.00     0.147 C 
HETATM    7  N3  UNL     1      25.012   1.671  52.355  1.00  0.00    -0.253 NA
HETATM    8  C12 UNL     1      24.737   0.315  52.736  1.00  0.00     0.216 A 
HETATM    9  C13 UNL     1      25.452  -0.313  53.806  1.00  0.00     0.132 A 
HETATM   10  N5  UNL     1      24.560  -0.855  54.597  1.00  0.00    -0.215 NA
HETATM   11  C16 UNL     1      23.238  -0.585  54.086  1.00  0.00     0.132 A 
HETATM   12  C17 UNL     1      23.298   0.149  52.952  1.00  0.00     0.027 A 
ENDROOT
BRANCH   6  13
HETATM   13  N2  UNL     1      24.304   3.749  51.446  1.00  0.00    -0.336 N 
HETATM   14  C6  UNL     1      25.290   3.877  50.403  1.00  0.00     0.107 A 
HETATM   15  C7  UNL     1      25.681   5.040  49.913  1.00  0.00     0.017 A 
HETATM   16  C9  UNL     1      25.106   6.284  50.412  1.00  0.00     0.013 A 
HETATM   17  C10 UNL     1      24.203   6.157  51.350  1.00  0.00    -0.006 A 
HETATM   18  C11 UNL     1      23.665   4.951  51.992  1.00  0.00     0.157 A 
BRANCH  15  19
HETATM   19  C8  UNL     1      26.685   5.095  48.859  1.00  0.00     0.271 C 
HETATM   20  O1  UNL     1      27.676   4.309  48.894  1.00  0.00    -0.301 OA
ENDBRANCH  15  19
ENDBRANCH   6  13
BRANCH  11  21
HETATM   21  N6  UNL     1      21.994  -1.029  54.663  1.00  0.00    -0.383 N 
HETATM   22  H17 UNL     1      21.727  -1.470  55.570  1.00  0.00     0.157 HD
HETATM   23  H18 UNL     1      21.206  -0.861  54.014  1.00  0.00     0.157 HD
ENDBRANCH  11  21
BRANCH   9  24
HETATM   24  N4  UNL     1      26.854  -0.375  54.035  1.00  0.00    -0.374 N 
HETATM   25  H11 UNL     1      27.193  -0.033  54.975  1.00  0.00     0.161 HD
BRANCH  24  26
HETATM   26  C14 UNL     1      27.770  -0.881  53.026  1.00  0.00     0.147 C 
BRANCH  26  27
HETATM   27  C15 UNL     1      27.341  -2.301  52.712  1.00  0.00     0.183 C 
BRANCH  27  28
HETATM   28  O2  UNL     1      28.332  -3.212  53.041  1.00  0.00    -0.399 OA
HETATM   29  H16 UNL     1      28.085  -4.160  52.835  1.00  0.00     0.209 HD
ENDBRANCH  27  28
ENDBRANCH  26  27
ENDBRANCH  24  26
ENDBRANCH   9  24
TORSDOF 7
ENDMDL
MODEL 6
REMARK VINA RESULT:      -7.0      7.924     11.195
REMARK  7 active torsions:
REMARK  status: ('A' for Active; 'I' for Inactive)
REMARK    1  A    between atoms: C5_6  and  N2_7 
REMARK    2  A    between atoms: C7_9  and  C8_10 
REMARK    3  A    between atoms: C13_17  and  N4_18 
REMARK    4  A    between atoms: N4_18  and  C14_19 
REMARK    5  A    between atoms: C14_19  and  C15_20 
REMARK    6  A    between atoms: C15_20  and  O2_21 
REMARK    7  A    between atoms: C16_23  and  N6_24 
ROOT
HETATM    1  C1  UNL     1      32.444  11.347  47.054  1.00  0.00     0.050 C 
HETATM    2  C2  UNL     1      32.161   9.988  47.547  1.00  0.00    -0.025 C 
HETATM    3  C3  UNL     1      32.897   8.849  47.638  1.00  0.00     0.097 C 
HETATM    4  C4  UNL     1      34.255   9.001  47.164  1.00  0.00     0.104 C 
HETATM    5  N1  UNL     1      35.332   9.128  46.767  1.00  0.00    -0.191 NA
HETATM    6  C5  UNL     1      32.323   7.565  48.029  1.00  0.00     0.147 C 
HETATM    7  N3  UNL     1      31.042   7.393  48.302  1.00  0.00    -0.253 NA
HETATM    8  C12 UNL     1      30.136   8.501  48.201  1.00  0.00     0.216 A 
HETATM    9  C13 UNL     1      28.976   8.588  49.037  1.00  0.00     0.132 A 
HETATM   10  N5  UNL     1      28.971   9.789  49.560  1.00  0.00    -0.215 NA
HETATM   11  C16 UNL     1      30.130  10.517  49.102  1.00  0.00     0.132 A 
HETATM   12  C17 UNL     1      30.885   9.756  48.279  1.00  0.00     0.027 A 
ENDROOT
BRANCH   6  13
HETATM   13  N2  UNL     1      33.227   6.481  48.096  1.00  0.00    -0.336 N 
HETATM   14  C6  UNL     1      32.879   5.357  47.263  1.00  0.00     0.107 A 
HETATM   15  C7  UNL     1      33.588   4.244  47.215  1.00  0.00     0.017 A 
HETATM   16  C9  UNL     1      34.798   4.102  48.016  1.00  0.00     0.013 A 
HETATM   17  C10 UNL     1      35.113   5.132  48.759  1.00  0.00    -0.006 A 
HETATM   18  C11 UNL     1      34.439   6.427  48.921  1.00  0.00     0.157 A 
BRANCH  15  19
HETATM   19  C8  UNL     1      33.177   3.146  46.352  1.00  0.00     0.271 C 
HETATM   20  O1  UNL     1      32.992   1.994  46.844  1.00  0.00    -0.301 OA
ENDBRANCH  15  19
ENDBRANCH   6  13
BRANCH  11  21
HETATM   21  N6  UNL     1      30.470  11.877  49.439  1.00  0.00    -0.383 N 
HETATM   22  H17 UNL     1      29.950  12.675  49.865  1.00  0.00     0.157 HD
HETATM   23  H18 UNL     1      31.454  12.082  49.195  1.00  0.00     0.157 HD
ENDBRANCH  11  21
BRANCH   9  24
HETATM   24  N4  UNL     1      27.983   7.606  49.301  1.00  0.00    -0.374 N 
HETATM   25  H11 UNL     1      27.693   7.490  50.310  1.00  0.00     0.161 HD
BRANCH  24  26
HETATM   26  C14 UNL     1      27.402   6.804  48.237  1.00  0.00     0.147 C 
BRANCH  26  27
HETATM   27  C15 UNL     1      27.729   5.357  48.545  1.00  0.00     0.183 C 
BRANCH  27  28
HETATM   28  O2  UNL     1      29.020   5.223  49.031  1.00  0.00    -0.399 OA
HETATM   29  H16 UNL     1      29.100   4.553  49.769  1.00  0.00     0.209 HD
ENDBRANCH  27  28
ENDBRANCH  26  27
ENDBRANCH  24  26
ENDBRANCH   9  24
TORSDOF 7
ENDMDL
MODEL 7
REMARK VINA RESULT:      -7.0      2.079      5.912
REMARK  7 active torsions:
REMARK  status: ('A' for Active; 'I' for Inactive)
REMARK    1  A    between atoms: C5_6  and  N2_7 
REMARK    2  A    between atoms: C7_9  and  C8_10 
REMARK    3  A    between atoms: C13_17  and  N4_18 
REMARK    4  A    between atoms: N4_18  and  C14_19 
REMARK    5  A    between atoms: C14_19  and  C15_20 
REMARK    6  A    between atoms: C15_20  and  O2_21 
REMARK    7  A    between atoms: C16_23  and  N6_24 
ROOT
HETATM    1  C1  UNL     1      21.739   1.214  49.944  1.00  0.00     0.050 C 
HETATM    2  C2  UNL     1      22.998   1.838  50.386  1.00  0.00    -0.025 C 
HETATM    3  C3  UNL     1      23.721   2.905  49.953  1.00  0.00     0.097 C 
HETATM    4  C4  UNL     1      23.123   3.586  48.826  1.00  0.00     0.104 C 
HETATM    5  N1  UNL     1      22.647   4.113  47.916  1.00  0.00    -0.191 NA
HETATM    6  C5  UNL     1      25.044   3.229  50.477  1.00  0.00     0.147 C 
HETATM    7  N3  UNL     1      25.662   2.506  51.393  1.00  0.00    -0.253 NA
HETATM    8  C12 UNL     1      25.036   1.322  51.908  1.00  0.00     0.216 A 
HETATM    9  C13 UNL     1      25.280   0.879  53.249  1.00  0.00     0.132 A 
HETATM   10  N5  UNL     1      24.111   0.651  53.794  1.00  0.00    -0.215 NA
HETATM   11  C16 UNL     1      23.070   0.954  52.843  1.00  0.00     0.132 A 
HETATM   12  C17 UNL     1      23.593   1.388  51.675  1.00  0.00     0.027 A 
ENDROOT
BRANCH   6  13
HETATM   13  N2  UNL     1      25.654   4.384  49.936  1.00  0.00    -0.336 N 
HETATM   14  C6  UNL     1      25.050   5.628  50.343  1.00  0.00     0.107 A 
HETATM   15  C7  UNL     1      25.466   6.808  49.919  1.00  0.00     0.017 A 
HETATM   16  C9  UNL     1      26.595   6.909  49.003  1.00  0.00     0.013 A 
HETATM   17  C10 UNL     1      27.144   5.776  48.649  1.00  0.00    -0.006 A 
HETATM   18  C11 UNL     1      26.806   4.398  49.028  1.00  0.00     0.157 A 
BRANCH  15  19
HETATM   19  C8  UNL     1      24.807   8.026  50.371  1.00  0.00     0.271 C 
HETATM   20  O1  UNL     1      23.694   7.954  50.969  1.00  0.00    -0.301 OA
ENDBRANCH  15  19
ENDBRANCH   6  13
BRANCH  11  21
HETATM   21  N6  UNL     1      21.651   0.813  53.058  1.00  0.00    -0.383 N 
HETATM   22  H17 UNL     1      20.874   1.480  53.255  1.00  0.00     0.157 HD
HETATM   23  H18 UNL     1      21.366  -0.179  52.999  1.00  0.00     0.157 HD
ENDBRANCH  11  21
BRANCH   9  24
HETATM   24  N4  UNL     1      26.517   0.701  53.925  1.00  0.00    -0.374 N 
HETATM   25  H11 UNL     1      26.474   0.652  54.979  1.00  0.00     0.161 HD
BRANCH  24  26
HETATM   26  C14 UNL     1      27.774   0.595  53.202  1.00  0.00     0.147 C 
BRANCH  26  27
HETATM   27  C15 UNL     1      28.588   1.826  53.548  1.00  0.00     0.183 C 
BRANCH  27  28
HETATM   28  O2  UNL     1      28.380   2.845  52.632  1.00  0.00    -0.399 OA
HETATM   29  H16 UNL     1      27.413   3.018  52.442  1.00  0.00     0.209 HD
ENDBRANCH  27  28
ENDBRANCH  26  27
ENDBRANCH  24  26
ENDBRANCH   9  24
TORSDOF 7
ENDMDL
MODEL 8
REMARK VINA RESULT:      -6.8      2.824      6.116
REMARK  7 active torsions:
REMARK  status: ('A' for Active; 'I' for Inactive)
REMARK    1  A    between atoms: C5_6  and  N2_7 
REMARK    2  A    between atoms: C7_9  and  C8_10 
REMARK    3  A    between atoms: C13_17  and  N4_18 
REMARK    4  A    between atoms: N4_18  and  C14_19 
REMARK    5  A    between atoms: C14_19  and  C15_20 
REMARK    6  A    between atoms: C15_20  and  O2_21 
REMARK    7  A    between atoms: C16_23  and  N6_24 
ROOT
HETATM    1  C1  UNL     1      24.965  -0.668  54.283  1.00  0.00     0.050 C 
HETATM    2  C2  UNL     1      24.471   0.355  53.344  1.00  0.00    -0.025 C 
HETATM    3  C3  UNL     1      23.241   0.862  53.068  1.00  0.00     0.097 C 
HETATM    4  C4  UNL     1      22.187   0.287  53.876  1.00  0.00     0.104 C 
HETATM    5  N1  UNL     1      21.351  -0.190  54.514  1.00  0.00    -0.191 NA
HETATM    6  C5  UNL     1      22.992   1.778  51.960  1.00  0.00     0.147 C 
HETATM    7  N3  UNL     1      23.930   2.173  51.118  1.00  0.00    -0.253 NA
HETATM    8  C12 UNL     1      25.270   1.680  51.260  1.00  0.00     0.216 A 
HETATM    9  C13 UNL     1      26.397   2.474  50.871  1.00  0.00     0.132 A 
HETATM   10  N5  UNL     1      27.241   2.458  51.871  1.00  0.00    -0.215 NA
HETATM   11  C16 UNL     1      26.692   1.674  52.951  1.00  0.00     0.132 A 
HETATM   12  C17 UNL     1      25.471   1.192  52.626  1.00  0.00     0.027 A 
ENDROOT
BRANCH   6  13
HETATM   13  N2  UNL     1      21.661   2.230  51.822  1.00  0.00    -0.336 N 
HETATM   14  C6  UNL     1      20.755   1.264  51.253  1.00  0.00     0.107 A 
HETATM   15  C7  UNL     1      19.479   1.515  51.022  1.00  0.00     0.017 A 
HETATM   16  C9  UNL     1      18.909   2.815  51.352  1.00  0.00     0.013 A 
HETATM   17  C10 UNL     1      19.736   3.681  51.879  1.00  0.00    -0.006 A 
HETATM   18  C11 UNL     1      21.164   3.558  52.198  1.00  0.00     0.157 A 
BRANCH  15  19
HETATM   19  C8  UNL     1      18.621   0.491  50.442  1.00  0.00     0.271 C 
HETATM   20  O1  UNL     1      18.158  -0.431  51.176  1.00  0.00    -0.301 OA
ENDBRANCH  15  19
ENDBRANCH   6  13
BRANCH  11  21
HETATM   21  N6  UNL     1      27.327   1.402  54.217  1.00  0.00    -0.383 N 
HETATM   22  H17 UNL     1      26.978   1.180  55.174  1.00  0.00     0.157 HD
HETATM   23  H18 UNL     1      28.356   1.441  54.127  1.00  0.00     0.157 HD
ENDBRANCH  11  21
BRANCH   9  24
HETATM   24  N4  UNL     1      26.624   3.176  49.655  1.00  0.00    -0.374 N 
HETATM   25  H11 UNL     1      27.234   2.693  48.940  1.00  0.00     0.161 HD
BRANCH  24  26
HETATM   26  C14 UNL     1      26.047   4.488  49.413  1.00  0.00     0.147 C 
BRANCH  26  27
HETATM   27  C15 UNL     1      27.125   5.330  48.760  1.00  0.00     0.183 C 
BRANCH  27  28
HETATM   28  O2  UNL     1      28.386   4.978  49.214  1.00  0.00    -0.399 OA
HETATM   29  H16 UNL     1      28.676   5.491  50.023  1.00  0.00     0.209 HD
ENDBRANCH  27  28
ENDBRANCH  26  27
ENDBRANCH  24  26
ENDBRANCH   9  24
TORSDOF 7
ENDMDL
MODEL 9
REMARK VINA RESULT:      -6.5      4.854      8.296
REMARK  7 active torsions:
REMARK  status: ('A' for Active; 'I' for Inactive)
REMARK    1  A    between atoms: C5_6  and  N2_7 
REMARK    2  A    between atoms: C7_9  and  C8_10 
REMARK    3  A    between atoms: C13_17  and  N4_18 
REMARK    4  A    between atoms: N4_18  and  C14_19 
REMARK    5  A    between atoms: C14_19  and  C15_20 
REMARK    6  A    between atoms: C15_20  and  O2_21 
REMARK    7  A    between atoms: C16_23  and  N6_24 
ROOT
HETATM    1  C1  UNL     1      26.117   8.015  47.160  1.00  0.00     0.050 C 
HETATM    2  C2  UNL     1      27.050   7.055  47.776  1.00  0.00    -0.025 C 
HETATM    3  C3  UNL     1      28.404   6.938  47.792  1.00  0.00     0.097 C 
HETATM    4  C4  UNL     1      29.081   7.986  47.059  1.00  0.00     0.104 C 
HETATM    5  N1  UNL     1      29.611   8.817  46.458  1.00  0.00    -0.191 NA
HETATM    6  C5  UNL     1      29.092   5.783  48.359  1.00  0.00     0.147 C 
HETATM    7  N3  UNL     1      28.463   4.745  48.881  1.00  0.00    -0.253 NA
HETATM    8  C12 UNL     1      27.029   4.711  48.890  1.00  0.00     0.216 A 
HETATM    9  C13 UNL     1      26.311   4.030  49.926  1.00  0.00     0.132 A 
HETATM   10  N5  UNL     1      25.400   4.859  50.369  1.00  0.00    -0.215 NA
HETATM   11  C16 UNL     1      25.503   6.110  49.657  1.00  0.00     0.132 A 
HETATM   12  C17 UNL     1      26.504   6.070  48.751  1.00  0.00     0.027 A 
ENDROOT
BRANCH   6  13
HETATM   13  N2  UNL     1      30.504   5.824  48.315  1.00  0.00    -0.336 N 
HETATM   14  C6  UNL     1      31.106   4.843  47.449  1.00  0.00     0.107 A 
HETATM   15  C7  UNL     1      32.412   4.711  47.300  1.00  0.00     0.017 A 
HETATM   16  C9  UNL     1      33.331   5.587  48.019  1.00  0.00     0.013 A 
HETATM   17  C10 UNL     1      32.774   6.482  48.793  1.00  0.00    -0.006 A 
HETATM   18  C11 UNL     1      31.357   6.755  49.062  1.00  0.00     0.157 A 
BRANCH  15  19
HETATM   19  C8  UNL     1      32.953   3.695  46.408  1.00  0.00     0.271 C 
HETATM   20  O1  UNL     1      32.852   2.471  46.714  1.00  0.00    -0.301 OA
ENDBRANCH  15  19
ENDBRANCH   6  13
BRANCH  11  21
HETATM   21  N6  UNL     1      24.664   7.269  49.843  1.00  0.00    -0.383 N 
HETATM   22  H17 UNL     1      23.637   7.416  49.948  1.00  0.00     0.157 HD
HETATM   23  H18 UNL     1      25.232   8.132  49.876  1.00  0.00     0.157 HD
ENDBRANCH  11  21
BRANCH   9  24
HETATM   24  N4  UNL     1      26.496   2.714  50.431  1.00  0.00    -0.374 N 
HETATM   25  H11 UNL     1      26.955   2.020  49.779  1.00  0.00     0.161 HD
BRANCH  24  26
HETATM   26  C14 UNL     1      26.073   2.345  51.772  1.00  0.00     0.147 C 
BRANCH  26  27
HETATM   27  C15 UNL     1      27.330   2.064  52.570  1.00  0.00     0.183 C 
BRANCH  27  28
HETATM   28  O2  UNL     1      27.304   2.703  53.798  1.00  0.00    -0.399 OA
HETATM   29  H16 UNL     1      28.213   2.930  54.150  1.00  0.00     0.209 HD
ENDBRANCH  27  28
ENDBRANCH  26  27
ENDBRANCH  24  26
ENDBRANCH   9  24
TORSDOF 7
ENDMDL
