MODEL 1
REMARK VINA RESULT:      -7.7      0.000      0.000
REMARK  4 active torsions:
REMARK  status: ('A' for Active; 'I' for Inactive)
REMARK    1  A    between atoms: C2_2  and  C3_3 
REMARK    2  A    between atoms: C3_3  and  C4_4 
REMARK    3  A    between atoms: C4_4  and  N1_5 
REMARK    4  A    between atoms: C10_11  and  O1_12 
ROOT
HETATM    1  N1  UNL     1      26.698   0.685  53.572  1.00  0.00    -0.349 N 
HETATM    2  C5  UNL     1      26.658   2.091  52.984  1.00  0.00     0.127 C 
HETATM    3  C6  UNL     1      25.714   2.768  53.912  1.00  0.00     0.014 C 
HETATM    4  C7  UNL     1      24.464   2.660  53.332  1.00  0.00     0.025 C 
HETATM    5  C8  UNL     1      23.830   2.100  52.072  1.00  0.00    -0.014 C 
HETATM    6  C9  UNL     1      23.600   1.522  50.796  1.00  0.00     0.050 C 
HETATM    7  C10 UNL     1      22.162   1.569  51.019  1.00  0.00     0.168 C 
HETATM    8 CL1  UNL     1      21.259   0.756  49.743  1.00  0.00    -0.083 Cl
HETATM    9  C11 UNL     1      21.990   0.577  52.257  1.00  0.00     0.029 A 
HETATM   10  C12 UNL     1      20.698   0.671  52.633  1.00  0.00     0.014 A 
HETATM   11  C13 UNL     1      20.102   0.017  53.680  1.00  0.00     0.001 A 
HETATM   12  C14 UNL     1      20.854  -0.832  54.455  1.00  0.00     0.002 A 
HETATM   13  C15 UNL     1      22.197  -0.913  54.043  1.00  0.00     0.041 A 
HETATM   14  C16 UNL     1      22.860  -0.275  52.990  1.00  0.00     0.183 A 
HETATM   15  N2  UNL     1      24.221  -0.818  53.214  1.00  0.00     0.142 N 
HETATM   16  C17 UNL     1      25.599  -0.288  53.432  1.00  0.00     0.452 A 
HETATM   17  O2  UNL     1      24.484  -0.040  53.227  1.00  0.00    -0.120 OA
HETATM   18  H21 UNL     1      24.342  -1.923  53.209  1.00  0.00     0.332 HD
ENDROOT
BRANCH   1  19
HETATM   19  C4  UNL     1      27.788  -0.072  54.123  1.00  0.00     0.122 C 
BRANCH  19  20
HETATM   20  C3  UNL     1      29.164   0.453  53.855  1.00  0.00     0.019 C 
BRANCH  20  21
HETATM   21  C2  UNL     1      30.144  -0.579  53.431  1.00  0.00    -0.003 C 
HETATM   22  C1  UNL     1      29.438  -1.936  53.317  1.00  0.00     0.005 C 
ENDBRANCH  20  21
ENDBRANCH  19  20
ENDBRANCH   1  19
BRANCH   7  23
HETATM   23  O1  UNL     1      21.692   2.793  51.319  1.00  0.00    -0.370 OA
HETATM   24  H16 UNL     1      21.203   3.249  50.580  1.00  0.00     0.212 HD
ENDBRANCH   7  23
TORSDOF 4
ENDMDL
MODEL 2
REMARK VINA RESULT:      -7.6      3.121      6.068
REMARK  4 active torsions:
REMARK  status: ('A' for Active; 'I' for Inactive)
REMARK    1  A    between atoms: C2_2  and  C3_3 
REMARK    2  A    between atoms: C3_3  and  C4_4 
REMARK    3  A    between atoms: C4_4  and  N1_5 
REMARK    4  A    between atoms: C10_11  and  O1_12 
ROOT
HETATM    1  N1  UNL     1      24.465   3.485  50.699  1.00  0.00    -0.349 N 
HETATM    2  C5  UNL     1      23.304   2.690  51.282  1.00  0.00     0.127 C 
HETATM    3  C6  UNL     1      23.430   3.007  52.729  1.00  0.00     0.014 C 
HETATM    4  C7  UNL     1      24.193   1.993  53.277  1.00  0.00     0.025 C 
HETATM    5  C8  UNL     1      24.874   0.708  52.843  1.00  0.00    -0.014 C 
HETATM    6  C9  UNL     1      25.327  -0.421  52.112  1.00  0.00     0.050 C 
HETATM    7  C10 UNL     1      26.169  -0.823  53.230  1.00  0.00     0.168 C 
HETATM    8 CL1  UNL     1      27.209  -2.188  52.829  1.00  0.00    -0.083 Cl
HETATM    9  C11 UNL     1      27.201   0.391  53.316  1.00  0.00     0.029 A 
HETATM   10  C12 UNL     1      27.936   0.178  54.426  1.00  0.00     0.014 A 
HETATM   11  C13 UNL     1      28.929   0.985  54.917  1.00  0.00     0.001 A 
HETATM   12  C14 UNL     1      29.246   2.141  54.245  1.00  0.00     0.002 A 
HETATM   13  C15 UNL     1      28.466   2.342  53.091  1.00  0.00     0.041 A 
HETATM   14  C16 UNL     1      27.445   1.559  52.542  1.00  0.00     0.183 A 
HETATM   15  N2  UNL     1      27.094   2.418  51.386  1.00  0.00     0.142 N 
HETATM   16  C17 UNL     1      25.878   3.084  50.836  1.00  0.00     0.452 A 
HETATM   17  O2  UNL     1      26.320   2.397  51.659  1.00  0.00    -0.120 OA
HETATM   18  H21 UNL     1      27.902   2.663  50.663  1.00  0.00     0.332 HD
ENDROOT
BRANCH   1  19
HETATM   19  C4  UNL     1      24.483   4.564  49.749  1.00  0.00     0.122 C 
BRANCH  19  20
HETATM   20  C3  UNL     1      25.538   5.607  49.948  1.00  0.00     0.019 C 
BRANCH  20  21
HETATM   21  C2  UNL     1      26.235   6.021  48.704  1.00  0.00    -0.003 C 
HETATM   22  C1  UNL     1      27.560   5.258  48.584  1.00  0.00     0.005 C 
ENDBRANCH  20  21
ENDBRANCH  19  20
ENDBRANCH   1  19
BRANCH   7  23
HETATM   23  O1  UNL     1      25.508  -0.970  54.392  1.00  0.00    -0.370 OA
HETATM   24  H16 UNL     1      25.175  -1.892  54.573  1.00  0.00     0.212 HD
ENDBRANCH   7  23
TORSDOF 4
ENDMDL
MODEL 3
REMARK VINA RESULT:      -7.4      2.339      3.970
REMARK  4 active torsions:
REMARK  status: ('A' for Active; 'I' for Inactive)
REMARK    1  A    between atoms: C2_2  and  C3_3 
REMARK    2  A    between atoms: C3_3  and  C4_4 
REMARK    3  A    between atoms: C4_4  and  N1_5 
REMARK    4  A    between atoms: C10_11  and  O1_12 
ROOT
HETATM    1  N1  UNL     1      26.973   0.286  54.311  1.00  0.00    -0.349 N 
HETATM    2  C5  UNL     1      25.636  -0.412  54.522  1.00  0.00     0.127 C 
HETATM    3  C6  UNL     1      25.376  -0.964  53.166  1.00  0.00     0.014 C 
HETATM    4  C7  UNL     1      24.603  -0.023  52.512  1.00  0.00     0.025 C 
HETATM    5  C8  UNL     1      23.960   1.323  52.788  1.00  0.00    -0.014 C 
HETATM    6  C9  UNL     1      23.477   2.510  53.399  1.00  0.00     0.050 C 
HETATM    7  C10 UNL     1      23.019   3.005  52.109  1.00  0.00     0.168 C 
HETATM    8 CL1  UNL     1      22.433   4.664  52.195  1.00  0.00    -0.083 Cl
HETATM    9  C11 UNL     1      24.393   3.159  51.311  1.00  0.00     0.029 A 
HETATM   10  C12 UNL     1      24.055   3.474  50.044  1.00  0.00     0.014 A 
HETATM   11  C13 UNL     1      24.914   3.673  48.995  1.00  0.00     0.001 A 
HETATM   12  C14 UNL     1      26.267   3.551  49.203  1.00  0.00     0.002 A 
HETATM   13  C15 UNL     1      26.594   3.221  50.532  1.00  0.00     0.041 A 
HETATM   14  C16 UNL     1      25.768   3.007  51.640  1.00  0.00     0.183 A 
HETATM   15  N2  UNL     1      26.810   2.675  52.641  1.00  0.00     0.142 N 
HETATM   16  C17 UNL     1      27.122   1.559  53.580  1.00  0.00     0.452 A 
HETATM   17  O2  UNL     1      26.390   1.985  52.788  1.00  0.00    -0.120 OA
HETATM   18  H21 UNL     1      27.608   3.428  52.822  1.00  0.00     0.332 HD
ENDROOT
BRANCH   1  19
HETATM   19  C4  UNL     1      28.257   0.061  54.916  1.00  0.00     0.122 C 
BRANCH  19  20
HETATM   20  C3  UNL     1      29.453   0.390  54.078  1.00  0.00     0.019 C 
BRANCH  20  21
HETATM   21  C2  UNL     1      30.205  -0.794  53.590  1.00  0.00    -0.003 C 
HETATM   22  C1  UNL     1      29.226  -1.941  53.312  1.00  0.00     0.005 C 
ENDBRANCH  20  21
ENDBRANCH  19  20
ENDBRANCH   1  19
BRANCH   7  23
HETATM   23  O1  UNL     1      22.186   2.169  51.464  1.00  0.00    -0.370 OA
HETATM   24  H16 UNL     1      22.606   1.330  51.128  1.00  0.00     0.212 HD
ENDBRANCH   7  23
TORSDOF 4
ENDMDL
MODEL 4
REMARK VINA RESULT:      -7.4      3.199      4.971
REMARK  4 active torsions:
REMARK  status: ('A' for Active; 'I' for Inactive)
REMARK    1  A    between atoms: C2_2  and  C3_3 
REMARK    2  A    between atoms: C3_3  and  C4_4 
REMARK    3  A    between atoms: C4_4  and  N1_5 
REMARK    4  A    between atoms: C10_11  and  O1_12 
ROOT
HETATM    1  N1  UNL     1      25.083   4.492  50.347  1.00  0.00    -0.349 N 
HETATM    2  C5  UNL     1      23.639   4.765  50.749  1.00  0.00     0.127 C 
HETATM    3  C6  UNL     1      23.777   4.964  52.216  1.00  0.00     0.014 C 
HETATM    4  C7  UNL     1      23.539   3.731  52.793  1.00  0.00     0.025 C 
HETATM    5  C8  UNL     1      23.171   2.320  52.372  1.00  0.00    -0.014 C 
HETATM    6  C9  UNL     1      22.786   1.167  51.639  1.00  0.00     0.050 C 
HETATM    7  C10 UNL     1      22.963   0.339  52.823  1.00  0.00     0.168 C 
HETATM    8 CL1  UNL     1      22.788  -1.379  52.473  1.00  0.00    -0.083 Cl
HETATM    9  C11 UNL     1      24.530   0.484  53.092  1.00  0.00     0.029 A 
HETATM   10  C12 UNL     1      24.765  -0.136  54.267  1.00  0.00     0.014 A 
HETATM   11  C13 UNL     1      25.970  -0.236  54.911  1.00  0.00     0.001 A 
HETATM   12  C14 UNL     1      27.083   0.336  54.343  1.00  0.00     0.002 A 
HETATM   13  C15 UNL     1      26.813   0.976  53.119  1.00  0.00     0.041 A 
HETATM   14  C16 UNL     1      25.611   1.111  52.416  1.00  0.00     0.183 A 
HETATM   15  N2  UNL     1      26.104   1.919  51.274  1.00  0.00     0.142 N 
HETATM   16  C17 UNL     1      25.781   3.221  50.624  1.00  0.00     0.452 A 
HETATM   17  O2  UNL     1      25.512   2.458  51.455  1.00  0.00    -0.120 OA
HETATM   18  H21 UNL     1      26.931   1.496  50.663  1.00  0.00     0.332 HD
ENDROOT
BRANCH   1  19
HETATM   19  C4  UNL     1      25.964   5.206  49.464  1.00  0.00     0.122 C 
BRANCH  19  20
HETATM   20  C3  UNL     1      27.137   4.441  48.934  1.00  0.00     0.019 C 
BRANCH  20  21
HETATM   21  C2  UNL     1      28.269   5.288  48.479  1.00  0.00    -0.003 C 
HETATM   22  C1  UNL     1      27.741   6.669  48.073  1.00  0.00     0.005 C 
ENDBRANCH  20  21
ENDBRANCH  19  20
ENDBRANCH   1  19
BRANCH   7  23
HETATM   23  O1  UNL     1      22.256   0.748  53.892  1.00  0.00    -0.370 OA
HETATM   24  H16 UNL     1      21.536   0.123  54.184  1.00  0.00     0.212 HD
ENDBRANCH   7  23
TORSDOF 4
ENDMDL
MODEL 5
REMARK VINA RESULT:      -7.3      3.023      3.895
REMARK  4 active torsions:
REMARK  status: ('A' for Active; 'I' for Inactive)
REMARK    1  A    between atoms: C2_2  and  C3_3 
REMARK    2  A    between atoms: C3_3  and  C4_4 
REMARK    3  A    between atoms: C4_4  and  N1_5 
REMARK    4  A    between atoms: C10_11  and  O1_12 
ROOT
HETATM    1  N1  UNL     1      25.009   3.527  50.944  1.00  0.00    -0.349 N 
HETATM    2  C5  UNL     1      23.983   4.646  50.813  1.00  0.00     0.127 C 
HETATM    3  C6  UNL     1      23.611   4.870  52.235  1.00  0.00     0.014 C 
HETATM    4  C7  UNL     1      22.495   4.088  52.466  1.00  0.00     0.025 C 
HETATM    5  C8  UNL     1      21.582   3.141  51.708  1.00  0.00    -0.014 C 
HETATM    6  C9  UNL     1      20.932   2.378  50.704  1.00  0.00     0.050 C 
HETATM    7  C10 UNL     1      20.104   1.732  51.711  1.00  0.00     0.168 C 
HETATM    8 CL1  UNL     1      19.121   0.433  51.040  1.00  0.00    -0.083 Cl
HETATM    9  C11 UNL     1      21.192   0.941  52.571  1.00  0.00     0.029 A 
HETATM   10  C12 UNL     1      20.529   0.426  53.627  1.00  0.00     0.014 A 
HETATM   11  C13 UNL     1      21.069  -0.308  54.651  1.00  0.00     0.001 A 
HETATM   12  C14 UNL     1      22.417  -0.573  54.647  1.00  0.00     0.002 A 
HETATM   13  C15 UNL     1      23.086  -0.025  53.537  1.00  0.00     0.041 A 
HETATM   14  C16 UNL     1      22.593   0.728  52.466  1.00  0.00     0.183 A 
HETATM   15  N2  UNL     1      23.868   0.963  51.746  1.00  0.00     0.142 N 
HETATM   16  C17 UNL     1      24.655   2.128  51.248  1.00  0.00     0.452 A 
HETATM   17  O2  UNL     1      23.689   1.763  51.777  1.00  0.00    -0.120 OA
HETATM   18  H21 UNL     1      24.452   0.071  51.430  1.00  0.00     0.332 HD
ENDROOT
BRANCH   1  19
HETATM   19  C4  UNL     1      26.401   3.482  50.591  1.00  0.00     0.122 C 
BRANCH  19  20
HETATM   20  C3  UNL     1      26.721   3.611  49.134  1.00  0.00     0.019 C 
BRANCH  20  21
HETATM   21  C2  UNL     1      27.576   4.777  48.794  1.00  0.00    -0.003 C 
HETATM   22  C1  UNL     1      26.698   6.025  48.641  1.00  0.00     0.005 C 
ENDBRANCH  20  21
ENDBRANCH  19  20
ENDBRANCH   1  19
BRANCH   7  23
HETATM   23  O1  UNL     1      19.413   2.587  52.487  1.00  0.00    -0.370 OA
HETATM   24  H16 UNL     1      19.759   3.522  52.494  1.00  0.00     0.212 HD
ENDBRANCH   7  23
TORSDOF 4
ENDMDL
MODEL 6
REMARK VINA RESULT:      -7.2      2.739      6.351
REMARK  4 active torsions:
REMARK  status: ('A' for Active; 'I' for Inactive)
REMARK    1  A    between atoms: C2_2  and  C3_3 
REMARK    2  A    between atoms: C3_3  and  C4_4 
REMARK    3  A    between atoms: C4_4  and  N1_5 
REMARK    4  A    between atoms: C10_11  and  O1_12 
ROOT
HETATM    1  N1  UNL     1      23.662   1.520  51.758  1.00  0.00    -0.349 N 
HETATM    2  C5  UNL     1      24.377   2.810  51.377  1.00  0.00     0.127 C 
HETATM    3  C6  UNL     1      25.353   2.317  50.369  1.00  0.00     0.014 C 
HETATM    4  C7  UNL     1      26.521   2.059  51.062  1.00  0.00     0.025 C 
HETATM    5  C8  UNL     1      27.060   2.160  52.477  1.00  0.00    -0.014 C 
HETATM    6  C9  UNL     1      27.233   2.429  53.860  1.00  0.00     0.050 C 
HETATM    7  C10 UNL     1      28.503   1.718  53.854  1.00  0.00     0.168 C 
HETATM    8 CL1  UNL     1      29.181   1.542  55.470  1.00  0.00    -0.083 Cl
HETATM    9  C11 UNL     1      28.044   0.231  53.502  1.00  0.00     0.029 A 
HETATM   10  C12 UNL     1      29.178  -0.478  53.327  1.00  0.00     0.014 A 
HETATM   11  C13 UNL     1      29.269  -1.801  52.980  1.00  0.00     0.001 A 
HETATM   12  C14 UNL     1      28.117  -2.523  52.780  1.00  0.00     0.002 A 
HETATM   13  C15 UNL     1      26.948  -1.762  52.968  1.00  0.00     0.041 A 
HETATM   14  C16 UNL     1      26.791  -0.417  53.320  1.00  0.00     0.183 A 
HETATM   15  N2  UNL     1      25.311  -0.343  53.284  1.00  0.00     0.142 N 
HETATM   16  C17 UNL     1      24.264   0.473  52.605  1.00  0.00     0.452 A 
HETATM   17  O2  UNL     1      25.398   0.291  52.769  1.00  0.00    -0.120 OA
HETATM   18  H21 UNL     1      24.745  -1.041  53.938  1.00  0.00     0.332 HD
ENDROOT
BRANCH   1  19
HETATM   19  C4  UNL     1      22.282   1.138  51.631  1.00  0.00     0.122 C 
BRANCH  19  20
HETATM   20  C3  UNL     1      21.608   0.662  52.880  1.00  0.00     0.019 C 
BRANCH  20  21
HETATM   21  C2  UNL     1      20.255   0.086  52.667  1.00  0.00    -0.003 C 
HETATM   22  C1  UNL     1      19.756   0.462  51.267  1.00  0.00     0.005 C 
ENDBRANCH  20  21
ENDBRANCH  19  20
ENDBRANCH   1  19
BRANCH   7  23
HETATM   23  O1  UNL     1      29.384   2.173  52.944  1.00  0.00    -0.370 OA
HETATM   24  H16 UNL     1      30.194   2.610  53.325  1.00  0.00     0.212 HD
ENDBRANCH   7  23
TORSDOF 4
ENDMDL
MODEL 7
REMARK VINA RESULT:      -7.0      4.674      5.882
REMARK  4 active torsions:
REMARK  status: ('A' for Active; 'I' for Inactive)
REMARK    1  A    between atoms: C2_2  and  C3_3 
REMARK    2  A    between atoms: C3_3  and  C4_4 
REMARK    3  A    between atoms: C4_4  and  N1_5 
REMARK    4  A    between atoms: C10_11  and  O1_12 
ROOT
HETATM    1  N1  UNL     1      27.087   6.275  48.620  1.00  0.00    -0.349 N 
HETATM    2  C5  UNL     1      25.809   7.098  48.727  1.00  0.00     0.127 C 
HETATM    3  C6  UNL     1      25.624   7.160  50.202  1.00  0.00     0.014 C 
HETATM    4  C7  UNL     1      24.786   6.109  50.525  1.00  0.00     0.025 C 
HETATM    5  C8  UNL     1      24.026   4.994  49.832  1.00  0.00    -0.014 C 
HETATM    6  C9  UNL     1      23.433   4.133  48.872  1.00  0.00     0.050 C 
HETATM    7  C10 UNL     1      22.960   3.254  49.932  1.00  0.00     0.168 C 
HETATM    8 CL1  UNL     1      22.233   1.777  49.304  1.00  0.00    -0.083 Cl
HETATM    9  C11 UNL     1      24.331   2.732  50.560  1.00  0.00     0.029 A 
HETATM   10  C12 UNL     1      23.992   2.020  51.654  1.00  0.00     0.014 A 
HETATM   11  C13 UNL     1      24.852   1.406  52.528  1.00  0.00     0.001 A 
HETATM   12  C14 UNL     1      26.206   1.495  52.310  1.00  0.00     0.002 A 
HETATM   13  C15 UNL     1      26.534   2.242  51.163  1.00  0.00     0.041 A 
HETATM   14  C16 UNL     1      25.707   2.889  50.239  1.00  0.00     0.183 A 
HETATM   15  N2  UNL     1      26.753   3.472  49.365  1.00  0.00     0.142 N 
HETATM   16  C17 UNL     1      27.141   4.820  48.857  1.00  0.00     0.452 A 
HETATM   17  O2  UNL     1      26.390   4.198  49.487  1.00  0.00    -0.120 OA
HETATM   18  H21 UNL     1      27.481   2.774  48.898  1.00  0.00     0.332 HD
ENDROOT
BRANCH   1  19
HETATM   19  C4  UNL     1      28.372   6.602  48.069  1.00  0.00     0.122 C 
BRANCH  19  20
HETATM   20  C3  UNL     1      29.404   5.518  48.099  1.00  0.00     0.019 C 
BRANCH  20  21
HETATM   21  C2  UNL     1      30.804   6.004  48.195  1.00  0.00    -0.003 C 
HETATM   22  C1  UNL     1      31.747   4.967  47.574  1.00  0.00     0.005 C 
ENDBRANCH  20  21
ENDBRANCH  19  20
ENDBRANCH   1  19
BRANCH   7  23
HETATM   23  O1  UNL     1      22.212   3.870  50.865  1.00  0.00    -0.370 OA
HETATM   24  H16 UNL     1      21.628   3.267  51.402  1.00  0.00     0.212 HD
ENDBRANCH   7  23
TORSDOF 4
ENDMDL
MODEL 8
REMARK VINA RESULT:      -7.0      9.349     12.004
REMARK  4 active torsions:
REMARK  status: ('A' for Active; 'I' for Inactive)
REMARK    1  A    between atoms: C2_2  and  C3_3 
REMARK    2  A    between atoms: C3_3  and  C4_4 
REMARK    3  A    between atoms: C4_4  and  N1_5 
REMARK    4  A    between atoms: C10_11  and  O1_12 
ROOT
HETATM    1  N1  UNL     1      29.113   6.921  47.772  1.00  0.00    -0.349 N 
HETATM    2  C5  UNL     1      29.633   8.234  47.199  1.00  0.00     0.127 C 
HETATM    3  C6  UNL     1      30.072   7.809  45.844  1.00  0.00     0.014 C 
HETATM    4  C7  UNL     1      31.417   7.507  45.955  1.00  0.00     0.025 C 
HETATM    5  C8  UNL     1      32.510   7.516  47.007  1.00  0.00    -0.014 C 
HETATM    6  C9  UNL     1      33.263   7.696  48.197  1.00  0.00     0.050 C 
HETATM    7  C10 UNL     1      34.390   6.988  47.607  1.00  0.00     0.168 C 
HETATM    8 CL1  UNL     1      35.688   6.708  48.765  1.00  0.00    -0.083 Cl
HETATM    9  C11 UNL     1      33.785   5.526  47.398  1.00  0.00     0.029 A 
HETATM   10  C12 UNL     1      34.717   4.831  46.713  1.00  0.00     0.014 A 
HETATM   11  C13 UNL     1      34.616   3.534  46.283  1.00  0.00     0.001 A 
HETATM   12  C14 UNL     1      33.470   2.826  46.551  1.00  0.00     0.002 A 
HETATM   13  C15 UNL     1      32.513   3.571  47.265  1.00  0.00     0.041 A 
HETATM   14  C16 UNL     1      32.557   4.890  47.729  1.00  0.00     0.183 A 
HETATM   15  N2  UNL     1      31.206   4.965  48.334  1.00  0.00     0.142 N 
HETATM   16  C17 UNL     1      29.991   5.822  48.217  1.00  0.00     0.452 A 
HETATM   17  O2  UNL     1      31.081   5.631  47.870  1.00  0.00    -0.120 OA
HETATM   18  H21 UNL     1      30.954   4.225  49.125  1.00  0.00     0.332 HD
ENDROOT
BRANCH   1  19
HETATM   19  C4  UNL     1      27.802   6.547  48.224  1.00  0.00     0.122 C 
BRANCH  19  20
HETATM   20  C3  UNL     1      27.609   5.107  48.584  1.00  0.00     0.019 C 
BRANCH  20  21
HETATM   21  C2  UNL     1      26.303   4.802  49.220  1.00  0.00    -0.003 C 
HETATM   22  C1  UNL     1      25.290   5.892  48.854  1.00  0.00     0.005 C 
ENDBRANCH  20  21
ENDBRANCH  19  20
ENDBRANCH   1  19
BRANCH   7  23
HETATM   23  O1  UNL     1      34.811   7.502  46.437  1.00  0.00    -0.370 OA
HETATM   24  H16 UNL     1      34.340   8.331  46.148  1.00  0.00     0.212 HD
ENDBRANCH   7  23
TORSDOF 4
ENDMDL
MODEL 9
REMARK VINA RESULT:      -6.9      3.426      6.712
REMARK  4 active torsions:
REMARK  status: ('A' for Active; 'I' for Inactive)
REMARK    1  A    between atoms: C2_2  and  C3_3 
REMARK    2  A    between atoms: C3_3  and  C4_4 
REMARK    3  A    between atoms: C4_4  and  N1_5 
REMARK    4  A    between atoms: C10_11  and  O1_12 
ROOT
HETATM    1  N1  UNL     1      19.474   2.844  50.238  1.00  0.00    -0.349 N 
HETATM    2  C5  UNL     1      20.577   2.882  49.187  1.00  0.00     0.127 C 
HETATM    3  C6  UNL     1      20.872   1.434  49.020  1.00  0.00     0.014 C 
HETATM    4  C7  UNL     1      21.917   1.155  49.879  1.00  0.00     0.025 C 
HETATM    5  C8  UNL     1      22.813   1.879  50.867  1.00  0.00    -0.014 C 
HETATM    6  C9  UNL     1      23.475   2.861  51.649  1.00  0.00     0.050 C 
HETATM    7  C10 UNL     1      24.194   1.822  52.372  1.00  0.00     0.168 C 
HETATM    8 CL1  UNL     1      25.131   2.465  53.718  1.00  0.00    -0.083 Cl
HETATM    9  C11 UNL     1      23.004   1.053  53.108  1.00  0.00     0.029 A 
HETATM   10  C12 UNL     1      23.563  -0.029  53.689  1.00  0.00     0.014 A 
HETATM   11  C13 UNL     1      22.913  -0.998  54.408  1.00  0.00     0.001 A 
HETATM   12  C14 UNL     1      21.553  -0.903  54.583  1.00  0.00     0.002 A 
HETATM   13  C15 UNL     1      20.994   0.232  53.967  1.00  0.00     0.041 A 
HETATM   14  C16 UNL     1      21.601   1.250  53.225  1.00  0.00     0.183 A 
HETATM   15  N2  UNL     1      20.393   2.041  52.890  1.00  0.00     0.142 N 
HETATM   16  C17 UNL     1      19.717   2.556  51.664  1.00  0.00     0.452 A 
HETATM   17  O2  UNL     1      20.621   1.977  52.104  1.00  0.00    -0.120 OA
HETATM   18  H21 UNL     1      19.774   2.416  53.733  1.00  0.00     0.332 HD
ENDROOT
BRANCH   1  19
HETATM   19  C4  UNL     1      18.107   3.284  50.182  1.00  0.00     0.122 C 
BRANCH  19  20
HETATM   20  C3  UNL     1      17.071   2.285  50.594  1.00  0.00     0.019 C 
BRANCH  20  21
HETATM   21  C2  UNL     1      16.973   1.099  49.707  1.00  0.00    -0.003 C 
HETATM   22  C1  UNL     1      17.468  -0.143  50.458  1.00  0.00     0.005 C 
ENDBRANCH  20  21
ENDBRANCH  19  20
ENDBRANCH   1  19
BRANCH   7  23
HETATM   23  O1  UNL     1      24.887   0.982  51.582  1.00  0.00    -0.370 OA
HETATM   24  H16 UNL     1      25.488   0.350  52.065  1.00  0.00     0.212 HD
ENDBRANCH   7  23
TORSDOF 4
ENDMDL
