MODEL 1
REMARK VINA RESULT:      -9.0      0.000      0.000
REMARK  4 active torsions:
REMARK  status: ('A' for Active; 'I' for Inactive)
REMARK    1  A    between atoms: C5_5  and  C6_6 
REMARK    2  A    between atoms: C8_8  and  C9_9 
REMARK    3  A    between atoms: C13_13  and  O1_14 
REMARK    4  A    between atoms: C17_20  and  O2_21 
ROOT
HETATM    1  C6  UNL     1      24.224   2.508  52.429  1.00  0.00     0.088 A 
HETATM    2  C7  UNL     1      22.860   1.951  52.694  1.00  0.00     0.108 A 
HETATM    3  C8  UNL     1      22.044   1.362  51.520  1.00  0.00     0.096 A 
HETATM    4  N1  UNL     1      22.734   1.338  50.338  1.00  0.00    -0.218 NA
HETATM    5  C16 UNL     1      23.116   2.564  49.474  1.00  0.00     0.207 A 
HETATM    6  N2  UNL     1      23.627   3.720  49.238  1.00  0.00    -0.227 NA
HETATM    7  C17 UNL     1      24.367   4.282  50.248  1.00  0.00     0.157 A 
HETATM    8  C18 UNL     1      24.508   3.559  51.456  1.00  0.00     0.102 A 
HETATM    9  S1  UNL     1      23.620   2.179  51.049  1.00  0.00    -0.154 SA
ENDROOT
BRANCH   3  10
HETATM   10  C9  UNL     1      20.601   0.856  51.807  1.00  0.00    -0.025 C 
HETATM   11  C10 UNL     1      19.829   0.799  50.771  1.00  0.00     0.010 C 
HETATM   12  C11 UNL     1      18.462   0.337  50.944  1.00  0.00    -0.001 C 
HETATM   13  C12 UNL     1      17.903  -0.448  51.880  1.00  0.00     0.008 C 
HETATM   14  C13 UNL     1      18.531  -1.093  53.048  1.00  0.00     0.164 C 
HETATM   15  C14 UNL     1      19.594  -0.282  53.689  1.00  0.00     0.009 C 
HETATM   16  C15 UNL     1      20.524   0.577  53.231  1.00  0.00     0.009 C 
BRANCH  14  17
HETATM   17  O1  UNL     1      17.559  -1.355  54.010  1.00  0.00    -0.388 OA
HETATM   18  H13 UNL     1      17.201  -2.278  53.969  1.00  0.00     0.210 HD
ENDBRANCH  14  17
ENDBRANCH   3  10
BRANCH   1  19
HETATM   19  C5  UNL     1      25.336   1.581  52.624  1.00  0.00    -0.044 A 
HETATM   20  C4  UNL     1      26.670   1.995  52.808  1.00  0.00     0.009 A 
HETATM   21  C3  UNL     1      27.788   1.211  53.006  1.00  0.00     0.007 A 
HETATM   22  C2  UNL     1      27.579  -0.136  53.025  1.00  0.00    -0.062 A 
HETATM   23  C1  UNL     1      28.750  -1.020  53.235  1.00  0.00     0.048 C 
HETATM   24  C20 UNL     1      26.311  -0.659  52.855  1.00  0.00     0.007 A 
HETATM   25  C19 UNL     1      25.250   0.202  52.664  1.00  0.00     0.009 A 
ENDBRANCH   1  19
BRANCH   7  26
HETATM   26  O2  UNL     1      25.175   5.248  50.920  1.00  0.00    -0.347 OA
HETATM   27  H16 UNL     1      26.133   5.064  51.129  1.00  0.00     0.219 HD
ENDBRANCH   7  26
TORSDOF 4
ENDMDL
MODEL 2
REMARK VINA RESULT:      -8.9      2.594      4.511
REMARK  4 active torsions:
REMARK  status: ('A' for Active; 'I' for Inactive)
REMARK    1  A    between atoms: C5_5  and  C6_6 
REMARK    2  A    between atoms: C8_8  and  C9_9 
REMARK    3  A    between atoms: C13_13  and  O1_14 
REMARK    4  A    between atoms: C17_20  and  O2_21 
ROOT
HETATM    1  C6  UNL     1      23.801   5.193  51.506  1.00  0.00     0.088 A 
HETATM    2  C7  UNL     1      23.764   3.877  52.220  1.00  0.00     0.108 A 
HETATM    3  C8  UNL     1      22.945   2.713  51.614  1.00  0.00     0.096 A 
HETATM    4  N1  UNL     1      22.399   3.012  50.395  1.00  0.00    -0.218 NA
HETATM    5  C16 UNL     1      21.229   3.989  50.129  1.00  0.00     0.207 A 
HETATM    6  N2  UNL     1      20.597   5.107  50.189  1.00  0.00    -0.227 NA
HETATM    7  C17 UNL     1      21.284   6.173  50.714  1.00  0.00     0.157 A 
HETATM    8  C18 UNL     1      22.616   5.965  51.143  1.00  0.00     0.102 A 
HETATM    9  S1  UNL     1      22.771   4.326  50.754  1.00  0.00    -0.154 SA
ENDROOT
BRANCH   3  10
HETATM   10  C9  UNL     1      22.862   1.379  52.410  1.00  0.00    -0.025 C 
HETATM   11  C10 UNL     1      24.002   0.900  52.789  1.00  0.00     0.010 C 
HETATM   12  C11 UNL     1      24.022  -0.344  53.540  1.00  0.00    -0.001 C 
HETATM   13  C12 UNL     1      23.088  -0.932  54.305  1.00  0.00     0.008 C 
HETATM   14  C13 UNL     1      21.721  -0.477  54.618  1.00  0.00     0.164 C 
HETATM   15  C14 UNL     1      21.041   0.216  53.498  1.00  0.00     0.009 C 
HETATM   16  C15 UNL     1      21.455   1.029  52.507  1.00  0.00     0.009 C 
BRANCH  14  17
HETATM   17  O1  UNL     1      20.939  -1.572  54.977  1.00  0.00    -0.388 OA
HETATM   18  H13 UNL     1      20.592  -2.081  54.200  1.00  0.00     0.210 HD
ENDBRANCH  14  17
ENDBRANCH   3  10
BRANCH   1  19
HETATM   19  C5  UNL     1      24.924   5.386  50.592  1.00  0.00    -0.044 A 
HETATM   20  C4  UNL     1      25.373   6.653  50.168  1.00  0.00     0.009 A 
HETATM   21  C3  UNL     1      26.418   6.948  49.318  1.00  0.00     0.007 A 
HETATM   22  C2  UNL     1      27.107   5.882  48.823  1.00  0.00    -0.062 A 
HETATM   23  C1  UNL     1      28.240   6.148  47.905  1.00  0.00     0.048 C 
HETATM   24  C20 UNL     1      26.757   4.590  49.168  1.00  0.00     0.007 A 
HETATM   25  C19 UNL     1      25.696   4.389  50.026  1.00  0.00     0.009 A 
ENDBRANCH   1  19
BRANCH   7  26
HETATM   26  O2  UNL     1      21.525   7.512  51.146  1.00  0.00    -0.347 OA
HETATM   27  H16 UNL     1      21.878   7.704  52.059  1.00  0.00     0.219 HD
ENDBRANCH   7  26
TORSDOF 4
ENDMDL
MODEL 3
REMARK VINA RESULT:      -8.8      2.363      6.708
REMARK  4 active torsions:
REMARK  status: ('A' for Active; 'I' for Inactive)
REMARK    1  A    between atoms: C5_5  and  C6_6 
REMARK    2  A    between atoms: C8_8  and  C9_9 
REMARK    3  A    between atoms: C13_13  and  O1_14 
REMARK    4  A    between atoms: C17_20  and  O2_21 
ROOT
HETATM    1  C6  UNL     1      22.923   1.780  51.170  1.00  0.00     0.088 A 
HETATM    2  C7  UNL     1      24.312   1.309  51.470  1.00  0.00     0.108 A 
HETATM    3  C8  UNL     1      25.078   1.928  52.662  1.00  0.00     0.096 A 
HETATM    4  N1  UNL     1      24.327   2.812  53.388  1.00  0.00    -0.218 NA
HETATM    5  C16 UNL     1      23.871   4.219  52.934  1.00  0.00     0.207 A 
HETATM    6  N2  UNL     1      23.320   5.079  52.152  1.00  0.00    -0.227 NA
HETATM    7  C17 UNL     1      22.623   4.577  51.082  1.00  0.00     0.157 A 
HETATM    8  C18 UNL     1      22.563   3.173  50.922  1.00  0.00     0.102 A 
HETATM    9  S1  UNL     1      23.460   2.708  52.277  1.00  0.00    -0.154 SA
ENDROOT
BRANCH   3  10
HETATM   10  C9  UNL     1      26.546   1.475  52.909  1.00  0.00    -0.025 C 
HETATM   11  C10 UNL     1      27.304   2.367  53.460  1.00  0.00     0.010 C 
HETATM   12  C11 UNL     1      28.692   2.032  53.729  1.00  0.00    -0.001 C 
HETATM   13  C12 UNL     1      29.298   0.847  53.914  1.00  0.00     0.008 C 
HETATM   14  C13 UNL     1      28.717  -0.508  53.897  1.00  0.00     0.164 C 
HETATM   15  C14 UNL     1      27.629  -0.688  52.906  1.00  0.00     0.009 C 
HETATM   16  C15 UNL     1      26.656   0.109  52.425  1.00  0.00     0.009 C 
BRANCH  14  17
HETATM   17  O1  UNL     1      29.714  -1.436  53.606  1.00  0.00    -0.388 OA
HETATM   18  H13 UNL     1      29.362  -2.330  53.362  1.00  0.00     0.210 HD
ENDBRANCH  14  17
ENDBRANCH   3  10
BRANCH   1  19
HETATM   19  C5  UNL     1      21.845   1.000  51.773  1.00  0.00    -0.044 A 
HETATM   20  C4  UNL     1      20.536   0.949  51.253  1.00  0.00     0.009 A 
HETATM   21  C3  UNL     1      19.452   0.246  51.735  1.00  0.00     0.007 A 
HETATM   22  C2  UNL     1      19.670  -0.495  52.858  1.00  0.00    -0.062 A 
HETATM   23  C1  UNL     1      18.535  -1.269  53.415  1.00  0.00     0.048 C 
HETATM   24  C20 UNL     1      20.915  -0.523  53.458  1.00  0.00     0.007 A 
HETATM   25  C19 UNL     1      21.943   0.212  52.905  1.00  0.00     0.009 A 
ENDBRANCH   1  19
BRANCH   7  26
HETATM   26  O2  UNL     1      21.829   4.585  49.896  1.00  0.00    -0.347 OA
HETATM   27  H16 UNL     1      21.396   5.423  49.570  1.00  0.00     0.219 HD
ENDBRANCH   7  26
TORSDOF 4
ENDMDL
MODEL 4
REMARK VINA RESULT:      -8.5      3.202      7.254
REMARK  4 active torsions:
REMARK  status: ('A' for Active; 'I' for Inactive)
REMARK    1  A    between atoms: C5_5  and  C6_6 
REMARK    2  A    between atoms: C8_8  and  C9_9 
REMARK    3  A    between atoms: C13_13  and  O1_14 
REMARK    4  A    between atoms: C17_20  and  O2_21 
ROOT
HETATM    1  C6  UNL     1      23.336   2.897  50.276  1.00  0.00     0.088 A 
HETATM    2  C7  UNL     1      24.401   3.546  49.447  1.00  0.00     0.108 A 
HETATM    3  C8  UNL     1      24.925   4.943  49.853  1.00  0.00     0.096 A 
HETATM    4  N1  UNL     1      24.390   5.403  51.026  1.00  0.00    -0.218 NA
HETATM    5  C16 UNL     1      22.933   5.871  51.249  1.00  0.00     0.207 A 
HETATM    6  N2  UNL     1      21.651   5.774  51.219  1.00  0.00    -0.227 NA
HETATM    7  C17 UNL     1      21.137   4.550  50.871  1.00  0.00     0.157 A 
HETATM    8  C18 UNL     1      22.041   3.504  50.575  1.00  0.00     0.102 A 
HETATM    9  S1  UNL     1      23.497   4.326  50.830  1.00  0.00    -0.154 SA
ENDROOT
BRANCH   3  10
HETATM   10  C9  UNL     1      25.979   5.628  48.936  1.00  0.00    -0.025 C 
HETATM   11  C10 UNL     1      25.641   6.798  48.501  1.00  0.00     0.010 C 
HETATM   12  C11 UNL     1      26.564   7.515  47.637  1.00  0.00    -0.001 C 
HETATM   13  C12 UNL     1      27.897   7.424  47.496  1.00  0.00     0.008 C 
HETATM   14  C13 UNL     1      28.849   6.543  48.196  1.00  0.00     0.164 C 
HETATM   15  C14 UNL     1      28.317   5.191  48.495  1.00  0.00     0.009 C 
HETATM   16  C15 UNL     1      27.101   4.712  48.821  1.00  0.00     0.009 C 
BRANCH  14  17
HETATM   17  O1  UNL     1      29.993   6.386  47.419  1.00  0.00    -0.388 OA
HETATM   18  H13 UNL     1      30.412   7.245  47.153  1.00  0.00     0.210 HD
ENDBRANCH  14  17
ENDBRANCH   3  10
BRANCH   1  19
HETATM   19  C5  UNL     1      23.808   1.993  51.322  1.00  0.00    -0.044 A 
HETATM   20  C4  UNL     1      22.949   1.236  52.143  1.00  0.00     0.009 A 
HETATM   21  C3  UNL     1      23.287   0.355  53.149  1.00  0.00     0.007 A 
HETATM   22  C2  UNL     1      24.621   0.193  53.382  1.00  0.00    -0.062 A 
HETATM   23  C1  UNL     1      25.033  -0.745  54.453  1.00  0.00     0.048 C 
HETATM   24  C20 UNL     1      25.558   0.884  52.638  1.00  0.00     0.007 A 
HETATM   25  C19 UNL     1      25.129   1.745  51.650  1.00  0.00     0.009 A 
ENDBRANCH   1  19
BRANCH   7  26
HETATM   26  O2  UNL     1      20.149   3.558  50.590  1.00  0.00    -0.347 OA
HETATM   27  H16 UNL     1      19.178   3.788  50.572  1.00  0.00     0.219 HD
ENDBRANCH   7  26
TORSDOF 4
ENDMDL
MODEL 5
REMARK VINA RESULT:      -8.4      2.744      7.225
REMARK  4 active torsions:
REMARK  status: ('A' for Active; 'I' for Inactive)
REMARK    1  A    between atoms: C5_5  and  C6_6 
REMARK    2  A    between atoms: C8_8  and  C9_9 
REMARK    3  A    between atoms: C13_13  and  O1_14 
REMARK    4  A    between atoms: C17_20  and  O2_21 
ROOT
HETATM    1  C6  UNL     1      24.431   2.593  53.000  1.00  0.00     0.088 A 
HETATM    2  C7  UNL     1      24.661   3.652  51.967  1.00  0.00     0.108 A 
HETATM    3  C8  UNL     1      25.467   3.303  50.695  1.00  0.00     0.096 A 
HETATM    4  N1  UNL     1      25.817   1.982  50.620  1.00  0.00    -0.218 NA
HETATM    5  C16 UNL     1      26.865   1.259  51.498  1.00  0.00     0.207 A 
HETATM    6  N2  UNL     1      27.419   0.884  52.597  1.00  0.00    -0.227 NA
HETATM    7  C17 UNL     1      26.737   1.166  53.754  1.00  0.00     0.157 A 
HETATM    8  C18 UNL     1      25.496   1.837  53.653  1.00  0.00     0.102 A 
HETATM    9  S1  UNL     1      25.405   1.985  51.971  1.00  0.00    -0.154 SA
ENDROOT
BRANCH   3  10
HETATM   10  C9  UNL     1      25.755   4.439  49.671  1.00  0.00    -0.025 C 
HETATM   11  C10 UNL     1      24.806   5.309  49.544  1.00  0.00     0.010 C 
HETATM   12  C11 UNL     1      24.987   6.408  48.610  1.00  0.00    -0.001 C 
HETATM   13  C12 UNL     1      26.099   6.981  48.120  1.00  0.00     0.008 C 
HETATM   14  C13 UNL     1      27.511   6.655  48.393  1.00  0.00     0.164 C 
HETATM   15  C14 UNL     1      27.773   5.207  48.581  1.00  0.00     0.009 C 
HETATM   16  C15 UNL     1      27.075   4.189  49.118  1.00  0.00     0.009 C 
BRANCH  14  17
HETATM   17  O1  UNL     1      28.301   7.096  47.335  1.00  0.00    -0.388 OA
HETATM   18  H13 UNL     1      29.154   7.510  47.625  1.00  0.00     0.210 HD
ENDBRANCH  14  17
ENDBRANCH   3  10
BRANCH   1  19
HETATM   19  C5  UNL     1      23.181   1.847  52.876  1.00  0.00    -0.044 A 
HETATM   20  C4  UNL     1      22.008   2.383  52.309  1.00  0.00     0.009 A 
HETATM   21  C3  UNL     1      20.784   1.770  52.140  1.00  0.00     0.007 A 
HETATM   22  C2  UNL     1      20.694   0.481  52.574  1.00  0.00    -0.062 A 
HETATM   23  C1  UNL     1      19.399  -0.221  52.412  1.00  0.00     0.048 C 
HETATM   24  C20 UNL     1      21.782  -0.151  53.147  1.00  0.00     0.007 A 
HETATM   25  C19 UNL     1      22.968   0.540  53.276  1.00  0.00     0.009 A 
ENDBRANCH   1  19
BRANCH   7  26
HETATM   26  O2  UNL     1      26.464   1.210  55.155  1.00  0.00    -0.347 OA
HETATM   27  H16 UNL     1      26.347   0.372  55.684  1.00  0.00     0.219 HD
ENDBRANCH   7  26
TORSDOF 4
ENDMDL
MODEL 6
REMARK VINA RESULT:      -8.4      2.417      4.561
REMARK  4 active torsions:
REMARK  status: ('A' for Active; 'I' for Inactive)
REMARK    1  A    between atoms: C5_5  and  C6_6 
REMARK    2  A    between atoms: C8_8  and  C9_9 
REMARK    3  A    between atoms: C13_13  and  O1_14 
REMARK    4  A    between atoms: C17_20  and  O2_21 
ROOT
HETATM    1  C6  UNL     1      25.861   2.107  50.985  1.00  0.00     0.088 A 
HETATM    2  C7  UNL     1      24.554   1.386  51.107  1.00  0.00     0.108 A 
HETATM    3  C8  UNL     1      23.667   1.639  52.349  1.00  0.00     0.096 A 
HETATM    4  N1  UNL     1      24.165   2.603  53.183  1.00  0.00    -0.218 NA
HETATM    5  C16 UNL     1      25.415   2.478  54.087  1.00  0.00     0.207 A 
HETATM    6  N2  UNL     1      26.648   2.236  54.357  1.00  0.00    -0.227 NA
HETATM    7  C17 UNL     1      27.478   2.012  53.287  1.00  0.00     0.157 A 
HETATM    8  C18 UNL     1      26.922   2.062  51.987  1.00  0.00     0.102 A 
HETATM    9  S1  UNL     1      25.322   2.433  52.392  1.00  0.00    -0.154 SA
ENDROOT
BRANCH   3  10
HETATM   10  C9  UNL     1      22.349   0.824  52.489  1.00  0.00    -0.025 C 
HETATM   11  C10 UNL     1      22.089   0.414  53.688  1.00  0.00     0.010 C 
HETATM   12  C11 UNL     1      20.877  -0.355  53.915  1.00  0.00    -0.001 C 
HETATM   13  C12 UNL     1      19.721  -0.409  53.233  1.00  0.00     0.008 C 
HETATM   14  C13 UNL     1      19.326   0.318  52.013  1.00  0.00     0.164 C 
HETATM   15  C14 UNL     1      20.431   0.525  51.046  1.00  0.00     0.009 C 
HETATM   16  C15 UNL     1      21.754   0.748  51.166  1.00  0.00     0.009 C 
BRANCH  14  17
HETATM   17  O1  UNL     1      18.317  -0.386  51.360  1.00  0.00    -0.388 OA
HETATM   18  H13 UNL     1      17.608  -0.715  51.969  1.00  0.00     0.210 HD
ENDBRANCH  14  17
ENDBRANCH   3  10
BRANCH   1  19
HETATM   19  C5  UNL     1      25.827   3.358  50.231  1.00  0.00    -0.044 A 
HETATM   20  C4  UNL     1      24.676   4.161  50.107  1.00  0.00     0.009 A 
HETATM   21  C3  UNL     1      24.536   5.354  49.428  1.00  0.00     0.007 A 
HETATM   22  C2  UNL     1      25.650   5.818  48.795  1.00  0.00    -0.062 A 
HETATM   23  C1  UNL     1      25.549   7.097  48.053  1.00  0.00     0.048 C 
HETATM   24  C20 UNL     1      26.838   5.114  48.847  1.00  0.00     0.007 A 
HETATM   25  C19 UNL     1      26.887   3.929  49.550  1.00  0.00     0.009 A 
ENDBRANCH   1  19
BRANCH   7  26
HETATM   26  O2  UNL     1      28.687   1.728  52.584  1.00  0.00    -0.347 OA
HETATM   27  H16 UNL     1      28.790   0.892  52.049  1.00  0.00     0.219 HD
ENDBRANCH   7  26
TORSDOF 4
ENDMDL
MODEL 7
REMARK VINA RESULT:      -8.3      3.059      5.238
REMARK  4 active torsions:
REMARK  status: ('A' for Active; 'I' for Inactive)
REMARK    1  A    between atoms: C5_5  and  C6_6 
REMARK    2  A    between atoms: C8_8  and  C9_9 
REMARK    3  A    between atoms: C13_13  and  O1_14 
REMARK    4  A    between atoms: C17_20  and  O2_21 
ROOT
HETATM    1  C6  UNL     1      24.329   5.366  50.021  1.00  0.00     0.088 A 
HETATM    2  C7  UNL     1      24.284   4.310  51.081  1.00  0.00     0.108 A 
HETATM    3  C8  UNL     1      23.948   2.854  50.682  1.00  0.00     0.096 A 
HETATM    4  N1  UNL     1      23.811   2.681  49.331  1.00  0.00    -0.218 NA
HETATM    5  C16 UNL     1      22.651   3.203  48.451  1.00  0.00     0.207 A 
HETATM    6  N2  UNL     1      21.847   4.084  47.971  1.00  0.00    -0.227 NA
HETATM    7  C17 UNL     1      22.108   5.393  48.292  1.00  0.00     0.157 A 
HETATM    8  C18 UNL     1      23.224   5.670  49.115  1.00  0.00     0.102 A 
HETATM    9  S1  UNL     1      23.795   4.093  49.335  1.00  0.00    -0.154 SA
ENDROOT
BRANCH   3  10
HETATM   10  C9  UNL     1      23.835   1.789  51.810  1.00  0.00    -0.025 C 
HETATM   11  C10 UNL     1      22.744   1.093  51.794  1.00  0.00     0.010 C 
HETATM   12  C11 UNL     1      22.552   0.073  52.811  1.00  0.00    -0.001 C 
HETATM   13  C12 UNL     1      23.435  -0.617  53.552  1.00  0.00     0.008 C 
HETATM   14  C13 UNL     1      24.907  -0.542  53.554  1.00  0.00     0.164 C 
HETATM   15  C14 UNL     1      25.445   0.823  53.336  1.00  0.00     0.009 C 
HETATM   16  C15 UNL     1      25.048   1.882  52.605  1.00  0.00     0.009 C 
BRANCH  14  17
HETATM   17  O1  UNL     1      25.393  -0.999  54.776  1.00  0.00    -0.388 OA
HETATM   18  H13 UNL     1      24.706  -1.453  55.329  1.00  0.00     0.210 HD
ENDBRANCH  14  17
ENDBRANCH   3  10
BRANCH   1  19
HETATM   19  C5  UNL     1      25.644   5.627  49.442  1.00  0.00    -0.044 A 
HETATM   20  C4  UNL     1      26.596   4.620  49.186  1.00  0.00     0.009 A 
HETATM   21  C3  UNL     1      27.856   4.754  48.641  1.00  0.00     0.007 A 
HETATM   22  C2  UNL     1      28.232   6.020  48.305  1.00  0.00    -0.062 A 
HETATM   23  C1  UNL     1      29.578   6.215  47.715  1.00  0.00     0.048 C 
HETATM   24  C20 UNL     1      27.381   7.090  48.511  1.00  0.00     0.007 A 
HETATM   25  C19 UNL     1      26.137   6.862  49.061  1.00  0.00     0.009 A 
ENDBRANCH   1  19
BRANCH   7  26
HETATM   26  O2  UNL     1      21.941   6.810  48.318  1.00  0.00    -0.347 OA
HETATM   27  H16 UNL     1      22.677   7.411  48.622  1.00  0.00     0.219 HD
ENDBRANCH   7  26
TORSDOF 4
ENDMDL
MODEL 8
REMARK VINA RESULT:      -8.3      7.540     11.762
REMARK  4 active torsions:
REMARK  status: ('A' for Active; 'I' for Inactive)
REMARK    1  A    between atoms: C5_5  and  C6_6 
REMARK    2  A    between atoms: C8_8  and  C9_9 
REMARK    3  A    between atoms: C13_13  and  O1_14 
REMARK    4  A    between atoms: C17_20  and  O2_21 
ROOT
HETATM    1  C6  UNL     1      29.040   7.323  47.339  1.00  0.00     0.088 A 
HETATM    2  C7  UNL     1      30.301   6.566  47.060  1.00  0.00     0.108 A 
HETATM    3  C8  UNL     1      31.444   6.595  48.101  1.00  0.00     0.096 A 
HETATM    4  N1  UNL     1      31.117   7.269  49.247  1.00  0.00    -0.218 NA
HETATM    5  C16 UNL     1      30.931   8.798  49.390  1.00  0.00     0.207 A 
HETATM    6  N2  UNL     1      30.447   9.954  49.100  1.00  0.00    -0.227 NA
HETATM    7  C17 UNL     1      29.425   9.980  48.185  1.00  0.00     0.157 A 
HETATM    8  C18 UNL     1      28.987   8.752  47.636  1.00  0.00     0.102 A 
HETATM    9  S1  UNL     1      30.024   7.702  48.463  1.00  0.00    -0.154 SA
ENDROOT
BRANCH   3  10
HETATM   10  C9  UNL     1      32.772   5.861  47.757  1.00  0.00    -0.025 C 
HETATM   11  C10 UNL     1      33.598   5.740  48.745  1.00  0.00     0.010 C 
HETATM   12  C11 UNL     1      34.866   5.067  48.517  1.00  0.00    -0.001 C 
HETATM   13  C12 UNL     1      35.234   4.159  47.597  1.00  0.00     0.008 C 
HETATM   14  C13 UNL     1      34.437   3.559  46.512  1.00  0.00     0.164 C 
HETATM   15  C14 UNL     1      33.463   4.488  45.889  1.00  0.00     0.009 C 
HETATM   16  C15 UNL     1      32.707   5.502  46.350  1.00  0.00     0.009 C 
BRANCH  14  17
HETATM   17  O1  UNL     1      35.289   3.103  45.509  1.00  0.00    -0.388 OA
HETATM   18  H13 UNL     1      36.202   3.487  45.561  1.00  0.00     0.210 HD
ENDBRANCH  14  17
ENDBRANCH   3  10
BRANCH   1  19
HETATM   19  C5  UNL     1      27.968   6.558  47.970  1.00  0.00    -0.044 A 
HETATM   20  C4  UNL     1      28.125   5.238  48.438  1.00  0.00     0.009 A 
HETATM   21  C3  UNL     1      27.187   4.432  49.050  1.00  0.00     0.007 A 
HETATM   22  C2  UNL     1      25.951   4.978  49.226  1.00  0.00    -0.062 A 
HETATM   23  C1  UNL     1      24.909   4.150  49.880  1.00  0.00     0.048 C 
HETATM   24  C20 UNL     1      25.679   6.266  48.806  1.00  0.00     0.007 A 
HETATM   25  C19 UNL     1      26.678   7.001  48.203  1.00  0.00     0.009 A 
ENDBRANCH   1  19
BRANCH   7  26
HETATM   26  O2  UNL     1      28.411  10.531  47.345  1.00  0.00    -0.347 OA
HETATM   27  H16 UNL     1      28.638  11.176  46.618  1.00  0.00     0.219 HD
ENDBRANCH   7  26
TORSDOF 4
ENDMDL
MODEL 9
REMARK VINA RESULT:      -8.3      2.870      6.793
REMARK  4 active torsions:
REMARK  status: ('A' for Active; 'I' for Inactive)
REMARK    1  A    between atoms: C5_5  and  C6_6 
REMARK    2  A    between atoms: C8_8  and  C9_9 
REMARK    3  A    between atoms: C13_13  and  O1_14 
REMARK    4  A    between atoms: C17_20  and  O2_21 
ROOT
HETATM    1  C6  UNL     1      22.471   1.875  50.486  1.00  0.00     0.088 A 
HETATM    2  C7  UNL     1      23.735   2.542  50.041  1.00  0.00     0.108 A 
HETATM    3  C8  UNL     1      24.037   3.981  50.520  1.00  0.00     0.096 A 
HETATM    4  N1  UNL     1      23.111   4.463  51.405  1.00  0.00    -0.218 NA
HETATM    5  C16 UNL     1      21.652   4.864  51.080  1.00  0.00     0.207 A 
HETATM    6  N2  UNL     1      20.465   4.697  50.613  1.00  0.00    -0.227 NA
HETATM    7  C17 UNL     1      20.147   3.434  50.182  1.00  0.00     0.157 A 
HETATM    8  C18 UNL     1      21.134   2.425  50.281  1.00  0.00     0.102 A 
HETATM    9  S1  UNL     1      22.380   3.333  50.975  1.00  0.00    -0.154 SA
ENDROOT
BRANCH   3  10
HETATM   10  C9  UNL     1      25.320   4.680  49.986  1.00  0.00    -0.025 C 
HETATM   11  C10 UNL     1      26.170   3.892  49.412  1.00  0.00     0.010 C 
HETATM   12  C11 UNL     1      27.399   4.457  48.881  1.00  0.00    -0.001 C 
HETATM   13  C12 UNL     1      27.699   5.703  48.477  1.00  0.00     0.008 C 
HETATM   14  C13 UNL     1      26.844   6.904  48.450  1.00  0.00     0.164 C 
HETATM   15  C14 UNL     1      25.894   6.996  49.585  1.00  0.00     0.009 C 
HETATM   16  C15 UNL     1      25.197   6.094  50.301  1.00  0.00     0.009 C 
BRANCH  14  17
HETATM   17  O1  UNL     1      27.645   8.043  48.474  1.00  0.00    -0.388 OA
HETATM   18  H13 UNL     1      27.712   8.460  49.371  1.00  0.00     0.210 HD
ENDBRANCH  14  17
ENDBRANCH   3  10
BRANCH   1  19
HETATM   19  C5  UNL     1      22.579   1.044  51.683  1.00  0.00    -0.044 A 
HETATM   20  C4  UNL     1      23.784   0.846  52.386  1.00  0.00     0.009 A 
HETATM   21  C3  UNL     1      23.996   0.092  53.522  1.00  0.00     0.007 A 
HETATM   22  C2  UNL     1      22.904  -0.544  54.032  1.00  0.00    -0.062 A 
HETATM   23  C1  UNL     1      23.082  -1.366  55.252  1.00  0.00     0.048 C 
HETATM   24  C20 UNL     1      21.668  -0.424  53.426  1.00  0.00     0.007 A 
HETATM   25  C19 UNL     1      21.548   0.353  52.292  1.00  0.00     0.009 A 
ENDBRANCH   1  19
BRANCH   7  26
HETATM   26  O2  UNL     1      19.355   2.380  49.635  1.00  0.00    -0.347 OA
HETATM   27  H16 UNL     1      19.776   1.545  49.287  1.00  0.00     0.219 HD
ENDBRANCH   7  26
TORSDOF 4
ENDMDL
