MODEL 1
REMARK VINA RESULT:      -7.8      0.000      0.000
REMARK  11 active torsions:
REMARK  status: ('A' for Active; 'I' for Inactive)
REMARK    1  A    between atoms: C2_2  and  N1_3 
REMARK    2  A    between atoms: N2_6  and  C5_7 
REMARK    3  A    between atoms: C5_7  and  C6_8 
REMARK    4  A    between atoms: C6_8  and  C7_9 
REMARK    5  A    between atoms: C7_9  and  C8_10 
REMARK    6  A    between atoms: C10_12  and  C11_13 
REMARK    7  A    between atoms: C15_19  and  N5_20 
REMARK    8  A    between atoms: N5_20  and  C16_21 
REMARK    9  A    between atoms: C16_21  and  C17_22 
REMARK   10  A    between atoms: C16_21  and  C18_24 
REMARK   11  A    between atoms: C17_22  and  N6_23 
ROOT
HETATM    1  C11 UNL     1      25.311   1.418  51.877  1.00  0.00    -0.007 C 
HETATM    2  C12 UNL     1      26.171   0.658  52.590  1.00  0.00    -0.035 A 
HETATM    3  C13 UNL     1      27.559   1.143  52.749  1.00  0.00     0.086 A 
HETATM    4  C14 UNL     1      28.399   0.113  53.455  1.00  0.00     0.115 A 
HETATM    5  N3  UNL     1      27.927  -0.998  53.884  1.00  0.00    -0.194 NA
HETATM    6  N4  UNL     1      26.591  -1.349  53.728  1.00  0.00    -0.288 N 
HETATM    7  C15 UNL     1      25.539  -0.619  53.102  1.00  0.00     0.226 A 
HETATM    8  H22 UNL     1      26.354  -2.276  54.134  1.00  0.00     0.185 HD
ENDROOT
BRANCH   1   9
HETATM    9  C10 UNL     1      25.220   2.670  51.119  1.00  0.00     0.060 A 
HETATM   10  C8  UNL     1      24.065   3.567  51.556  1.00  0.00    -0.071 A 
HETATM   11  C9  UNL     1      24.150   3.061  50.244  1.00  0.00    -0.010 A 
BRANCH  10  12
HETATM   12  C7  UNL     1      22.982   4.444  52.065  1.00  0.00     0.036 C 
BRANCH  12  13
HETATM   13  C6  UNL     1      22.679   5.507  50.983  1.00  0.00     0.034 C 
BRANCH  13  14
HETATM   14  C5  UNL     1      23.721   6.562  51.147  1.00  0.00     0.273 C 
BRANCH  14  15
HETATM   15  N2  UNL     1      23.745   7.574  50.118  1.00  0.00     0.091 N 
HETATM   16  C4  UNL     1      23.646   7.007  48.796  1.00  0.00     0.302 C 
HETATM   17  C3  UNL     1      24.926   6.680  48.151  1.00  0.00     0.302 C 
HETATM   18  N1  UNL     1      26.137   7.165  48.680  1.00  0.00     0.091 N 
HETATM   19  C25 UNL     1      26.112   7.654  50.015  1.00  0.00     0.302 C 
HETATM   20  C24 UNL     1      24.883   8.460  50.244  1.00  0.00     0.302 C 
BRANCH  18  21
HETATM   21  C2  UNL     1      27.283   6.321  48.412  1.00  0.00     0.268 C 
HETATM   22  C1  UNL     1      27.152   4.904  48.835  1.00  0.00     0.037 C 
ENDBRANCH  18  21
ENDBRANCH  14  15
ENDBRANCH  13  14
ENDBRANCH  12  13
ENDBRANCH  10  12
ENDBRANCH   1   9
BRANCH   7  23
HETATM   23  N5  UNL     1      24.486  -0.253  53.980  1.00  0.00    -0.387 N 
HETATM   24  H24 UNL     1      24.758  -0.215  54.965  1.00  0.00     0.156 HD
BRANCH  23  25
HETATM   25  C16 UNL     1      23.191  -0.781  53.748  1.00  0.00     0.140 C 
BRANCH  25  26
HETATM   26  C17 UNL     1      22.517  -1.372  54.960  1.00  0.00     0.296 C 
BRANCH  26  27
HETATM   27  N6  UNL     1      23.532  -1.647  55.955  1.00  0.00     0.080 N 
HETATM   28  H28 UNL     1      24.279  -2.213  55.480  1.00  0.00     0.312 HD
HETATM   29  H29 UNL     1      23.134  -2.273  56.709  1.00  0.00     0.312 HD
ENDBRANCH  26  27
ENDBRANCH  25  26
BRANCH  25  30
HETATM   30  C18 UNL     1      22.313  -0.057  52.872  1.00  0.00    -0.034 A 
HETATM   31  C19 UNL     1      22.076   0.040  51.540  1.00  0.00     0.009 A 
HETATM   32  C20 UNL     1      21.251   0.774  50.736  1.00  0.00     0.001 A 
HETATM   33  C21 UNL     1      20.449   1.648  51.498  1.00  0.00     0.000 A 
HETATM   34  C22 UNL     1      20.531   1.710  52.883  1.00  0.00     0.001 A 
HETATM   35  C23 UNL     1      21.452   0.860  53.506  1.00  0.00     0.009 A 
ENDBRANCH  25  30
ENDBRANCH  23  25
ENDBRANCH   7  23
TORSDOF 11
ENDMDL
MODEL 2
REMARK VINA RESULT:      -7.7      2.307      5.554
REMARK  11 active torsions:
REMARK  status: ('A' for Active; 'I' for Inactive)
REMARK    1  A    between atoms: C2_2  and  N1_3 
REMARK    2  A    between atoms: N2_6  and  C5_7 
REMARK    3  A    between atoms: C5_7  and  C6_8 
REMARK    4  A    between atoms: C6_8  and  C7_9 
REMARK    5  A    between atoms: C7_9  and  C8_10 
REMARK    6  A    between atoms: C10_12  and  C11_13 
REMARK    7  A    between atoms: C15_19  and  N5_20 
REMARK    8  A    between atoms: N5_20  and  C16_21 
REMARK    9  A    between atoms: C16_21  and  C17_22 
REMARK   10  A    between atoms: C16_21  and  C18_24 
REMARK   11  A    between atoms: C17_22  and  N6_23 
ROOT
HETATM    1  C11 UNL     1      23.717   1.401  53.038  1.00  0.00    -0.007 C 
HETATM    2  C12 UNL     1      23.289   0.334  53.749  1.00  0.00    -0.035 A 
HETATM    3  C13 UNL     1      21.833   0.158  53.928  1.00  0.00     0.086 A 
HETATM    4  C14 UNL     1      21.553  -1.000  54.849  1.00  0.00     0.115 A 
HETATM    5  N3  UNL     1      22.476  -1.733  55.350  1.00  0.00    -0.194 NA
HETATM    6  N4  UNL     1      23.823  -1.517  55.086  1.00  0.00    -0.288 N 
HETATM    7  C15 UNL     1      24.429  -0.512  54.277  1.00  0.00     0.226 A 
HETATM    8  H22 UNL     1      24.454  -2.196  55.557  1.00  0.00     0.185 HD
ENDROOT
BRANCH   1   9
HETATM    9  C10 UNL     1      23.236   2.573  52.300  1.00  0.00     0.060 A 
HETATM   10  C8  UNL     1      24.285   3.189  51.377  1.00  0.00    -0.071 A 
HETATM   11  C9  UNL     1      23.714   3.922  52.436  1.00  0.00    -0.010 A 
BRANCH  10  12
HETATM   12  C7  UNL     1      25.307   3.705  50.433  1.00  0.00     0.036 C 
BRANCH  12  13
HETATM   13  C6  UNL     1      24.569   4.302  49.211  1.00  0.00     0.034 C 
BRANCH  13  14
HETATM   14  C5  UNL     1      23.616   3.247  48.758  1.00  0.00     0.273 C 
BRANCH  14  15
HETATM   15  N2  UNL     1      22.383   3.731  48.185  1.00  0.00     0.091 N 
HETATM   16  C4  UNL     1      21.639   4.551  49.109  1.00  0.00     0.302 C 
HETATM   17  C3  UNL     1      20.671   3.835  49.951  1.00  0.00     0.302 C 
HETATM   18  N1  UNL     1      20.308   2.508  49.652  1.00  0.00     0.091 N 
HETATM   19  C25 UNL     1      21.153   1.789  48.762  1.00  0.00     0.302 C 
HETATM   20  C24 UNL     1      21.575   2.663  47.636  1.00  0.00     0.302 C 
BRANCH  18  21
HETATM   21  C2  UNL     1      19.911   1.726  50.805  1.00  0.00     0.268 C 
HETATM   22  C1  UNL     1      19.590   2.501  52.029  1.00  0.00     0.037 C 
ENDBRANCH  18  21
ENDBRANCH  14  15
ENDBRANCH  13  14
ENDBRANCH  12  13
ENDBRANCH  10  12
ENDBRANCH   1   9
BRANCH   7  23
HETATM   23  N5  UNL     1      25.139  -1.019  53.158  1.00  0.00    -0.387 N 
HETATM   24  H24 UNL     1      24.638  -1.746  52.642  1.00  0.00     0.156 HD
BRANCH  23  25
HETATM   25  C16 UNL     1      26.533  -1.239  53.279  1.00  0.00     0.140 C 
BRANCH  25  26
HETATM   26  C17 UNL     1      27.102  -2.263  52.330  1.00  0.00     0.296 C 
BRANCH  26  27
HETATM   27  N6  UNL     1      28.094  -3.042  53.042  1.00  0.00     0.080 N 
HETATM   28  H28 UNL     1      28.986  -2.977  52.490  1.00  0.00     0.312 HD
HETATM   29  H29 UNL     1      27.823  -4.064  53.029  1.00  0.00     0.312 HD
ENDBRANCH  26  27
ENDBRANCH  25  26
BRANCH  25  30
HETATM   30  C18 UNL     1      27.380  -0.102  53.505  1.00  0.00    -0.034 A 
HETATM   31  C19 UNL     1      28.366   0.266  54.361  1.00  0.00     0.009 A 
HETATM   32  C20 UNL     1      29.126   1.380  54.570  1.00  0.00     0.001 A 
HETATM   33  C21 UNL     1      28.791   2.400  53.656  1.00  0.00     0.000 A 
HETATM   34  C22 UNL     1      27.805   2.234  52.690  1.00  0.00     0.001 A 
HETATM   35  C23 UNL     1      27.148   1.000  52.657  1.00  0.00     0.009 A 
ENDBRANCH  25  30
ENDBRANCH  23  25
ENDBRANCH   7  23
TORSDOF 11
ENDMDL
MODEL 3
REMARK VINA RESULT:      -7.6      3.591      7.458
REMARK  11 active torsions:
REMARK  status: ('A' for Active; 'I' for Inactive)
REMARK    1  A    between atoms: C2_2  and  N1_3 
REMARK    2  A    between atoms: N2_6  and  C5_7 
REMARK    3  A    between atoms: C5_7  and  C6_8 
REMARK    4  A    between atoms: C6_8  and  C7_9 
REMARK    5  A    between atoms: C7_9  and  C8_10 
REMARK    6  A    between atoms: C10_12  and  C11_13 
REMARK    7  A    between atoms: C15_19  and  N5_20 
REMARK    8  A    between atoms: N5_20  and  C16_21 
REMARK    9  A    between atoms: C16_21  and  C17_22 
REMARK   10  A    between atoms: C16_21  and  C18_24 
REMARK   11  A    between atoms: C17_22  and  N6_23 
ROOT
HETATM    1  C11 UNL     1      23.952   0.282  53.301  1.00  0.00    -0.007 C 
HETATM    2  C12 UNL     1      25.195   0.694  53.633  1.00  0.00    -0.035 A 
HETATM    3  C13 UNL     1      26.062  -0.244  54.377  1.00  0.00     0.086 A 
HETATM    4  C14 UNL     1      27.350   0.430  54.771  1.00  0.00     0.115 A 
HETATM    5  N3  UNL     1      27.634   1.636  54.447  1.00  0.00    -0.194 NA
HETATM    6  N4  UNL     1      26.771   2.430  53.702  1.00  0.00    -0.288 N 
HETATM    7  C15 UNL     1      25.481   2.113  53.185  1.00  0.00     0.226 A 
HETATM    8  H22 UNL     1      27.141   3.382  53.510  1.00  0.00     0.185 HD
ENDROOT
BRANCH   1   9
HETATM    9  C10 UNL     1      23.039  -0.860  53.409  1.00  0.00     0.060 A 
HETATM   10  C8  UNL     1      21.589  -0.462  53.676  1.00  0.00    -0.071 A 
HETATM   11  C9  UNL     1      22.312  -1.262  54.582  1.00  0.00    -0.010 A 
BRANCH  10  12
HETATM   12  C7  UNL     1      20.181  -0.029  53.852  1.00  0.00     0.036 C 
BRANCH  12  13
HETATM   13  C6  UNL     1      19.488  -0.086  52.470  1.00  0.00     0.034 C 
BRANCH  13  14
HETATM   14  C5  UNL     1      18.132  -0.655  52.720  1.00  0.00     0.273 C 
BRANCH  14  15
HETATM   15  N2  UNL     1      17.266  -0.721  51.567  1.00  0.00     0.091 N 
HETATM   16  C4  UNL     1      17.310   0.489  50.785  1.00  0.00     0.302 C 
HETATM   17  C3  UNL     1      16.324   1.515  51.152  1.00  0.00     0.302 C 
HETATM   18  N1  UNL     1      15.246   1.200  52.000  1.00  0.00     0.091 N 
HETATM   19  C25 UNL     1      15.346  -0.000  52.757  1.00  0.00     0.302 C 
HETATM   20  C24 UNL     1      15.911  -1.091  51.918  1.00  0.00     0.302 C 
BRANCH  18  21
HETATM   21  C2  UNL     1      14.757   2.317  52.781  1.00  0.00     0.268 C 
HETATM   22  C1  UNL     1      15.371   3.634  52.476  1.00  0.00     0.037 C 
ENDBRANCH  18  21
ENDBRANCH  14  15
ENDBRANCH  13  14
ENDBRANCH  12  13
ENDBRANCH  10  12
ENDBRANCH   1   9
BRANCH   7  23
HETATM   23  N5  UNL     1      25.403   2.137  51.768  1.00  0.00    -0.387 N 
HETATM   24  H24 UNL     1      26.310   2.076  51.299  1.00  0.00     0.156 HD
BRANCH  23  25
HETATM   25  C16 UNL     1      24.481   3.020  51.152  1.00  0.00     0.140 C 
BRANCH  25  26
HETATM   26  C17 UNL     1      25.083   4.289  50.603  1.00  0.00     0.296 C 
BRANCH  26  27
HETATM   27  N6  UNL     1      26.501   4.070  50.405  1.00  0.00     0.080 N 
HETATM   28  H28 UNL     1      26.953   4.130  51.352  1.00  0.00     0.312 HD
HETATM   29  H29 UNL     1      26.911   4.866  49.841  1.00  0.00     0.312 HD
ENDBRANCH  26  27
ENDBRANCH  25  26
BRANCH  25  30
HETATM   30  C18 UNL     1      23.442   2.454  50.339  1.00  0.00    -0.034 A 
HETATM   31  C19 UNL     1      22.449   1.539  50.467  1.00  0.00     0.009 A 
HETATM   32  C20 UNL     1      21.498   0.995  49.653  1.00  0.00     0.001 A 
HETATM   33  C21 UNL     1      21.581   1.530  48.351  1.00  0.00     0.000 A 
HETATM   34  C22 UNL     1      22.528   2.484  48.001  1.00  0.00     0.001 A 
HETATM   35  C23 UNL     1      23.411   2.903  49.003  1.00  0.00     0.009 A 
ENDBRANCH  25  30
ENDBRANCH  23  25
ENDBRANCH   7  23
TORSDOF 11
ENDMDL
MODEL 4
REMARK VINA RESULT:      -7.5      2.950      5.889
REMARK  11 active torsions:
REMARK  status: ('A' for Active; 'I' for Inactive)
REMARK    1  A    between atoms: C2_2  and  N1_3 
REMARK    2  A    between atoms: N2_6  and  C5_7 
REMARK    3  A    between atoms: C5_7  and  C6_8 
REMARK    4  A    between atoms: C6_8  and  C7_9 
REMARK    5  A    between atoms: C7_9  and  C8_10 
REMARK    6  A    between atoms: C10_12  and  C11_13 
REMARK    7  A    between atoms: C15_19  and  N5_20 
REMARK    8  A    between atoms: N5_20  and  C16_21 
REMARK    9  A    between atoms: C16_21  and  C17_22 
REMARK   10  A    between atoms: C16_21  and  C18_24 
REMARK   11  A    between atoms: C17_22  and  N6_23 
ROOT
HETATM    1  C11 UNL     1      23.617   0.114  53.228  1.00  0.00    -0.007 C 
HETATM    2  C12 UNL     1      24.831   0.553  53.628  1.00  0.00    -0.035 A 
HETATM    3  C13 UNL     1      25.669  -0.361  54.434  1.00  0.00     0.086 A 
HETATM    4  C14 UNL     1      26.919   0.341  54.895  1.00  0.00     0.115 A 
HETATM    5  N3  UNL     1      27.201   1.548  54.573  1.00  0.00    -0.194 NA
HETATM    6  N4  UNL     1      26.369   2.317  53.767  1.00  0.00    -0.288 N 
HETATM    7  C15 UNL     1      25.119   1.971  53.179  1.00  0.00     0.226 A 
HETATM    8  H22 UNL     1      26.734   3.274  53.586  1.00  0.00     0.185 HD
ENDROOT
BRANCH   1   9
HETATM    9  C10 UNL     1      22.720  -1.044  53.298  1.00  0.00     0.060 A 
HETATM   10  C8  UNL     1      21.241  -0.669  53.357  1.00  0.00    -0.071 A 
HETATM   11  C9  UNL     1      21.861  -1.391  54.395  1.00  0.00    -0.010 A 
BRANCH  10  12
HETATM   12  C7  UNL     1      19.814  -0.263  53.330  1.00  0.00     0.036 C 
BRANCH  12  13
HETATM   13  C6  UNL     1      19.453   0.117  51.874  1.00  0.00     0.034 C 
BRANCH  13  14
HETATM   14  C5  UNL     1      19.084   1.561  51.913  1.00  0.00     0.273 C 
BRANCH  14  15
HETATM   15  N2  UNL     1      17.782   1.882  51.379  1.00  0.00     0.091 N 
HETATM   16  C4  UNL     1      17.660   1.520  49.989  1.00  0.00     0.302 C 
HETATM   17  C3  UNL     1      18.032   2.568  49.028  1.00  0.00     0.302 C 
HETATM   18  N1  UNL     1      18.204   3.899  49.452  1.00  0.00     0.091 N 
HETATM   19  C25 UNL     1      18.362   4.119  50.849  1.00  0.00     0.302 C 
HETATM   20  C24 UNL     1      17.416   3.263  51.614  1.00  0.00     0.302 C 
BRANCH  18  21
HETATM   21  C2  UNL     1      19.142   4.661  48.654  1.00  0.00     0.268 C 
HETATM   22  C1  UNL     1      20.212   5.358  49.410  1.00  0.00     0.037 C 
ENDBRANCH  18  21
ENDBRANCH  14  15
ENDBRANCH  13  14
ENDBRANCH  12  13
ENDBRANCH  10  12
ENDBRANCH   1   9
BRANCH   7  23
HETATM   23  N5  UNL     1      25.124   1.976  51.760  1.00  0.00    -0.387 N 
HETATM   24  H24 UNL     1      26.039   1.784  51.346  1.00  0.00     0.156 HD
BRANCH  23  25
HETATM   25  C16 UNL     1      24.369   2.964  51.081  1.00  0.00     0.140 C 
BRANCH  25  26
HETATM   26  C17 UNL     1      25.151   4.175  50.641  1.00  0.00     0.296 C 
BRANCH  26  27
HETATM   27  N6  UNL     1      26.538   3.788  50.485  1.00  0.00     0.080 N 
HETATM   28  H28 UNL     1      26.865   4.191  49.571  1.00  0.00     0.312 HD
HETATM   29  H29 UNL     1      26.607   2.739  50.377  1.00  0.00     0.312 HD
ENDBRANCH  26  27
ENDBRANCH  25  26
BRANCH  25  30
HETATM   30  C18 UNL     1      23.372   2.527  50.144  1.00  0.00    -0.034 A 
HETATM   31  C19 UNL     1      22.402   1.582  50.074  1.00  0.00     0.009 A 
HETATM   32  C20 UNL     1      21.492   1.169  49.144  1.00  0.00     0.001 A 
HETATM   33  C21 UNL     1      21.599   1.927  47.960  1.00  0.00     0.000 A 
HETATM   34  C22 UNL     1      22.529   2.950  47.818  1.00  0.00     0.001 A 
HETATM   35  C23 UNL     1      23.369   3.204  48.908  1.00  0.00     0.009 A 
ENDBRANCH  25  30
ENDBRANCH  23  25
ENDBRANCH   7  23
TORSDOF 11
ENDMDL
MODEL 5
REMARK VINA RESULT:      -7.4      2.427      4.128
REMARK  11 active torsions:
REMARK  status: ('A' for Active; 'I' for Inactive)
REMARK    1  A    between atoms: C2_2  and  N1_3 
REMARK    2  A    between atoms: N2_6  and  C5_7 
REMARK    3  A    between atoms: C5_7  and  C6_8 
REMARK    4  A    between atoms: C6_8  and  C7_9 
REMARK    5  A    between atoms: C7_9  and  C8_10 
REMARK    6  A    between atoms: C10_12  and  C11_13 
REMARK    7  A    between atoms: C15_19  and  N5_20 
REMARK    8  A    between atoms: N5_20  and  C16_21 
REMARK    9  A    between atoms: C16_21  and  C17_22 
REMARK   10  A    between atoms: C16_21  and  C18_24 
REMARK   11  A    between atoms: C17_22  and  N6_23 
ROOT
HETATM    1  C11 UNL     1      25.981   1.597  51.957  1.00  0.00    -0.007 C 
HETATM    2  C12 UNL     1      26.694   0.650  52.606  1.00  0.00    -0.035 A 
HETATM    3  C13 UNL     1      28.136   0.893  52.821  1.00  0.00     0.086 A 
HETATM    4  C14 UNL     1      28.786  -0.317  53.438  1.00  0.00     0.115 A 
HETATM    5  N3  UNL     1      28.136  -1.373  53.759  1.00  0.00    -0.194 NA
HETATM    6  N4  UNL     1      26.765  -1.491  53.560  1.00  0.00    -0.288 N 
HETATM    7  C15 UNL     1      25.856  -0.551  52.993  1.00  0.00     0.226 A 
HETATM    8  H22 UNL     1      26.375  -2.401  53.876  1.00  0.00     0.185 HD
ENDROOT
BRANCH   1   9
HETATM    9  C10 UNL     1      26.106   2.910  51.317  1.00  0.00     0.060 A 
HETATM   10  C8  UNL     1      25.111   3.135  50.181  1.00  0.00    -0.071 A 
HETATM   11  C9  UNL     1      26.501   3.161  49.958  1.00  0.00    -0.010 A 
BRANCH  10  12
HETATM   12  C7  UNL     1      24.074   3.343  49.141  1.00  0.00     0.036 C 
BRANCH  12  13
HETATM   13  C6  UNL     1      22.787   2.614  49.597  1.00  0.00     0.034 C 
BRANCH  13  14
HETATM   14  C5  UNL     1      21.660   3.529  49.253  1.00  0.00     0.273 C 
BRANCH  14  15
HETATM   15  N2  UNL     1      21.374   4.553  50.230  1.00  0.00     0.091 N 
HETATM   16  C4  UNL     1      21.176   4.006  51.549  1.00  0.00     0.302 C 
HETATM   17  C3  UNL     1      19.790   3.653  51.885  1.00  0.00     0.302 C 
HETATM   18  N1  UNL     1      18.724   4.100  51.082  1.00  0.00     0.091 N 
HETATM   19  C25 UNL     1      19.047   4.572  49.779  1.00  0.00     0.302 C 
HETATM   20  C24 UNL     1      20.277   5.407  49.827  1.00  0.00     0.302 C 
BRANCH  18  21
HETATM   21  C2  UNL     1      17.567   3.229  51.091  1.00  0.00     0.268 C 
HETATM   22  C1  UNL     1      17.671   2.010  50.252  1.00  0.00     0.037 C 
ENDBRANCH  18  21
ENDBRANCH  14  15
ENDBRANCH  13  14
ENDBRANCH  12  13
ENDBRANCH  10  12
ENDBRANCH   1   9
BRANCH   7  23
HETATM   23  N5  UNL     1      24.853  -0.102  53.891  1.00  0.00    -0.387 N 
HETATM   24  H24 UNL     1      25.219   0.348  54.733  1.00  0.00     0.156 HD
BRANCH  23  25
HETATM   25  C16 UNL     1      23.717  -0.921  54.108  1.00  0.00     0.140 C 
BRANCH  25  26
HETATM   26  C17 UNL     1      23.506  -1.352  55.537  1.00  0.00     0.296 C 
BRANCH  26  27
HETATM   27  N6  UNL     1      24.796  -1.395  56.194  1.00  0.00     0.080 N 
HETATM   28  H28 UNL     1      25.523  -1.284  55.443  1.00  0.00     0.312 HD
HETATM   29  H29 UNL     1      24.955  -2.356  56.607  1.00  0.00     0.312 HD
ENDBRANCH  26  27
ENDBRANCH  25  26
BRANCH  25  30
HETATM   30  C18 UNL     1      22.511  -0.605  53.397  1.00  0.00    -0.034 A 
HETATM   31  C19 UNL     1      22.156  -0.048  52.212  1.00  0.00     0.009 A 
HETATM   32  C20 UNL     1      20.988   0.273  51.583  1.00  0.00     0.001 A 
HETATM   33  C21 UNL     1      19.875  -0.070  52.378  1.00  0.00     0.000 A 
HETATM   34  C22 UNL     1      20.012  -0.655  53.631  1.00  0.00     0.001 A 
HETATM   35  C23 UNL     1      21.314  -0.896  54.083  1.00  0.00     0.009 A 
ENDBRANCH  25  30
ENDBRANCH  23  25
ENDBRANCH   7  23
TORSDOF 11
ENDMDL
MODEL 6
REMARK VINA RESULT:      -7.1      1.847      2.933
REMARK  11 active torsions:
REMARK  status: ('A' for Active; 'I' for Inactive)
REMARK    1  A    between atoms: C2_2  and  N1_3 
REMARK    2  A    between atoms: N2_6  and  C5_7 
REMARK    3  A    between atoms: C5_7  and  C6_8 
REMARK    4  A    between atoms: C6_8  and  C7_9 
REMARK    5  A    between atoms: C7_9  and  C8_10 
REMARK    6  A    between atoms: C10_12  and  C11_13 
REMARK    7  A    between atoms: C15_19  and  N5_20 
REMARK    8  A    between atoms: N5_20  and  C16_21 
REMARK    9  A    between atoms: C16_21  and  C17_22 
REMARK   10  A    between atoms: C16_21  and  C18_24 
REMARK   11  A    between atoms: C17_22  and  N6_23 
ROOT
HETATM    1  C11 UNL     1      26.245   1.747  51.792  1.00  0.00    -0.007 C 
HETATM    2  C12 UNL     1      26.732   1.042  52.838  1.00  0.00    -0.035 A 
HETATM    3  C13 UNL     1      27.996   1.498  53.454  1.00  0.00     0.086 A 
HETATM    4  C14 UNL     1      28.448   0.524  54.510  1.00  0.00     0.115 A 
HETATM    5  N3  UNL     1      27.777  -0.519  54.830  1.00  0.00    -0.194 NA
HETATM    6  N4  UNL     1      26.569  -0.843  54.223  1.00  0.00    -0.288 N 
HETATM    7  C15 UNL     1      25.871  -0.153  53.191  1.00  0.00     0.226 A 
HETATM    8  H22 UNL     1      26.138  -1.713  54.593  1.00  0.00     0.185 HD
ENDROOT
BRANCH   1   9
HETATM    9  C10 UNL     1      26.523   2.912  50.947  1.00  0.00     0.060 A 
HETATM   10  C8  UNL     1      25.371   3.281  50.015  1.00  0.00    -0.071 A 
HETATM   11  C9  UNL     1      26.637   2.918  49.515  1.00  0.00    -0.010 A 
BRANCH  10  12
HETATM   12  C7  UNL     1      24.199   3.655  49.187  1.00  0.00     0.036 C 
BRANCH  12  13
HETATM   13  C6  UNL     1      24.307   5.163  48.860  1.00  0.00     0.034 C 
BRANCH  13  14
HETATM   14  C5  UNL     1      22.959   5.736  49.142  1.00  0.00     0.273 C 
BRANCH  14  15
HETATM   15  N2  UNL     1      22.851   6.492  50.367  1.00  0.00     0.091 N 
HETATM   16  C4  UNL     1      21.480   6.763  50.720  1.00  0.00     0.302 C 
HETATM   17  C3  UNL     1      20.928   8.019  50.194  1.00  0.00     0.302 C 
HETATM   18  N1  UNL     1      21.778   8.998  49.646  1.00  0.00     0.091 N 
HETATM   19  C25 UNL     1      23.095   8.591  49.294  1.00  0.00     0.302 C 
HETATM   20  C24 UNL     1      23.653   7.697  50.343  1.00  0.00     0.302 C 
BRANCH  18  21
HETATM   21  C2  UNL     1      21.157   9.825  48.632  1.00  0.00     0.268 C 
HETATM   22  C1  UNL     1      19.970  10.601  49.072  1.00  0.00     0.037 C 
ENDBRANCH  18  21
ENDBRANCH  14  15
ENDBRANCH  13  14
ENDBRANCH  12  13
ENDBRANCH  10  12
ENDBRANCH   1   9
BRANCH   7  23
HETATM   23  N5  UNL     1      24.597   0.338  53.580  1.00  0.00    -0.387 N 
HETATM   24  H24 UNL     1      24.487   0.454  54.590  1.00  0.00     0.156 HD
BRANCH  23  25
HETATM   25  C16 UNL     1      23.446  -0.151  52.915  1.00  0.00     0.140 C 
BRANCH  25  26
HETATM   26  C17 UNL     1      22.683  -1.216  53.661  1.00  0.00     0.296 C 
BRANCH  26  27
HETATM   27  N6  UNL     1      22.050  -0.601  54.809  1.00  0.00     0.080 N 
HETATM   28  H28 UNL     1      21.014  -0.625  54.634  1.00  0.00     0.312 HD
HETATM   29  H29 UNL     1      22.309   0.424  54.855  1.00  0.00     0.312 HD
ENDBRANCH  26  27
ENDBRANCH  25  26
BRANCH  25  30
HETATM   30  C18 UNL     1      22.621   0.789  52.210  1.00  0.00    -0.034 A 
HETATM   31  C19 UNL     1      21.731   0.780  51.188  1.00  0.00     0.009 A 
HETATM   32  C20 UNL     1      20.990   1.709  50.516  1.00  0.00     0.001 A 
HETATM   33  C21 UNL     1      21.218   3.003  51.027  1.00  0.00     0.000 A 
HETATM   34  C22 UNL     1      22.095   3.240  52.078  1.00  0.00     0.001 A 
HETATM   35  C23 UNL     1      22.753   2.131  52.621  1.00  0.00     0.009 A 
ENDBRANCH  25  30
ENDBRANCH  23  25
ENDBRANCH   7  23
TORSDOF 11
ENDMDL
MODEL 7
REMARK VINA RESULT:      -6.9      3.514      7.543
REMARK  11 active torsions:
REMARK  status: ('A' for Active; 'I' for Inactive)
REMARK    1  A    between atoms: C2_2  and  N1_3 
REMARK    2  A    between atoms: N2_6  and  C5_7 
REMARK    3  A    between atoms: C5_7  and  C6_8 
REMARK    4  A    between atoms: C6_8  and  C7_9 
REMARK    5  A    between atoms: C7_9  and  C8_10 
REMARK    6  A    between atoms: C10_12  and  C11_13 
REMARK    7  A    between atoms: C15_19  and  N5_20 
REMARK    8  A    between atoms: N5_20  and  C16_21 
REMARK    9  A    between atoms: C16_21  and  C17_22 
REMARK   10  A    between atoms: C16_21  and  C18_24 
REMARK   11  A    between atoms: C17_22  and  N6_23 
ROOT
HETATM    1  C11 UNL     1      23.657   3.051  49.318  1.00  0.00    -0.007 C 
HETATM    2  C12 UNL     1      24.568   4.050  49.345  1.00  0.00    -0.035 A 
HETATM    3  C13 UNL     1      24.200   5.342  48.729  1.00  0.00     0.086 A 
HETATM    4  C14 UNL     1      25.376   6.282  48.738  1.00  0.00     0.115 A 
HETATM    5  N3  UNL     1      26.507   5.981  49.257  1.00  0.00    -0.194 NA
HETATM    6  N4  UNL     1      26.746   4.751  49.859  1.00  0.00    -0.288 N 
HETATM    7  C15 UNL     1      25.866   3.641  50.010  1.00  0.00     0.226 A 
HETATM    8  H22 UNL     1      27.707   4.655  50.243  1.00  0.00     0.185 HD
ENDROOT
BRANCH   1   9
HETATM    9  C10 UNL     1      22.302   2.728  48.861  1.00  0.00     0.060 A 
HETATM   10  C8  UNL     1      21.670   1.553  49.604  1.00  0.00    -0.071 A 
HETATM   11  C9  UNL     1      21.889   1.514  48.213  1.00  0.00    -0.010 A 
BRANCH  10  12
HETATM   12  C7  UNL     1      21.063   0.462  50.405  1.00  0.00     0.036 C 
BRANCH  12  13
HETATM   13  C6  UNL     1      19.898   1.064  51.226  1.00  0.00     0.034 C 
BRANCH  13  14
HETATM   14  C5  UNL     1      18.772   0.094  51.103  1.00  0.00     0.273 C 
BRANCH  14  15
HETATM   15  N2  UNL     1      17.818   0.381  50.058  1.00  0.00     0.091 N 
HETATM   16  C4  UNL     1      17.515   1.788  49.971  1.00  0.00     0.302 C 
HETATM   17  C3  UNL     1      16.379   2.242  50.785  1.00  0.00     0.302 C 
HETATM   18  N1  UNL     1      15.494   1.310  51.359  1.00  0.00     0.091 N 
HETATM   19  C25 UNL     1      15.932  -0.042  51.431  1.00  0.00     0.302 C 
HETATM   20  C24 UNL     1      16.621  -0.426  50.170  1.00  0.00     0.302 C 
BRANCH  18  21
HETATM   21  C2  UNL     1      14.867   1.762  52.583  1.00  0.00     0.268 C 
HETATM   22  C1  UNL     1      13.927   0.805  53.217  1.00  0.00     0.037 C 
ENDBRANCH  18  21
ENDBRANCH  14  15
ENDBRANCH  13  14
ENDBRANCH  12  13
ENDBRANCH  10  12
ENDBRANCH   1   9
BRANCH   7  23
HETATM   23  N5  UNL     1      25.571   3.314  51.359  1.00  0.00    -0.387 N 
HETATM   24  H24 UNL     1      25.660   4.100  52.007  1.00  0.00     0.156 HD
BRANCH  23  25
HETATM   25  C16 UNL     1      26.024   2.074  51.873  1.00  0.00     0.140 C 
BRANCH  25  26
HETATM   26  C17 UNL     1      27.378   2.114  52.534  1.00  0.00     0.296 C 
BRANCH  26  27
HETATM   27  N6  UNL     1      27.211   2.617  53.882  1.00  0.00     0.080 N 
HETATM   28  H28 UNL     1      28.050   2.299  54.431  1.00  0.00     0.312 HD
HETATM   29  H29 UNL     1      26.378   2.151  54.337  1.00  0.00     0.312 HD
ENDBRANCH  26  27
ENDBRANCH  25  26
BRANCH  25  30
HETATM   30  C18 UNL     1      25.068   1.223  52.525  1.00  0.00    -0.034 A 
HETATM   31  C19 UNL     1      24.998  -0.055  52.974  1.00  0.00     0.009 A 
HETATM   32  C20 UNL     1      24.051  -0.844  53.559  1.00  0.00     0.001 A 
HETATM   33  C21 UNL     1      22.843  -0.139  53.737  1.00  0.00     0.000 A 
HETATM   34  C22 UNL     1      22.696   1.187  53.347  1.00  0.00     0.001 A 
HETATM   35  C23 UNL     1      23.807   1.807  52.763  1.00  0.00     0.009 A 
ENDBRANCH  25  30
ENDBRANCH  23  25
ENDBRANCH   7  23
TORSDOF 11
ENDMDL
MODEL 8
REMARK VINA RESULT:      -6.9      1.847      4.331
REMARK  11 active torsions:
REMARK  status: ('A' for Active; 'I' for Inactive)
REMARK    1  A    between atoms: C2_2  and  N1_3 
REMARK    2  A    between atoms: N2_6  and  C5_7 
REMARK    3  A    between atoms: C5_7  and  C6_8 
REMARK    4  A    between atoms: C6_8  and  C7_9 
REMARK    5  A    between atoms: C7_9  and  C8_10 
REMARK    6  A    between atoms: C10_12  and  C11_13 
REMARK    7  A    between atoms: C15_19  and  N5_20 
REMARK    8  A    between atoms: N5_20  and  C16_21 
REMARK    9  A    between atoms: C16_21  and  C17_22 
REMARK   10  A    between atoms: C16_21  and  C18_24 
REMARK   11  A    between atoms: C17_22  and  N6_23 
ROOT
HETATM    1  C11 UNL     1      21.399   0.671  51.084  1.00  0.00    -0.007 C 
HETATM    2  C12 UNL     1      20.459   0.161  51.911  1.00  0.00    -0.035 A 
HETATM    3  C13 UNL     1      19.122  -0.125  51.350  1.00  0.00     0.086 A 
HETATM    4  C14 UNL     1      18.177  -0.560  52.438  1.00  0.00     0.115 A 
HETATM    5  N3  UNL     1      18.535  -0.696  53.661  1.00  0.00    -0.194 NA
HETATM    6  N4  UNL     1      19.834  -0.447  54.088  1.00  0.00    -0.288 N 
HETATM    7  C15 UNL     1      20.960  -0.012  53.330  1.00  0.00     0.226 A 
HETATM    8  H22 UNL     1      19.976  -0.607  55.105  1.00  0.00     0.185 HD
ENDROOT
BRANCH   1   9
HETATM    9  C10 UNL     1      21.619   1.095  49.698  1.00  0.00     0.060 A 
HETATM   10  C8  UNL     1      22.680   2.184  49.552  1.00  0.00    -0.071 A 
HETATM   11  C9  UNL     1      21.346   2.396  49.150  1.00  0.00    -0.010 A 
BRANCH  10  12
HETATM   12  C7  UNL     1      23.774   3.180  49.446  1.00  0.00     0.036 C 
BRANCH  12  13
HETATM   13  C6  UNL     1      23.153   4.524  48.996  1.00  0.00     0.034 C 
BRANCH  13  14
HETATM   14  C5  UNL     1      23.501   5.508  50.062  1.00  0.00     0.273 C 
BRANCH  14  15
HETATM   15  N2  UNL     1      23.494   6.893  49.653  1.00  0.00     0.091 N 
HETATM   16  C4  UNL     1      23.745   7.044  48.242  1.00  0.00     0.302 C 
HETATM   17  C3  UNL     1      25.157   7.202  47.865  1.00  0.00     0.302 C 
HETATM   18  N1  UNL     1      26.131   7.479  48.843  1.00  0.00     0.091 N 
HETATM   19  C25 UNL     1      25.774   7.242  50.199  1.00  0.00     0.302 C 
HETATM   20  C24 UNL     1      24.385   7.707  50.453  1.00  0.00     0.302 C 
BRANCH  18  21
HETATM   21  C2  UNL     1      27.455   6.991  48.517  1.00  0.00     0.268 C 
HETATM   22  C1  UNL     1      27.614   5.516  48.508  1.00  0.00     0.037 C 
ENDBRANCH  18  21
ENDBRANCH  14  15
ENDBRANCH  13  14
ENDBRANCH  12  13
ENDBRANCH  10  12
ENDBRANCH   1   9
BRANCH   7  23
HETATM   23  N5  UNL     1      22.030  -0.944  53.295  1.00  0.00    -0.387 N 
HETATM   24  H24 UNL     1      21.731  -1.922  53.301  1.00  0.00     0.156 HD
BRANCH  23  25
HETATM   25  C16 UNL     1      23.189  -0.679  54.065  1.00  0.00     0.140 C 
BRANCH  25  26
HETATM   26  C17 UNL     1      23.378  -1.577  55.262  1.00  0.00     0.296 C 
BRANCH  26  27
HETATM   27  N6  UNL     1      24.657  -1.266  55.865  1.00  0.00     0.080 N 
HETATM   28  H28 UNL     1      24.700  -1.793  56.774  1.00  0.00     0.312 HD
HETATM   29  H29 UNL     1      24.691  -0.242  56.125  1.00  0.00     0.312 HD
ENDBRANCH  26  27
ENDBRANCH  25  26
BRANCH  25  30
HETATM   30  C18 UNL     1      24.401  -0.349  53.371  1.00  0.00    -0.034 A 
HETATM   31  C19 UNL     1      25.548  -0.968  52.996  1.00  0.00     0.009 A 
HETATM   32  C20 UNL     1      26.704  -0.607  52.365  1.00  0.00     0.001 A 
HETATM   33  C21 UNL     1      26.686   0.760  52.020  1.00  0.00     0.000 A 
HETATM   34  C22 UNL     1      25.604   1.583  52.311  1.00  0.00     0.001 A 
HETATM   35  C23 UNL     1      24.517   0.997  52.968  1.00  0.00     0.009 A 
ENDBRANCH  25  30
ENDBRANCH  23  25
ENDBRANCH   7  23
TORSDOF 11
ENDMDL
MODEL 9
REMARK VINA RESULT:      -6.9      3.412     10.200
REMARK  11 active torsions:
REMARK  status: ('A' for Active; 'I' for Inactive)
REMARK    1  A    between atoms: C2_2  and  N1_3 
REMARK    2  A    between atoms: N2_6  and  C5_7 
REMARK    3  A    between atoms: C5_7  and  C6_8 
REMARK    4  A    between atoms: C6_8  and  C7_9 
REMARK    5  A    between atoms: C7_9  and  C8_10 
REMARK    6  A    between atoms: C10_12  and  C11_13 
REMARK    7  A    between atoms: C15_19  and  N5_20 
REMARK    8  A    between atoms: N5_20  and  C16_21 
REMARK    9  A    between atoms: C16_21  and  C17_22 
REMARK   10  A    between atoms: C16_21  and  C18_24 
REMARK   11  A    between atoms: C17_22  and  N6_23 
ROOT
HETATM    1  C11 UNL     1      26.743   6.207  48.892  1.00  0.00    -0.007 C 
HETATM    2  C12 UNL     1      27.113   7.069  47.919  1.00  0.00    -0.035 A 
HETATM    3  C13 UNL     1      26.069   7.926  47.318  1.00  0.00     0.086 A 
HETATM    4  C14 UNL     1      26.636   8.720  46.172  1.00  0.00     0.115 A 
HETATM    5  N3  UNL     1      27.869   8.666  45.827  1.00  0.00    -0.194 NA
HETATM    6  N4  UNL     1      28.791   7.861  46.486  1.00  0.00    -0.288 N 
HETATM    7  C15 UNL     1      28.589   6.983  47.590  1.00  0.00     0.226 A 
HETATM    8  H22 UNL     1      29.753   7.928  46.099  1.00  0.00     0.185 HD
ENDROOT
BRANCH   1   9
HETATM    9  C10 UNL     1      25.580   5.748  49.657  1.00  0.00     0.060 A 
HETATM   10  C8  UNL     1      25.593   4.250  49.952  1.00  0.00    -0.071 A 
HETATM   11  C9  UNL     1      24.561   4.844  49.199  1.00  0.00    -0.010 A 
BRANCH  10  12
HETATM   12  C7  UNL     1      25.686   2.808  50.288  1.00  0.00     0.036 C 
BRANCH  12  13
HETATM   13  C6  UNL     1      26.837   2.628  51.306  1.00  0.00     0.034 C 
BRANCH  13  14
HETATM   14  C5  UNL     1      26.323   1.675  52.333  1.00  0.00     0.273 C 
BRANCH  14  15
HETATM   15  N2  UNL     1      26.810   1.890  53.675  1.00  0.00     0.091 N 
HETATM   16  C4  UNL     1      28.180   2.338  53.691  1.00  0.00     0.302 C 
HETATM   17  C3  UNL     1      29.192   1.275  53.765  1.00  0.00     0.302 C 
HETATM   18  N1  UNL     1      28.822  -0.043  54.092  1.00  0.00     0.091 N 
HETATM   19  C25 UNL     1      27.442  -0.374  53.989  1.00  0.00     0.302 C 
HETATM   20  C24 UNL     1      26.607   0.735  54.525  1.00  0.00     0.302 C 
BRANCH  18  21
HETATM   21  C2  UNL     1      29.686  -1.061  53.531  1.00  0.00     0.268 C 
HETATM   22  C1  UNL     1      29.023  -2.335  53.159  1.00  0.00     0.037 C 
ENDBRANCH  18  21
ENDBRANCH  14  15
ENDBRANCH  13  14
ENDBRANCH  12  13
ENDBRANCH  10  12
ENDBRANCH   1   9
BRANCH   7  23
HETATM   23  N5  UNL     1      29.309   7.345  48.758  1.00  0.00    -0.387 N 
HETATM   24  H24 UNL     1      28.723   7.471  49.586  1.00  0.00     0.156 HD
BRANCH  23  25
HETATM   25  C16 UNL     1      30.370   8.276  48.642  1.00  0.00     0.140 C 
BRANCH  25  26
HETATM   26  C17 UNL     1      30.189   9.550  49.428  1.00  0.00     0.296 C 
BRANCH  26  27
HETATM   27  N6  UNL     1      28.934   9.468  50.144  1.00  0.00     0.080 N 
HETATM   28  H28 UNL     1      28.227   9.073  49.473  1.00  0.00     0.312 HD
HETATM   29  H29 UNL     1      28.592  10.440  50.381  1.00  0.00     0.312 HD
ENDBRANCH  26  27
ENDBRANCH  25  26
BRANCH  25  30
HETATM   30  C18 UNL     1      31.714   7.771  48.628  1.00  0.00    -0.034 A 
HETATM   31  C19 UNL     1      32.969   8.253  48.452  1.00  0.00     0.009 A 
HETATM   32  C20 UNL     1      34.230   7.731  48.407  1.00  0.00     0.001 A 
HETATM   33  C21 UNL     1      34.205   6.333  48.593  1.00  0.00     0.000 A 
HETATM   34  C22 UNL     1      33.021   5.634  48.792  1.00  0.00     0.001 A 
HETATM   35  C23 UNL     1      31.835   6.378  48.801  1.00  0.00     0.009 A 
ENDBRANCH  25  30
ENDBRANCH  23  25
ENDBRANCH   7  23
TORSDOF 11
ENDMDL
