MODEL 1
REMARK VINA RESULT:      -7.3      0.000      0.000
REMARK  5 active torsions:
REMARK  status: ('A' for Active; 'I' for Inactive)
REMARK    1  A    between atoms: C2_2  and  C3_3 
REMARK    2  A    between atoms: C4_4  and  C5_5 
REMARK    3  A    between atoms: C4_4  and  C8_8 
REMARK       I    between atoms: C8_8  and  N1_10 
REMARK    4  A    between atoms: N1_10  and  S1_11 
REMARK    5  A    between atoms: S1_11  and  C9_14 
ROOT
HETATM    1  C5  UNL     1      27.836   5.343  48.591  1.00  0.00    -0.062 C 
HETATM    2  C6  UNL     1      28.997   5.436  48.274  1.00  0.00    -0.105 C 
HETATM    3  C7  UNL     1      30.408   5.526  47.880  1.00  0.00     0.112 C 
ENDROOT
BRANCH   1   4
HETATM    4  C4  UNL     1      26.428   5.244  48.953  1.00  0.00     0.086 C 
HETATM    5  C3  UNL     1      25.573   6.197  48.619  1.00  0.00     0.025 C 
BRANCH   5   6
HETATM    6  C2  UNL     1      24.164   6.341  48.848  1.00  0.00    -0.009 C 
HETATM    7  C1  UNL     1      23.199   5.768  48.182  1.00  0.00     0.011 C 
ENDBRANCH   5   6
BRANCH   4   8
HETATM    8  C8  UNL     1      26.039   4.048  49.694  1.00  0.00     0.273 C 
HETATM    9  O1  UNL     1      26.161   2.848  49.393  1.00  0.00    -0.266 OA
HETATM   10  N1  UNL     1      25.415   4.137  50.970  1.00  0.00    -0.245 N 
HETATM   11  H8  UNL     1      25.211   5.070  51.426  1.00  0.00     0.182 HD
BRANCH  10  12
HETATM   12  S1  UNL     1      24.941   2.768  51.876  1.00  0.00     0.265 S 
HETATM   13  O2  UNL     1      24.180   3.266  53.088  1.00  0.00    -0.200 OA
HETATM   14  O3  UNL     1      23.944   1.912  51.113  1.00  0.00    -0.200 OA
BRANCH  12  15
HETATM   15  C9  UNL     1      26.306   1.804  52.394  1.00  0.00     0.080 A 
HETATM   16  C10 UNL     1      26.175   0.443  52.212  1.00  0.00     0.027 A 
HETATM   17  C11 UNL     1      27.172  -0.435  52.574  1.00  0.00     0.020 A 
HETATM   18  C12 UNL     1      28.330   0.067  53.134  1.00  0.00     0.011 A 
HETATM   19 BR1  UNL     1      29.711  -1.125  53.638  1.00  0.00    -0.051 Br
HETATM   20  C13 UNL     1      28.475   1.443  53.323  1.00  0.00     0.020 A 
HETATM   21  C14 UNL     1      27.464   2.310  52.954  1.00  0.00     0.027 A 
ENDBRANCH  12  15
ENDBRANCH  10  12
ENDBRANCH   4   8
ENDBRANCH   1   4
TORSDOF 5
ENDMDL
MODEL 2
REMARK VINA RESULT:      -7.2      3.096      6.905
REMARK  5 active torsions:
REMARK  status: ('A' for Active; 'I' for Inactive)
REMARK    1  A    between atoms: C2_2  and  C3_3 
REMARK    2  A    between atoms: C4_4  and  C5_5 
REMARK    3  A    between atoms: C4_4  and  C8_8 
REMARK       I    between atoms: C8_8  and  N1_10 
REMARK    4  A    between atoms: N1_10  and  S1_11 
REMARK    5  A    between atoms: S1_11  and  C9_14 
ROOT
HETATM    1  C5  UNL     1      23.604  -0.259  53.553  1.00  0.00    -0.062 C 
HETATM    2  C6  UNL     1      22.656  -0.842  54.021  1.00  0.00    -0.105 C 
HETATM    3  C7  UNL     1      21.497  -1.530  54.602  1.00  0.00     0.112 C 
ENDROOT
BRANCH   1   4
HETATM    4  C4  UNL     1      24.735   0.446  52.965  1.00  0.00     0.086 C 
HETATM    5  C3  UNL     1      25.958  -0.053  53.039  1.00  0.00     0.025 C 
BRANCH   5   6
HETATM    6  C2  UNL     1      27.219   0.431  52.554  1.00  0.00    -0.009 C 
HETATM    7  C1  UNL     1      28.063   1.197  53.191  1.00  0.00     0.011 C 
ENDBRANCH   5   6
BRANCH   4   8
HETATM    8  C8  UNL     1      24.429   1.713  52.307  1.00  0.00     0.273 C 
HETATM    9  O1  UNL     1      24.586   2.879  52.708  1.00  0.00    -0.266 OA
HETATM   10  N1  UNL     1      23.863   1.752  51.001  1.00  0.00    -0.245 N 
HETATM   11  H8  UNL     1      23.643   0.867  50.463  1.00  0.00     0.182 HD
BRANCH  10  12
HETATM   12  S1  UNL     1      23.488   3.207  50.188  1.00  0.00     0.265 S 
HETATM   13  O2  UNL     1      22.593   2.856  49.017  1.00  0.00    -0.200 OA
HETATM   14  O3  UNL     1      22.651   4.132  51.057  1.00  0.00    -0.200 OA
BRANCH  12  15
HETATM   15  C9  UNL     1      24.916   4.037  49.609  1.00  0.00     0.080 A 
HETATM   16  C10 UNL     1      24.719   5.336  49.192  1.00  0.00     0.027 A 
HETATM   17  C11 UNL     1      25.755   6.107  48.713  1.00  0.00     0.020 A 
HETATM   18  C12 UNL     1      27.020   5.558  48.651  1.00  0.00     0.011 A 
HETATM   19 BR1  UNL     1      28.455   6.603  47.995  1.00  0.00    -0.051 Br
HETATM   20  C13 UNL     1      27.232   4.243  49.072  1.00  0.00     0.020 A 
HETATM   21  C14 UNL     1      26.181   3.483  49.549  1.00  0.00     0.027 A 
ENDBRANCH  12  15
ENDBRANCH  10  12
ENDBRANCH   4   8
ENDBRANCH   1   4
TORSDOF 5
ENDMDL
MODEL 3
REMARK VINA RESULT:      -7.2      3.108      6.458
REMARK  5 active torsions:
REMARK  status: ('A' for Active; 'I' for Inactive)
REMARK    1  A    between atoms: C2_2  and  C3_3 
REMARK    2  A    between atoms: C4_4  and  C5_5 
REMARK    3  A    between atoms: C4_4  and  C8_8 
REMARK       I    between atoms: C8_8  and  N1_10 
REMARK    4  A    between atoms: N1_10  and  S1_11 
REMARK    5  A    between atoms: S1_11  and  C9_14 
ROOT
HETATM    1  C5  UNL     1      25.957  -0.367  53.247  1.00  0.00    -0.062 C 
HETATM    2  C6  UNL     1      27.100  -0.751  53.192  1.00  0.00    -0.105 C 
HETATM    3  C7  UNL     1      28.489  -1.223  53.148  1.00  0.00     0.112 C 
ENDROOT
BRANCH   1   4
HETATM    4  C4  UNL     1      24.570   0.075  53.305  1.00  0.00     0.086 C 
HETATM    5  C3  UNL     1      23.652  -0.650  53.924  1.00  0.00     0.025 C 
BRANCH   5   6
HETATM    6  C2  UNL     1      22.246  -0.445  54.122  1.00  0.00    -0.009 C 
HETATM    7  C1  UNL     1      21.359  -1.350  54.436  1.00  0.00     0.011 C 
ENDBRANCH   5   6
BRANCH   4   8
HETATM    8  C8  UNL     1      24.272   1.343  52.645  1.00  0.00     0.273 C 
HETATM    9  O1  UNL     1      24.495   2.508  53.019  1.00  0.00    -0.266 OA
HETATM   10  N1  UNL     1      23.633   1.386  51.375  1.00  0.00    -0.245 N 
HETATM   11  H8  UNL     1      23.350   0.502  50.864  1.00  0.00     0.182 HD
BRANCH  10  12
HETATM   12  S1  UNL     1      23.265   2.843  50.562  1.00  0.00     0.265 S 
HETATM   13  O2  UNL     1      22.336   2.501  49.414  1.00  0.00    -0.200 OA
HETATM   14  O3  UNL     1      22.464   3.786  51.445  1.00  0.00    -0.200 OA
BRANCH  12  15
HETATM   15  C9  UNL     1      24.692   3.644  49.945  1.00  0.00     0.080 A 
HETATM   16  C10 UNL     1      24.498   4.927  49.477  1.00  0.00     0.027 A 
HETATM   17  C11 UNL     1      25.533   5.675  48.965  1.00  0.00     0.020 A 
HETATM   18  C12 UNL     1      26.797   5.120  48.920  1.00  0.00     0.011 A 
HETATM   19 BR1  UNL     1      28.233   6.133  48.217  1.00  0.00    -0.051 Br
HETATM   20  C13 UNL     1      27.007   3.822  49.391  1.00  0.00     0.020 A 
HETATM   21  C14 UNL     1      25.956   3.085  49.903  1.00  0.00     0.027 A 
ENDBRANCH  12  15
ENDBRANCH  10  12
ENDBRANCH   4   8
ENDBRANCH   1   4
TORSDOF 5
ENDMDL
MODEL 4
REMARK VINA RESULT:      -7.1      2.900      3.408
REMARK  5 active torsions:
REMARK  status: ('A' for Active; 'I' for Inactive)
REMARK    1  A    between atoms: C2_2  and  C3_3 
REMARK    2  A    between atoms: C4_4  and  C5_5 
REMARK    3  A    between atoms: C4_4  and  C8_8 
REMARK       I    between atoms: C8_8  and  N1_10 
REMARK    4  A    between atoms: N1_10  and  S1_11 
REMARK    5  A    between atoms: S1_11  and  C9_14 
ROOT
HETATM    1  C5  UNL     1      27.128   4.825  48.911  1.00  0.00    -0.062 C 
HETATM    2  C6  UNL     1      28.032   5.467  48.435  1.00  0.00    -0.105 C 
HETATM    3  C7  UNL     1      29.115   6.262  47.845  1.00  0.00     0.112 C 
ENDROOT
BRANCH   1   4
HETATM    4  C4  UNL     1      26.039   4.062  49.507  1.00  0.00     0.086 C 
HETATM    5  C3  UNL     1      24.778   4.337  49.215  1.00  0.00     0.025 C 
BRANCH   5   6
HETATM    6  C2  UNL     1      23.545   3.750  49.654  1.00  0.00    -0.009 C 
HETATM    7  C1  UNL     1      22.983   2.667  49.191  1.00  0.00     0.011 C 
ENDBRANCH   5   6
BRANCH   4   8
HETATM    8  C8  UNL     1      26.430   2.998  50.428  1.00  0.00     0.273 C 
HETATM    9  O1  UNL     1      26.821   1.842  50.192  1.00  0.00    -0.266 OA
HETATM   10  N1  UNL     1      26.403   3.191  51.838  1.00  0.00    -0.245 N 
HETATM   11  H8  UNL     1      26.099   4.110  52.268  1.00  0.00     0.182 HD
BRANCH  10  12
HETATM   12  S1  UNL     1      26.851   1.980  52.956  1.00  0.00     0.265 S 
HETATM   13  O2  UNL     1      27.953   1.158  52.319  1.00  0.00    -0.200 OA
HETATM   14  O3  UNL     1      27.481   2.579  54.203  1.00  0.00    -0.200 OA
BRANCH  12  15
HETATM   15  C9  UNL     1      25.513   0.938  53.386  1.00  0.00     0.080 A 
HETATM   16  C10 UNL     1      24.308   1.242  52.787  1.00  0.00     0.027 A 
HETATM   17  C11 UNL     1      23.172   0.505  53.034  1.00  0.00     0.020 A 
HETATM   18  C12 UNL     1      23.247  -0.563  53.905  1.00  0.00     0.011 A 
HETATM   19 BR1  UNL     1      21.694  -1.587  54.257  1.00  0.00    -0.051 Br
HETATM   20  C13 UNL     1      24.462  -0.882  54.517  1.00  0.00     0.020 A 
HETATM   21  C14 UNL     1      25.593  -0.131  54.258  1.00  0.00     0.027 A 
ENDBRANCH  12  15
ENDBRANCH  10  12
ENDBRANCH   4   8
ENDBRANCH   1   4
TORSDOF 5
ENDMDL
MODEL 5
REMARK VINA RESULT:      -6.6      4.239      6.224
REMARK  5 active torsions:
REMARK  status: ('A' for Active; 'I' for Inactive)
REMARK    1  A    between atoms: C2_2  and  C3_3 
REMARK    2  A    between atoms: C4_4  and  C5_5 
REMARK    3  A    between atoms: C4_4  and  C8_8 
REMARK       I    between atoms: C8_8  and  N1_10 
REMARK    4  A    between atoms: N1_10  and  S1_11 
REMARK    5  A    between atoms: S1_11  and  C9_14 
ROOT
HETATM    1  C5  UNL     1      26.744   2.820  51.312  1.00  0.00    -0.062 C 
HETATM    2  C6  UNL     1      26.291   3.462  50.396  1.00  0.00    -0.105 C 
HETATM    3  C7  UNL     1      25.763   4.250  49.277  1.00  0.00     0.112 C 
ENDROOT
BRANCH   1   4
HETATM    4  C4  UNL     1      27.290   2.023  52.403  1.00  0.00     0.086 C 
HETATM    5  C3  UNL     1      28.394   2.397  53.030  1.00  0.00     0.025 C 
BRANCH   5   6
HETATM    6  C2  UNL     1      29.124   1.805  54.114  1.00  0.00    -0.009 C 
HETATM    7  C1  UNL     1      29.667   0.619  54.138  1.00  0.00     0.011 C 
ENDBRANCH   5   6
BRANCH   4   8
HETATM    8  C8  UNL     1      26.549   0.813  52.747  1.00  0.00     0.273 C 
HETATM    9  O1  UNL     1      26.341  -0.213  52.076  1.00  0.00    -0.266 OA
HETATM   10  N1  UNL     1      25.924   0.661  54.016  1.00  0.00    -0.245 N 
HETATM   11  H8  UNL     1      25.973   1.419  54.755  1.00  0.00     0.182 HD
BRANCH  10  12
HETATM   12  S1  UNL     1      25.048  -0.735  54.466  1.00  0.00     0.265 S 
HETATM   13  O2  UNL     1      25.704  -1.921  53.789  1.00  0.00    -0.200 OA
HETATM   14  O3  UNL     1      25.174  -1.016  55.955  1.00  0.00    -0.200 OA
BRANCH  12  15
HETATM   15  C9  UNL     1      23.364  -0.647  54.000  1.00  0.00     0.080 A 
HETATM   16  C10 UNL     1      23.077   0.229  52.974  1.00  0.00     0.027 A 
HETATM   17  C11 UNL     1      21.794   0.398  52.506  1.00  0.00     0.020 A 
HETATM   18  C12 UNL     1      20.773  -0.330  53.083  1.00  0.00     0.011 A 
HETATM   19 BR1  UNL     1      19.002  -0.110  52.451  1.00  0.00    -0.051 Br
HETATM   20  C13 UNL     1      21.051  -1.222  54.121  1.00  0.00     0.020 A 
HETATM   21  C14 UNL     1      22.345  -1.380  54.580  1.00  0.00     0.027 A 
ENDBRANCH  12  15
ENDBRANCH  10  12
ENDBRANCH   4   8
ENDBRANCH   1   4
TORSDOF 5
ENDMDL
MODEL 6
REMARK VINA RESULT:      -6.5      4.287      6.824
REMARK  5 active torsions:
REMARK  status: ('A' for Active; 'I' for Inactive)
REMARK    1  A    between atoms: C2_2  and  C3_3 
REMARK    2  A    between atoms: C4_4  and  C5_5 
REMARK    3  A    between atoms: C4_4  and  C8_8 
REMARK       I    between atoms: C8_8  and  N1_10 
REMARK    4  A    between atoms: N1_10  and  S1_11 
REMARK    5  A    between atoms: S1_11  and  C9_14 
ROOT
HETATM    1  C5  UNL     1      19.329   0.381  51.583  1.00  0.00    -0.062 C 
HETATM    2  C6  UNL     1      18.348   0.341  50.881  1.00  0.00    -0.105 C 
HETATM    3  C7  UNL     1      17.142   0.302  50.046  1.00  0.00     0.112 C 
ENDROOT
BRANCH   1   4
HETATM    4  C4  UNL     1      20.521   0.450  52.418  1.00  0.00     0.086 C 
HETATM    5  C3  UNL     1      20.573  -0.183  53.579  1.00  0.00     0.025 C 
BRANCH   5   6
HETATM    6  C2  UNL     1      21.605  -0.275  54.572  1.00  0.00    -0.009 C 
HETATM    7  C1  UNL     1      22.726  -0.938  54.478  1.00  0.00     0.011 C 
ENDBRANCH   5   6
BRANCH   4   8
HETATM    8  C8  UNL     1      21.625   1.249  51.896  1.00  0.00     0.273 C 
HETATM    9  O1  UNL     1      22.563   0.922  51.149  1.00  0.00    -0.266 OA
HETATM   10  N1  UNL     1      21.759   2.629  52.217  1.00  0.00    -0.245 N 
HETATM   11  H8  UNL     1      21.065   3.124  52.846  1.00  0.00     0.182 HD
BRANCH  10  12
HETATM   12  S1  UNL     1      23.032   3.607  51.631  1.00  0.00     0.265 S 
HETATM   13  O2  UNL     1      22.881   3.695  50.126  1.00  0.00    -0.200 OA
HETATM   14  O3  UNL     1      22.905   5.040  52.121  1.00  0.00    -0.200 OA
BRANCH  12  15
HETATM   15  C9  UNL     1      24.609   2.961  52.028  1.00  0.00     0.080 A 
HETATM   16  C10 UNL     1      24.809   2.657  53.358  1.00  0.00     0.027 A 
HETATM   17  C11 UNL     1      26.002   2.141  53.811  1.00  0.00     0.020 A 
HETATM   18  C12 UNL     1      27.021   1.926  52.905  1.00  0.00     0.011 A 
HETATM   19 BR1  UNL     1      28.669   1.218  53.510  1.00  0.00    -0.051 Br
HETATM   20  C13 UNL     1      26.831   2.229  51.555  1.00  0.00     0.020 A 
HETATM   21  C14 UNL     1      25.627   2.746  51.117  1.00  0.00     0.027 A 
ENDBRANCH  12  15
ENDBRANCH  10  12
ENDBRANCH   4   8
ENDBRANCH   1   4
TORSDOF 5
ENDMDL
MODEL 7
REMARK VINA RESULT:      -6.5      5.127      7.458
REMARK  5 active torsions:
REMARK  status: ('A' for Active; 'I' for Inactive)
REMARK    1  A    between atoms: C2_2  and  C3_3 
REMARK    2  A    between atoms: C4_4  and  C5_5 
REMARK    3  A    between atoms: C4_4  and  C8_8 
REMARK       I    between atoms: C8_8  and  N1_10 
REMARK    4  A    between atoms: N1_10  and  S1_11 
REMARK    5  A    between atoms: S1_11  and  C9_14 
ROOT
HETATM    1  C5  UNL     1      25.544  -0.422  53.022  1.00  0.00    -0.062 C 
HETATM    2  C6  UNL     1      26.703  -0.759  53.050  1.00  0.00    -0.105 C 
HETATM    3  C7  UNL     1      28.119  -1.144  53.086  1.00  0.00     0.112 C 
ENDROOT
BRANCH   1   4
HETATM    4  C4  UNL     1      24.143  -0.022  53.013  1.00  0.00     0.086 C 
HETATM    5  C3  UNL     1      23.219  -0.773  53.590  1.00  0.00     0.025 C 
BRANCH   5   6
HETATM    6  C2  UNL     1      21.799  -0.610  53.720  1.00  0.00    -0.009 C 
HETATM    7  C1  UNL     1      21.168   0.049  54.654  1.00  0.00     0.011 C 
ENDBRANCH   5   6
BRANCH   4   8
HETATM    8  C8  UNL     1      23.840   1.236  52.336  1.00  0.00     0.273 C 
HETATM    9  O1  UNL     1      23.619   1.462  51.134  1.00  0.00    -0.266 OA
HETATM   10  N1  UNL     1      23.754   2.462  53.053  1.00  0.00    -0.245 N 
HETATM   11  H8  UNL     1      23.907   2.506  54.101  1.00  0.00     0.182 HD
BRANCH  10  12
HETATM   12  S1  UNL     1      23.401   3.958  52.309  1.00  0.00     0.265 S 
HETATM   13  O2  UNL     1      23.636   5.045  53.338  1.00  0.00    -0.200 OA
HETATM   14  O3  UNL     1      24.379   4.266  51.186  1.00  0.00    -0.200 OA
BRANCH  12  15
HETATM   15  C9  UNL     1      21.753   4.044  51.727  1.00  0.00     0.080 A 
HETATM   16  C10 UNL     1      20.855   3.212  52.362  1.00  0.00     0.027 A 
HETATM   17  C11 UNL     1      19.526   3.177  52.007  1.00  0.00     0.020 A 
HETATM   18  C12 UNL     1      19.087   3.997  50.987  1.00  0.00     0.011 A 
HETATM   19 BR1  UNL     1      17.262   3.961  50.485  1.00  0.00    -0.051 Br
HETATM   20  C13 UNL     1      19.987   4.845  50.337  1.00  0.00     0.020 A 
HETATM   21  C14 UNL     1      21.318   4.867  50.705  1.00  0.00     0.027 A 
ENDBRANCH  12  15
ENDBRANCH  10  12
ENDBRANCH   4   8
ENDBRANCH   1   4
TORSDOF 5
ENDMDL
MODEL 8
REMARK VINA RESULT:      -6.4      4.750      6.347
REMARK  5 active torsions:
REMARK  status: ('A' for Active; 'I' for Inactive)
REMARK    1  A    between atoms: C2_2  and  C3_3 
REMARK    2  A    between atoms: C4_4  and  C5_5 
REMARK    3  A    between atoms: C4_4  and  C8_8 
REMARK       I    between atoms: C8_8  and  N1_10 
REMARK    4  A    between atoms: N1_10  and  S1_11 
REMARK    5  A    between atoms: S1_11  and  C9_14 
ROOT
HETATM    1  C5  UNL     1      26.111   2.886  50.506  1.00  0.00    -0.062 C 
HETATM    2  C6  UNL     1      26.639   3.666  49.751  1.00  0.00    -0.105 C 
HETATM    3  C7  UNL     1      27.259   4.622  48.826  1.00  0.00     0.112 C 
ENDROOT
BRANCH   1   4
HETATM    4  C4  UNL     1      25.477   1.961  51.436  1.00  0.00     0.086 C 
HETATM    5  C3  UNL     1      26.112   0.877  51.854  1.00  0.00     0.025 C 
BRANCH   5   6
HETATM    6  C2  UNL     1      25.722  -0.173  52.749  1.00  0.00    -0.009 C 
HETATM    7  C1  UNL     1      26.461  -1.168  53.161  1.00  0.00     0.011 C 
ENDBRANCH   5   6
BRANCH   4   8
HETATM    8  C8  UNL     1      24.124   2.306  51.863  1.00  0.00     0.273 C 
HETATM    9  O1  UNL     1      23.703   2.644  52.983  1.00  0.00    -0.266 OA
HETATM   10  N1  UNL     1      23.033   2.293  50.950  1.00  0.00    -0.245 N 
HETATM   11  H8  UNL     1      23.162   2.032  49.931  1.00  0.00     0.182 HD
BRANCH  10  12
HETATM   12  S1  UNL     1      21.433   2.690  51.399  1.00  0.00     0.265 S 
HETATM   13  O2  UNL     1      21.511   3.811  52.416  1.00  0.00    -0.200 OA
HETATM   14  O3  UNL     1      20.655   3.274  50.232  1.00  0.00    -0.200 OA
BRANCH  12  15
HETATM   15  C9  UNL     1      20.575   1.329  52.088  1.00  0.00     0.080 A 
HETATM   16  C10 UNL     1      19.374   1.018  51.485  1.00  0.00     0.027 A 
HETATM   17  C11 UNL     1      18.594  -0.028  51.924  1.00  0.00     0.020 A 
HETATM   18  C12 UNL     1      19.031  -0.781  52.995  1.00  0.00     0.011 A 
HETATM   19 BR1  UNL     1      17.972  -2.223  53.612  1.00  0.00    -0.051 Br
HETATM   20  C13 UNL     1      20.246  -0.476  53.613  1.00  0.00     0.020 A 
HETATM   21  C14 UNL     1      21.017   0.578  53.161  1.00  0.00     0.027 A 
ENDBRANCH  12  15
ENDBRANCH  10  12
ENDBRANCH   4   8
ENDBRANCH   1   4
TORSDOF 5
ENDMDL
MODEL 9
REMARK VINA RESULT:      -6.3      5.057      7.508
REMARK  5 active torsions:
REMARK  status: ('A' for Active; 'I' for Inactive)
REMARK    1  A    between atoms: C2_2  and  C3_3 
REMARK    2  A    between atoms: C4_4  and  C5_5 
REMARK    3  A    between atoms: C4_4  and  C8_8 
REMARK       I    between atoms: C8_8  and  N1_10 
REMARK    4  A    between atoms: N1_10  and  S1_11 
REMARK    5  A    between atoms: S1_11  and  C9_14 
ROOT
HETATM    1  C5  UNL     1      27.007   7.362  47.694  1.00  0.00    -0.062 C 
HETATM    2  C6  UNL     1      26.677   8.382  47.140  1.00  0.00    -0.105 C 
HETATM    3  C7  UNL     1      26.283   9.613  46.444  1.00  0.00     0.112 C 
ENDROOT
BRANCH   1   4
HETATM    4  C4  UNL     1      27.383   6.122  48.362  1.00  0.00     0.086 C 
HETATM    5  C3  UNL     1      26.464   5.327  48.884  1.00  0.00     0.025 C 
BRANCH   5   6
HETATM    6  C2  UNL     1      26.565   4.077  49.581  1.00  0.00    -0.009 C 
HETATM    7  C1  UNL     1      25.584   3.277  49.902  1.00  0.00     0.011 C 
ENDBRANCH   5   6
BRANCH   4   8
HETATM    8  C8  UNL     1      28.812   5.829  48.413  1.00  0.00     0.273 C 
HETATM    9  O1  UNL     1      29.432   4.815  48.048  1.00  0.00    -0.266 OA
HETATM   10  N1  UNL     1      29.744   6.768  48.938  1.00  0.00    -0.245 N 
HETATM   11  H8  UNL     1      29.435   7.710  49.310  1.00  0.00     0.182 HD
BRANCH  10  12
HETATM   12  S1  UNL     1      31.425   6.473  49.018  1.00  0.00     0.265 S 
HETATM   13  O2  UNL     1      32.091   7.756  49.473  1.00  0.00    -0.200 OA
HETATM   14  O3  UNL     1      31.761   5.455  50.096  1.00  0.00    -0.200 OA
BRANCH  12  15
HETATM   15  C9  UNL     1      32.092   5.977  47.478  1.00  0.00     0.080 A 
HETATM   16  C10 UNL     1      31.909   6.866  46.439  1.00  0.00     0.027 A 
HETATM   17  C11 UNL     1      32.382   6.605  45.173  1.00  0.00     0.020 A 
HETATM   18  C12 UNL     1      33.055   5.421  44.944  1.00  0.00     0.011 A 
HETATM   19 BR1  UNL     1      33.712   5.045  43.209  1.00  0.00    -0.051 Br
HETATM   20  C13 UNL     1      33.247   4.514  45.989  1.00  0.00     0.020 A 
HETATM   21  C14 UNL     1      32.765   4.791  47.254  1.00  0.00     0.027 A 
ENDBRANCH  12  15
ENDBRANCH  10  12
ENDBRANCH   4   8
ENDBRANCH   1   4
TORSDOF 5
ENDMDL
