MODEL 1
REMARK VINA RESULT:      -6.8      0.000      0.000
REMARK  12 active torsions:
REMARK  status: ('A' for Active; 'I' for Inactive)
REMARK    1  A    between atoms: C3_3  and  N1_4 
REMARK    2  A    between atoms: N1_4  and  C5_6 
REMARK    3  A    between atoms: C6_7  and  C7_8 
REMARK    4  A    between atoms: C9_13  and  C10_14 
REMARK    5  A    between atoms: C10_14  and  C11_15 
REMARK    6  A    between atoms: C12_16  and  N4_17 
REMARK       I    between atoms: N4_17  and  C13_18 
REMARK    7  A    between atoms: C13_18  and  C14_20 
REMARK    8  A    between atoms: C15_21  and  C16_22 
REMARK    9  A    between atoms: C16_22  and  C17_23 
REMARK   10  A    between atoms: C17_23  and  N5_24 
REMARK   11  A    between atoms: N5_24  and  C18_25 
REMARK   12  A    between atoms: N5_24  and  C20_27 
ROOT
HETATM    1  C11 UNL     1      25.977   5.036  49.367  1.00  0.00     0.019 C 
HETATM    2  C12 UNL     1      26.707   4.024  49.775  1.00  0.00     0.092 C 
ENDROOT
BRANCH   1   3
HETATM    3  C10 UNL     1      26.341   6.179  48.545  1.00  0.00     0.034 C 
BRANCH   3   4
HETATM    4  C9  UNL     1      27.139   7.169  48.864  1.00  0.00     0.071 A 
HETATM    5  C2  UNL     1      28.430   7.435  48.445  1.00  0.00     0.029 A 
HETATM    6  C1  UNL     1      28.898   6.561  47.600  1.00  0.00     0.030 C 
HETATM    7  C3  UNL     1      29.125   8.535  48.876  1.00  0.00     0.142 A 
HETATM    8  N2  UNL     1      28.511   9.364  49.732  1.00  0.00    -0.223 NA
HETATM    9  C8  UNL     1      27.258   9.115  50.148  1.00  0.00     0.236 A 
HETATM   10  N3  UNL     1      26.571   8.041  49.730  1.00  0.00    -0.241 NA
BRANCH   7  11
HETATM   11  N1  UNL     1      30.455   8.770  48.441  1.00  0.00    -0.346 N 
HETATM   12  C4  UNL     1      30.687   9.604  47.281  1.00  0.00     0.157 C 
BRANCH  11  13
HETATM   13  C5  UNL     1      31.664   8.262  49.047  1.00  0.00     0.090 C 
HETATM   14  C6  UNL     1      32.558   7.868  48.125  1.00  0.00     0.021 C 
BRANCH  14  15
HETATM   15  C7  UNL     1      33.933   7.282  48.250  1.00  0.00     0.251 C 
HETATM   16  F1  UNL     1      34.769   8.203  48.868  1.00  0.00    -0.251 F 
ENDBRANCH  14  15
ENDBRANCH  11  13
ENDBRANCH   7  11
ENDBRANCH   3   4
ENDBRANCH   1   3
BRANCH   2  17
HETATM   17  N4  UNL     1      26.148   2.986  50.590  1.00  0.00    -0.326 N 
HETATM   18  C13 UNL     1      26.739   2.308  51.691  1.00  0.00     0.300 C 
HETATM   19  O1  UNL     1      27.896   2.556  52.093  1.00  0.00    -0.258 OA
HETATM   20  H14 UNL     1      25.188   2.714  50.319  1.00  0.00     0.169 HD
BRANCH  18  21
HETATM   21  C14 UNL     1      26.033   1.293  52.413  1.00  0.00    -0.005 C 
HETATM   22  C15 UNL     1      25.417   0.437  53.039  1.00  0.00    -0.095 C 
BRANCH  22  23
HETATM   23  C16 UNL     1      24.652  -0.580  53.805  1.00  0.00     0.114 C 
BRANCH  23  24
HETATM   24  C17 UNL     1      23.281  -0.642  53.244  1.00  0.00     0.129 C 
BRANCH  24  25
HETATM   25  N5  UNL     1      22.344   0.321  53.682  1.00  0.00    -0.412 N 
BRANCH  25  26
HETATM   26  C18 UNL     1      21.901   1.299  52.764  1.00  0.00     0.112 C 
HETATM   27  C19 UNL     1      22.180   1.058  51.323  1.00  0.00     0.026 C 
ENDBRANCH  25  26
BRANCH  25  28
HETATM   28  C20 UNL     1      21.376  -0.142  54.629  1.00  0.00     0.112 C 
HETATM   29  C21 UNL     1      21.096  -1.603  54.344  1.00  0.00     0.026 C 
ENDBRANCH  25  28
ENDBRANCH  24  25
ENDBRANCH  23  24
ENDBRANCH  22  23
ENDBRANCH  18  21
ENDBRANCH   2  17
TORSDOF 12
ENDMDL
MODEL 2
REMARK VINA RESULT:      -6.5      1.860      2.893
REMARK  12 active torsions:
REMARK  status: ('A' for Active; 'I' for Inactive)
REMARK    1  A    between atoms: C3_3  and  N1_4 
REMARK    2  A    between atoms: N1_4  and  C5_6 
REMARK    3  A    between atoms: C6_7  and  C7_8 
REMARK    4  A    between atoms: C9_13  and  C10_14 
REMARK    5  A    between atoms: C10_14  and  C11_15 
REMARK    6  A    between atoms: C12_16  and  N4_17 
REMARK       I    between atoms: N4_17  and  C13_18 
REMARK    7  A    between atoms: C13_18  and  C14_20 
REMARK    8  A    between atoms: C15_21  and  C16_22 
REMARK    9  A    between atoms: C16_22  and  C17_23 
REMARK   10  A    between atoms: C17_23  and  N5_24 
REMARK   11  A    between atoms: N5_24  and  C18_25 
REMARK   12  A    between atoms: N5_24  and  C20_27 
ROOT
HETATM    1  C11 UNL     1      26.123   5.237  49.289  1.00  0.00     0.019 C 
HETATM    2  C12 UNL     1      25.245   5.109  50.256  1.00  0.00     0.092 C 
ENDROOT
BRANCH   1   3
HETATM    3  C10 UNL     1      26.467   6.400  48.487  1.00  0.00     0.034 C 
BRANCH   3   4
HETATM    4  C9  UNL     1      27.325   7.346  48.781  1.00  0.00     0.071 A 
HETATM    5  C2  UNL     1      28.651   7.482  48.414  1.00  0.00     0.029 A 
HETATM    6  C1  UNL     1      29.089   6.517  47.658  1.00  0.00     0.030 C 
HETATM    7  C3  UNL     1      29.411   8.554  48.807  1.00  0.00     0.142 A 
HETATM    8  N2  UNL     1      28.823   9.487  49.571  1.00  0.00    -0.223 NA
HETATM    9  C8  UNL     1      27.536   9.365  49.933  1.00  0.00     0.236 A 
HETATM   10  N3  UNL     1      26.786   8.319  49.553  1.00  0.00    -0.241 NA
BRANCH   7  11
HETATM   11  N1  UNL     1      30.774   8.655  48.430  1.00  0.00    -0.346 N 
HETATM   12  C4  UNL     1      31.130   9.398  47.240  1.00  0.00     0.157 C 
BRANCH  11  13
HETATM   13  C5  UNL     1      31.907   8.089  49.125  1.00  0.00     0.090 C 
HETATM   14  C6  UNL     1      32.920   7.810  48.288  1.00  0.00     0.021 C 
BRANCH  14  15
HETATM   15  C7  UNL     1      34.280   7.223  48.523  1.00  0.00     0.251 C 
HETATM   16  F1  UNL     1      34.143   5.957  49.080  1.00  0.00    -0.251 F 
ENDBRANCH  14  15
ENDBRANCH  11  13
ENDBRANCH   7  11
ENDBRANCH   3   4
ENDBRANCH   1   3
BRANCH   2  17
HETATM   17  N4  UNL     1      25.056   3.857  50.929  1.00  0.00    -0.326 N 
HETATM   18  C13 UNL     1      24.163   3.547  51.990  1.00  0.00     0.300 C 
HETATM   19  O1  UNL     1      23.395   4.394  52.493  1.00  0.00    -0.258 OA
HETATM   20  H14 UNL     1      25.664   3.098  50.575  1.00  0.00     0.169 HD
BRANCH  18  21
HETATM   21  C14 UNL     1      24.090   2.230  52.547  1.00  0.00    -0.005 C 
HETATM   22  C15 UNL     1      24.030   1.094  53.006  1.00  0.00    -0.095 C 
BRANCH  22  23
HETATM   23  C16 UNL     1      23.967  -0.292  53.538  1.00  0.00     0.114 C 
BRANCH  23  24
HETATM   24  C17 UNL     1      25.230  -0.563  54.264  1.00  0.00     0.129 C 
BRANCH  24  25
HETATM   25  N5  UNL     1      26.447  -0.330  53.585  1.00  0.00    -0.412 N 
BRANCH  25  26
HETATM   26  C18 UNL     1      27.431   0.466  54.214  1.00  0.00     0.112 C 
HETATM   27  C19 UNL     1      27.576   1.869  53.740  1.00  0.00     0.026 C 
ENDBRANCH  25  26
BRANCH  25  28
HETATM   28  C20 UNL     1      26.928  -1.415  52.786  1.00  0.00     0.112 C 
HETATM   29  C21 UNL     1      28.396  -1.618  53.096  1.00  0.00     0.026 C 
ENDBRANCH  25  28
ENDBRANCH  24  25
ENDBRANCH  23  24
ENDBRANCH  22  23
ENDBRANCH  18  21
ENDBRANCH   2  17
TORSDOF 12
ENDMDL
MODEL 3
REMARK VINA RESULT:      -6.5      6.768     10.162
REMARK  12 active torsions:
REMARK  status: ('A' for Active; 'I' for Inactive)
REMARK    1  A    between atoms: C3_3  and  N1_4 
REMARK    2  A    between atoms: N1_4  and  C5_6 
REMARK    3  A    between atoms: C6_7  and  C7_8 
REMARK    4  A    between atoms: C9_13  and  C10_14 
REMARK    5  A    between atoms: C10_14  and  C11_15 
REMARK    6  A    between atoms: C12_16  and  N4_17 
REMARK       I    between atoms: N4_17  and  C13_18 
REMARK    7  A    between atoms: C13_18  and  C14_20 
REMARK    8  A    between atoms: C15_21  and  C16_22 
REMARK    9  A    between atoms: C16_22  and  C17_23 
REMARK   10  A    between atoms: C17_23  and  N5_24 
REMARK   11  A    between atoms: N5_24  and  C18_25 
REMARK   12  A    between atoms: N5_24  and  C20_27 
ROOT
HETATM    1  C11 UNL     1      20.550  -0.696  53.758  1.00  0.00     0.019 C 
HETATM    2  C12 UNL     1      19.576  -1.574  53.721  1.00  0.00     0.092 C 
ENDROOT
BRANCH   1   3
HETATM    3  C10 UNL     1      21.990  -0.899  53.790  1.00  0.00     0.034 C 
BRANCH   3   4
HETATM    4  C9  UNL     1      22.911  -0.180  53.196  1.00  0.00     0.071 A 
HETATM    5  C2  UNL     1      24.261  -0.067  53.475  1.00  0.00     0.029 A 
HETATM    6  C1  UNL     1      24.654  -0.802  54.475  1.00  0.00     0.030 C 
HETATM    7  C3  UNL     1      25.094   0.734  52.737  1.00  0.00     0.142 A 
HETATM    8  N2  UNL     1      24.556   1.421  51.718  1.00  0.00    -0.223 NA
HETATM    9  C8  UNL     1      23.246   1.320  51.440  1.00  0.00     0.236 A 
HETATM   10  N3  UNL     1      22.425   0.537  52.157  1.00  0.00    -0.241 NA
BRANCH   7  11
HETATM   11  N1  UNL     1      26.471   0.843  53.059  1.00  0.00    -0.346 N 
HETATM   12  C4  UNL     1      26.967   2.062  53.661  1.00  0.00     0.157 C 
BRANCH  11  13
HETATM   13  C5  UNL     1      27.487  -0.164  52.857  1.00  0.00     0.090 C 
HETATM   14  C6  UNL     1      28.546   0.025  53.661  1.00  0.00     0.021 C 
BRANCH  14  15
HETATM   15  C7  UNL     1      29.829  -0.735  53.823  1.00  0.00     0.251 C 
HETATM   16  F1  UNL     1      29.943  -1.665  52.797  1.00  0.00    -0.251 F 
ENDBRANCH  14  15
ENDBRANCH  11  13
ENDBRANCH   7  11
ENDBRANCH   3   4
ENDBRANCH   1   3
BRANCH   2  17
HETATM   17  N4  UNL     1      18.203  -1.160  53.694  1.00  0.00    -0.326 N 
HETATM   18  C13 UNL     1      17.439  -0.697  52.589  1.00  0.00     0.300 C 
HETATM   19  O1  UNL     1      17.915  -0.586  51.439  1.00  0.00    -0.258 OA
HETATM   20  H14 UNL     1      17.733  -1.216  54.613  1.00  0.00     0.169 HD
BRANCH  18  21
HETATM   21  C14 UNL     1      16.062  -0.331  52.731  1.00  0.00    -0.005 C 
HETATM   22  C15 UNL     1      14.878  -0.027  52.835  1.00  0.00    -0.095 C 
BRANCH  22  23
HETATM   23  C16 UNL     1      13.438   0.324  52.940  1.00  0.00     0.114 C 
BRANCH  23  24
HETATM   24  C17 UNL     1      13.336   1.645  53.603  1.00  0.00     0.129 C 
BRANCH  24  25
HETATM   25  N5  UNL     1      12.112   2.345  53.497  1.00  0.00    -0.412 N 
BRANCH  25  26
HETATM   26  C18 UNL     1      11.100   2.084  54.447  1.00  0.00     0.112 C 
HETATM   27  C19 UNL     1      11.531   1.814  55.845  1.00  0.00     0.026 C 
ENDBRANCH  25  26
BRANCH  25  28
HETATM   28  C20 UNL     1      12.208   3.694  53.029  1.00  0.00     0.112 C 
HETATM   29  C21 UNL     1      13.296   4.392  53.818  1.00  0.00     0.026 C 
ENDBRANCH  25  28
ENDBRANCH  24  25
ENDBRANCH  23  24
ENDBRANCH  22  23
ENDBRANCH  18  21
ENDBRANCH   2  17
TORSDOF 12
ENDMDL
MODEL 4
REMARK VINA RESULT:      -6.4      3.065      9.853
REMARK  12 active torsions:
REMARK  status: ('A' for Active; 'I' for Inactive)
REMARK    1  A    between atoms: C3_3  and  N1_4 
REMARK    2  A    between atoms: N1_4  and  C5_6 
REMARK    3  A    between atoms: C6_7  and  C7_8 
REMARK    4  A    between atoms: C9_13  and  C10_14 
REMARK    5  A    between atoms: C10_14  and  C11_15 
REMARK    6  A    between atoms: C12_16  and  N4_17 
REMARK       I    between atoms: N4_17  and  C13_18 
REMARK    7  A    between atoms: C13_18  and  C14_20 
REMARK    8  A    between atoms: C15_21  and  C16_22 
REMARK    9  A    between atoms: C16_22  and  C17_23 
REMARK   10  A    between atoms: C17_23  and  N5_24 
REMARK   11  A    between atoms: N5_24  and  C18_25 
REMARK   12  A    between atoms: N5_24  and  C20_27 
ROOT
HETATM    1  C11 UNL     1      26.240   4.719  49.353  1.00  0.00     0.019 C 
HETATM    2  C12 UNL     1      27.442   4.668  48.828  1.00  0.00     0.092 C 
ENDROOT
BRANCH   1   3
HETATM    3  C10 UNL     1      25.258   3.662  49.542  1.00  0.00     0.034 C 
BRANCH   3   4
HETATM    4  C9  UNL     1      24.818   3.176  50.677  1.00  0.00     0.071 A 
HETATM    5  C2  UNL     1      25.364   2.202  51.492  1.00  0.00     0.029 A 
HETATM    6  C1  UNL     1      26.489   1.716  51.050  1.00  0.00     0.030 C 
HETATM    7  C3  UNL     1      24.769   1.814  52.665  1.00  0.00     0.142 A 
HETATM    8  N2  UNL     1      23.621   2.416  53.009  1.00  0.00    -0.223 NA
HETATM    9  C8  UNL     1      23.081   3.362  52.224  1.00  0.00     0.236 A 
HETATM   10  N3  UNL     1      23.657   3.747  51.075  1.00  0.00    -0.241 NA
BRANCH   7  11
HETATM   11  N1  UNL     1      25.345   0.799  53.471  1.00  0.00    -0.346 N 
HETATM   12  C4  UNL     1      24.828  -0.551  53.391  1.00  0.00     0.157 C 
BRANCH  11  13
HETATM   13  C5  UNL     1      26.440   0.951  54.401  1.00  0.00     0.090 C 
HETATM   14  C6  UNL     1      27.478   0.159  54.086  1.00  0.00     0.021 C 
BRANCH  14  15
HETATM   15  C7  UNL     1      28.817  -0.041  54.731  1.00  0.00     0.251 C 
HETATM   16  F1  UNL     1      29.785  -0.179  53.744  1.00  0.00    -0.251 F 
ENDBRANCH  14  15
ENDBRANCH  11  13
ENDBRANCH   7  11
ENDBRANCH   3   4
ENDBRANCH   1   3
BRANCH   2  17
HETATM   17  N4  UNL     1      28.262   5.841  48.734  1.00  0.00    -0.326 N 
HETATM   18  C13 UNL     1      29.620   5.942  48.330  1.00  0.00     0.300 C 
HETATM   19  O1  UNL     1      30.300   4.948  47.996  1.00  0.00    -0.258 OA
HETATM   20  H14 UNL     1      27.774   6.713  49.001  1.00  0.00     0.169 HD
BRANCH  18  21
HETATM   21  C14 UNL     1      30.295   7.204  48.279  1.00  0.00    -0.005 C 
HETATM   22  C15 UNL     1      30.862   8.290  48.219  1.00  0.00    -0.095 C 
BRANCH  22  23
HETATM   23  C16 UNL     1      31.530   9.614  48.128  1.00  0.00     0.114 C 
BRANCH  23  24
HETATM   24  C17 UNL     1      30.598  10.636  48.658  1.00  0.00     0.129 C 
BRANCH  24  25
HETATM   25  N5  UNL     1      29.264  10.622  48.189  1.00  0.00    -0.412 N 
BRANCH  25  26
HETATM   26  C18 UNL     1      28.216  10.702  49.133  1.00  0.00     0.112 C 
HETATM   27  C19 UNL     1      27.521   9.436  49.489  1.00  0.00     0.026 C 
ENDBRANCH  25  26
BRANCH  25  28
HETATM   28  C20 UNL     1      29.040  11.277  46.937  1.00  0.00     0.112 C 
HETATM   29  C21 UNL     1      28.590  10.237  45.932  1.00  0.00     0.026 C 
ENDBRANCH  25  28
ENDBRANCH  24  25
ENDBRANCH  23  24
ENDBRANCH  22  23
ENDBRANCH  18  21
ENDBRANCH   2  17
TORSDOF 12
ENDMDL
MODEL 5
REMARK VINA RESULT:      -6.4      2.696      4.065
REMARK  12 active torsions:
REMARK  status: ('A' for Active; 'I' for Inactive)
REMARK    1  A    between atoms: C3_3  and  N1_4 
REMARK    2  A    between atoms: N1_4  and  C5_6 
REMARK    3  A    between atoms: C6_7  and  C7_8 
REMARK    4  A    between atoms: C9_13  and  C10_14 
REMARK    5  A    between atoms: C10_14  and  C11_15 
REMARK    6  A    between atoms: C12_16  and  N4_17 
REMARK       I    between atoms: N4_17  and  C13_18 
REMARK    7  A    between atoms: C13_18  and  C14_20 
REMARK    8  A    between atoms: C15_21  and  C16_22 
REMARK    9  A    between atoms: C16_22  and  C17_23 
REMARK   10  A    between atoms: C17_23  and  N5_24 
REMARK   11  A    between atoms: N5_24  and  C18_25 
REMARK   12  A    between atoms: N5_24  and  C20_27 
ROOT
HETATM    1  C11 UNL     1      28.626   5.593  48.375  1.00  0.00     0.019 C 
HETATM    2  C12 UNL     1      27.409   5.270  48.747  1.00  0.00     0.092 C 
ENDROOT
BRANCH   1   3
HETATM    3  C10 UNL     1      29.081   6.645  47.479  1.00  0.00     0.034 C 
BRANCH   3   4
HETATM    4  C9  UNL     1      29.978   7.569  47.724  1.00  0.00     0.071 A 
HETATM    5  C2  UNL     1      31.194   7.805  47.110  1.00  0.00     0.029 A 
HETATM    6  C1  UNL     1      31.464   6.977  46.142  1.00  0.00     0.030 C 
HETATM    7  C3  UNL     1      32.015   8.835  47.490  1.00  0.00     0.142 A 
HETATM    8  N2  UNL     1      31.601   9.625  48.492  1.00  0.00    -0.223 NA
HETATM    9  C8  UNL     1      30.422   9.404  49.096  1.00  0.00     0.236 A 
HETATM   10  N3  UNL     1      29.613   8.398  48.730  1.00  0.00    -0.241 NA
BRANCH   7  11
HETATM   11  N1  UNL     1      33.266   9.040  46.854  1.00  0.00    -0.346 N 
HETATM   12  C4  UNL     1      33.312   9.721  45.578  1.00  0.00     0.157 C 
BRANCH  11  13
HETATM   13  C5  UNL     1      34.563   8.640  47.349  1.00  0.00     0.090 C 
HETATM   14  C6  UNL     1      34.510   7.469  48.004  1.00  0.00     0.021 C 
BRANCH  14  15
HETATM   15  C7  UNL     1      35.568   6.654  48.687  1.00  0.00     0.251 C 
HETATM   16  F1  UNL     1      35.213   5.312  48.641  1.00  0.00    -0.251 F 
ENDBRANCH  14  15
ENDBRANCH  11  13
ENDBRANCH   7  11
ENDBRANCH   3   4
ENDBRANCH   1   3
BRANCH   2  17
HETATM   17  N4  UNL     1      27.172   4.184  49.651  1.00  0.00    -0.326 N 
HETATM   18  C13 UNL     1      25.963   3.474  49.885  1.00  0.00     0.300 C 
HETATM   19  O1  UNL     1      24.898   3.742  49.291  1.00  0.00    -0.258 OA
HETATM   20  H14 UNL     1      28.007   3.901  50.192  1.00  0.00     0.169 HD
BRANCH  18  21
HETATM   21  C14 UNL     1      25.898   2.395  50.825  1.00  0.00    -0.005 C 
HETATM   22  C15 UNL     1      25.852   1.482  51.643  1.00  0.00    -0.095 C 
BRANCH  22  23
HETATM   23  C16 UNL     1      25.805   0.394  52.653  1.00  0.00     0.114 C 
BRANCH  23  24
HETATM   24  C17 UNL     1      26.563   0.841  53.845  1.00  0.00     0.129 C 
BRANCH  24  25
HETATM   25  N5  UNL     1      27.823   0.248  54.088  1.00  0.00    -0.412 N 
BRANCH  25  26
HETATM   26  C18 UNL     1      28.216  -0.854  53.295  1.00  0.00     0.112 C 
HETATM   27  C19 UNL     1      29.646  -1.260  53.353  1.00  0.00     0.026 C 
ENDBRANCH  25  26
BRANCH  25  28
HETATM   28  C20 UNL     1      28.864   1.145  54.484  1.00  0.00     0.112 C 
HETATM   29  C21 UNL     1      28.736   2.412  53.663  1.00  0.00     0.026 C 
ENDBRANCH  25  28
ENDBRANCH  24  25
ENDBRANCH  23  24
ENDBRANCH  22  23
ENDBRANCH  18  21
ENDBRANCH   2  17
TORSDOF 12
ENDMDL
MODEL 6
REMARK VINA RESULT:      -6.3      2.114      2.880
REMARK  12 active torsions:
REMARK  status: ('A' for Active; 'I' for Inactive)
REMARK    1  A    between atoms: C3_3  and  N1_4 
REMARK    2  A    between atoms: N1_4  and  C5_6 
REMARK    3  A    between atoms: C6_7  and  C7_8 
REMARK    4  A    between atoms: C9_13  and  C10_14 
REMARK    5  A    between atoms: C10_14  and  C11_15 
REMARK    6  A    between atoms: C12_16  and  N4_17 
REMARK       I    between atoms: N4_17  and  C13_18 
REMARK    7  A    between atoms: C13_18  and  C14_20 
REMARK    8  A    between atoms: C15_21  and  C16_22 
REMARK    9  A    between atoms: C16_22  and  C17_23 
REMARK   10  A    between atoms: C17_23  and  N5_24 
REMARK   11  A    between atoms: N5_24  and  C18_25 
REMARK   12  A    between atoms: N5_24  and  C20_27 
ROOT
HETATM    1  C11 UNL     1      26.257   3.321  49.749  1.00  0.00     0.019 C 
HETATM    2  C12 UNL     1      26.446   2.783  50.931  1.00  0.00     0.092 C 
ENDROOT
BRANCH   1   3
HETATM    3  C10 UNL     1      27.146   4.141  48.942  1.00  0.00     0.034 C 
BRANCH   3   4
HETATM    4  C9  UNL     1      27.076   5.435  48.741  1.00  0.00     0.071 A 
HETATM    5  C2  UNL     1      28.068   6.328  48.380  1.00  0.00     0.029 A 
HETATM    6  C1  UNL     1      29.236   5.777  48.213  1.00  0.00     0.030 C 
HETATM    7  C3  UNL     1      27.816   7.664  48.200  1.00  0.00     0.142 A 
HETATM    8  N2  UNL     1      26.558   8.091  48.386  1.00  0.00    -0.223 NA
HETATM    9  C8  UNL     1      25.587   7.232  48.738  1.00  0.00     0.236 A 
HETATM   10  N3  UNL     1      25.826   5.924  48.916  1.00  0.00    -0.241 NA
BRANCH   7  11
HETATM   11  N1  UNL     1      28.858   8.559  47.848  1.00  0.00    -0.346 N 
HETATM   12  C4  UNL     1      29.072   8.890  46.455  1.00  0.00     0.157 C 
BRANCH  11  13
HETATM   13  C5  UNL     1      29.773   9.218  48.751  1.00  0.00     0.090 C 
HETATM   14  C6  UNL     1      29.897  10.526  48.472  1.00  0.00     0.021 C 
BRANCH  14  15
HETATM   15  C7  UNL     1      30.710  11.613  49.109  1.00  0.00     0.251 C 
HETATM   16  F1  UNL     1      30.487  12.807  48.434  1.00  0.00    -0.251 F 
ENDBRANCH  14  15
ENDBRANCH  11  13
ENDBRANCH   7  11
ENDBRANCH   3   4
ENDBRANCH   1   3
BRANCH   2  17
HETATM   17  N4  UNL     1      25.427   1.998  51.563  1.00  0.00    -0.326 N 
HETATM   18  C13 UNL     1      25.574   0.970  52.534  1.00  0.00     0.300 C 
HETATM   19  O1  UNL     1      26.688   0.608  52.968  1.00  0.00    -0.258 OA
HETATM   20  H14 UNL     1      24.468   2.232  51.253  1.00  0.00     0.169 HD
BRANCH  18  21
HETATM   21  C14 UNL     1      24.440   0.286  53.078  1.00  0.00    -0.005 C 
HETATM   22  C15 UNL     1      23.480  -0.308  53.559  1.00  0.00    -0.095 C 
BRANCH  22  23
HETATM   23  C16 UNL     1      22.333  -1.032  54.164  1.00  0.00     0.114 C 
BRANCH  23  24
HETATM   24  C17 UNL     1      21.159  -0.128  54.147  1.00  0.00     0.129 C 
BRANCH  24  25
HETATM   25  N5  UNL     1      20.257  -0.235  53.063  1.00  0.00    -0.412 N 
BRANCH  25  26
HETATM   26  C18 UNL     1      18.997  -0.832  53.290  1.00  0.00     0.112 C 
HETATM   27  C19 UNL     1      17.970  -0.682  52.224  1.00  0.00     0.026 C 
ENDBRANCH  25  26
BRANCH  25  28
HETATM   28  C20 UNL     1      20.286   0.843  52.123  1.00  0.00     0.112 C 
HETATM   29  C21 UNL     1      21.066   0.390  50.907  1.00  0.00     0.026 C 
ENDBRANCH  25  28
ENDBRANCH  24  25
ENDBRANCH  23  24
ENDBRANCH  22  23
ENDBRANCH  18  21
ENDBRANCH   2  17
TORSDOF 12
ENDMDL
MODEL 7
REMARK VINA RESULT:      -6.3      4.321     10.843
REMARK  12 active torsions:
REMARK  status: ('A' for Active; 'I' for Inactive)
REMARK    1  A    between atoms: C3_3  and  N1_4 
REMARK    2  A    between atoms: N1_4  and  C5_6 
REMARK    3  A    between atoms: C6_7  and  C7_8 
REMARK    4  A    between atoms: C9_13  and  C10_14 
REMARK    5  A    between atoms: C10_14  and  C11_15 
REMARK    6  A    between atoms: C12_16  and  N4_17 
REMARK       I    between atoms: N4_17  and  C13_18 
REMARK    7  A    between atoms: C13_18  and  C14_20 
REMARK    8  A    between atoms: C15_21  and  C16_22 
REMARK    9  A    between atoms: C16_22  and  C17_23 
REMARK   10  A    between atoms: C17_23  and  N5_24 
REMARK   11  A    between atoms: N5_24  and  C18_25 
REMARK   12  A    between atoms: N5_24  and  C20_27 
ROOT
HETATM    1  C11 UNL     1      27.477   4.588  48.844  1.00  0.00     0.019 C 
HETATM    2  C12 UNL     1      28.032   5.700  48.422  1.00  0.00     0.092 C 
ENDROOT
BRANCH   1   3
HETATM    3  C10 UNL     1      26.087   4.297  49.159  1.00  0.00     0.034 C 
BRANCH   3   4
HETATM    4  C9  UNL     1      25.629   3.387  49.983  1.00  0.00     0.071 A 
HETATM    5  C2  UNL     1      24.328   2.987  50.223  1.00  0.00     0.029 A 
HETATM    6  C1  UNL     1      23.443   3.617  49.505  1.00  0.00     0.030 C 
HETATM    7  C3  UNL     1      24.023   2.000  51.124  1.00  0.00     0.142 A 
HETATM    8  N2  UNL     1      25.039   1.420  51.781  1.00  0.00    -0.223 NA
HETATM    9  C8  UNL     1      26.307   1.801  51.556  1.00  0.00     0.236 A 
HETATM   10  N3  UNL     1      26.613   2.767  50.675  1.00  0.00    -0.241 NA
BRANCH   7  11
HETATM   11  N1  UNL     1      22.676   1.624  51.363  1.00  0.00    -0.346 N 
HETATM   12  C4  UNL     1      21.931   0.949  50.321  1.00  0.00     0.157 C 
BRANCH  11  13
HETATM   13  C5  UNL     1      21.922   1.835  52.577  1.00  0.00     0.090 C 
HETATM   14  C6  UNL     1      21.614   0.677  53.183  1.00  0.00     0.021 C 
BRANCH  14  15
HETATM   15  C7  UNL     1      20.858   0.375  54.443  1.00  0.00     0.251 C 
HETATM   16  F1  UNL     1      21.653  -0.401  55.278  1.00  0.00    -0.251 F 
ENDBRANCH  14  15
ENDBRANCH  11  13
ENDBRANCH   7  11
ENDBRANCH   3   4
ENDBRANCH   1   3
BRANCH   2  17
HETATM   17  N4  UNL     1      29.440   5.779  48.167  1.00  0.00    -0.326 N 
HETATM   18  C13 UNL     1      30.278   6.927  48.166  1.00  0.00     0.300 C 
HETATM   19  O1  UNL     1      29.846   8.076  48.396  1.00  0.00    -0.258 OA
HETATM   20  H14 UNL     1      29.878   4.865  47.959  1.00  0.00     0.169 HD
BRANCH  18  21
HETATM   21  C14 UNL     1      31.682   6.830  47.901  1.00  0.00    -0.005 C 
HETATM   22  C15 UNL     1      32.880   6.734  47.659  1.00  0.00    -0.095 C 
BRANCH  22  23
HETATM   23  C16 UNL     1      34.326   6.604  47.342  1.00  0.00     0.114 C 
BRANCH  23  24
HETATM   24  C17 UNL     1      34.727   5.200  47.595  1.00  0.00     0.129 C 
BRANCH  24  25
HETATM   25  N5  UNL     1      34.198   4.198  46.750  1.00  0.00    -0.412 N 
BRANCH  25  26
HETATM   26  C18 UNL     1      34.963   3.778  45.639  1.00  0.00     0.112 C 
HETATM   27  C19 UNL     1      34.732   4.479  44.348  1.00  0.00     0.026 C 
ENDBRANCH  25  26
BRANCH  25  28
HETATM   28  C20 UNL     1      33.416   3.190  47.398  1.00  0.00     0.112 C 
HETATM   29  C21 UNL     1      32.128   3.016  46.620  1.00  0.00     0.026 C 
ENDBRANCH  25  28
ENDBRANCH  24  25
ENDBRANCH  23  24
ENDBRANCH  22  23
ENDBRANCH  18  21
ENDBRANCH   2  17
TORSDOF 12
ENDMDL
MODEL 8
REMARK VINA RESULT:      -6.3      3.694     10.891
REMARK  12 active torsions:
REMARK  status: ('A' for Active; 'I' for Inactive)
REMARK    1  A    between atoms: C3_3  and  N1_4 
REMARK    2  A    between atoms: N1_4  and  C5_6 
REMARK    3  A    between atoms: C6_7  and  C7_8 
REMARK    4  A    between atoms: C9_13  and  C10_14 
REMARK    5  A    between atoms: C10_14  and  C11_15 
REMARK    6  A    between atoms: C12_16  and  N4_17 
REMARK       I    between atoms: N4_17  and  C13_18 
REMARK    7  A    between atoms: C13_18  and  C14_20 
REMARK    8  A    between atoms: C15_21  and  C16_22 
REMARK    9  A    between atoms: C16_22  and  C17_23 
REMARK   10  A    between atoms: C17_23  and  N5_24 
REMARK   11  A    between atoms: N5_24  and  C18_25 
REMARK   12  A    between atoms: N5_24  and  C20_27 
ROOT
HETATM    1  C11 UNL     1      23.433   2.912  49.078  1.00  0.00     0.019 C 
HETATM    2  C12 UNL     1      24.379   3.240  49.927  1.00  0.00     0.092 C 
ENDROOT
BRANCH   1   3
HETATM    3  C10 UNL     1      22.143   2.282  49.314  1.00  0.00     0.034 C 
BRANCH   3   4
HETATM    4  C9  UNL     1      21.431   2.310  50.415  1.00  0.00     0.071 A 
HETATM    5  C2  UNL     1      21.209   1.315  51.349  1.00  0.00     0.029 A 
HETATM    6  C1  UNL     1      21.816   0.195  51.079  1.00  0.00     0.030 C 
HETATM    7  C3  UNL     1      20.435   1.519  52.462  1.00  0.00     0.142 A 
HETATM    8  N2  UNL     1      19.886   2.733  52.625  1.00  0.00    -0.223 NA
HETATM    9  C8  UNL     1      20.094   3.706  51.723  1.00  0.00     0.236 A 
HETATM   10  N3  UNL     1      20.851   3.513  50.632  1.00  0.00    -0.241 NA
BRANCH   7  11
HETATM   11  N1  UNL     1      20.211   0.473  53.394  1.00  0.00    -0.346 N 
HETATM   12  C4  UNL     1      19.154  -0.484  53.148  1.00  0.00     0.157 C 
BRANCH  11  13
HETATM   13  C5  UNL     1      20.948   0.230  54.612  1.00  0.00     0.090 C 
HETATM   14  C6  UNL     1      21.871  -0.733  54.455  1.00  0.00     0.021 C 
BRANCH  14  15
HETATM   15  C7  UNL     1      22.864  -1.333  55.406  1.00  0.00     0.251 C 
HETATM   16  F1  UNL     1      24.143  -1.188  54.883  1.00  0.00    -0.251 F 
ENDBRANCH  14  15
ENDBRANCH  11  13
ENDBRANCH   7  11
ENDBRANCH   3   4
ENDBRANCH   1   3
BRANCH   2  17
HETATM   17  N4  UNL     1      25.592   3.861  49.483  1.00  0.00    -0.326 N 
HETATM   18  C13 UNL     1      25.796   5.198  49.048  1.00  0.00     0.300 C 
HETATM   19  O1  UNL     1      24.871   6.037  48.993  1.00  0.00    -0.258 OA
HETATM   20  H14 UNL     1      26.411   3.229  49.491  1.00  0.00     0.169 HD
BRANCH  18  21
HETATM   21  C14 UNL     1      27.087   5.667  48.645  1.00  0.00    -0.005 C 
HETATM   22  C15 UNL     1      28.185   6.079  48.284  1.00  0.00    -0.095 C 
BRANCH  22  23
HETATM   23  C16 UNL     1      29.502   6.594  47.830  1.00  0.00     0.114 C 
BRANCH  23  24
HETATM   24  C17 UNL     1      29.390   8.063  47.670  1.00  0.00     0.129 C 
BRANCH  24  25
HETATM   25  N5  UNL     1      29.314   8.853  48.840  1.00  0.00    -0.412 N 
BRANCH  25  26
HETATM   26  C18 UNL     1      30.508   9.388  49.372  1.00  0.00     0.112 C 
HETATM   27  C19 UNL     1      30.726  10.852  49.219  1.00  0.00     0.026 C 
ENDBRANCH  25  26
BRANCH  25  28
HETATM   28  C20 UNL     1      28.145   9.668  48.962  1.00  0.00     0.112 C 
HETATM   29  C21 UNL     1      27.394   9.237  50.204  1.00  0.00     0.026 C 
ENDBRANCH  25  28
ENDBRANCH  24  25
ENDBRANCH  23  24
ENDBRANCH  22  23
ENDBRANCH  18  21
ENDBRANCH   2  17
TORSDOF 12
ENDMDL
MODEL 9
REMARK VINA RESULT:      -6.3      3.656     10.057
REMARK  12 active torsions:
REMARK  status: ('A' for Active; 'I' for Inactive)
REMARK    1  A    between atoms: C3_3  and  N1_4 
REMARK    2  A    between atoms: N1_4  and  C5_6 
REMARK    3  A    between atoms: C6_7  and  C7_8 
REMARK    4  A    between atoms: C9_13  and  C10_14 
REMARK    5  A    between atoms: C10_14  and  C11_15 
REMARK    6  A    between atoms: C12_16  and  N4_17 
REMARK       I    between atoms: N4_17  and  C13_18 
REMARK    7  A    between atoms: C13_18  and  C14_20 
REMARK    8  A    between atoms: C15_21  and  C16_22 
REMARK    9  A    between atoms: C16_22  and  C17_23 
REMARK   10  A    between atoms: C17_23  and  N5_24 
REMARK   11  A    between atoms: N5_24  and  C18_25 
REMARK   12  A    between atoms: N5_24  and  C20_27 
ROOT
HETATM    1  C11 UNL     1      26.852   3.979  49.204  1.00  0.00     0.019 C 
HETATM    2  C12 UNL     1      27.199   5.183  48.812  1.00  0.00     0.092 C 
ENDROOT
BRANCH   1   3
HETATM    3  C10 UNL     1      25.562   3.477  49.648  1.00  0.00     0.034 C 
BRANCH   3   4
HETATM    4  C9  UNL     1      25.215   3.135  50.865  1.00  0.00     0.071 A 
HETATM    5  C2  UNL     1      25.656   2.084  51.648  1.00  0.00     0.029 A 
HETATM    6  C1  UNL     1      26.557   1.341  51.071  1.00  0.00     0.030 C 
HETATM    7  C3  UNL     1      25.188   1.875  52.919  1.00  0.00     0.142 A 
HETATM    8  N2  UNL     1      24.273   2.732  53.396  1.00  0.00    -0.223 NA
HETATM    9  C8  UNL     1      23.836   3.756  52.644  1.00  0.00     0.236 A 
HETATM   10  N3  UNL     1      24.290   3.967  51.398  1.00  0.00    -0.241 NA
BRANCH   7  11
HETATM   11  N1  UNL     1      25.647   0.776  53.691  1.00  0.00    -0.346 N 
HETATM   12  C4  UNL     1      24.862  -0.439  53.736  1.00  0.00     0.157 C 
BRANCH  11  13
HETATM   13  C5  UNL     1      26.863   0.715  54.469  1.00  0.00     0.090 C 
HETATM   14  C6  UNL     1      27.795  -0.052  53.881  1.00  0.00     0.021 C 
BRANCH  14  15
HETATM   15  C7  UNL     1      29.192  -0.420  54.288  1.00  0.00     0.251 C 
HETATM   16  F1  UNL     1      29.893  -0.856  53.170  1.00  0.00    -0.251 F 
ENDBRANCH  14  15
ENDBRANCH  11  13
ENDBRANCH   7  11
ENDBRANCH   3   4
ENDBRANCH   1   3
BRANCH   2  17
HETATM   17  N4  UNL     1      28.543   5.475  48.408  1.00  0.00    -0.326 N 
HETATM   18  C13 UNL     1      29.026   6.598  47.684  1.00  0.00     0.300 C 
HETATM   19  O1  UNL     1      28.278   7.516  47.285  1.00  0.00    -0.258 OA
HETATM   20  H14 UNL     1      29.230   4.757  48.695  1.00  0.00     0.169 HD
BRANCH  18  21
HETATM   21  C14 UNL     1      30.415   6.745  47.369  1.00  0.00    -0.005 C 
HETATM   22  C15 UNL     1      31.600   6.872  47.079  1.00  0.00    -0.095 C 
BRANCH  22  23
HETATM   23  C16 UNL     1      33.029   7.032  46.703  1.00  0.00     0.114 C 
BRANCH  23  24
HETATM   24  C17 UNL     1      33.725   5.756  46.990  1.00  0.00     0.129 C 
BRANCH  24  25
HETATM   25  N5  UNL     1      33.170   4.567  46.463  1.00  0.00    -0.412 N 
BRANCH  25  26
HETATM   26  C18 UNL     1      33.257   4.340  45.071  1.00  0.00     0.112 C 
HETATM   27  C19 UNL     1      34.581   4.550  44.428  1.00  0.00     0.026 C 
ENDBRANCH  25  26
BRANCH  25  28
HETATM   28  C20 UNL     1      33.272   3.411  47.300  1.00  0.00     0.112 C 
HETATM   29  C21 UNL     1      34.683   3.346  47.848  1.00  0.00     0.026 C 
ENDBRANCH  25  28
ENDBRANCH  24  25
ENDBRANCH  23  24
ENDBRANCH  22  23
ENDBRANCH  18  21
ENDBRANCH   2  17
TORSDOF 12
ENDMDL
