MODEL 1
REMARK VINA RESULT:      -7.7      0.000      0.000
REMARK  3 active torsions:
REMARK  status: ('A' for Active; 'I' for Inactive)
REMARK    1  A    between atoms: C11_13  and  C12_14 
REMARK    2  A    between atoms: C13_16  and  C14_17 
REMARK    3  A    between atoms: C15_19  and  N2_20 
ROOT
HETATM    1  C1  UNL     1      27.865  11.167  47.108  1.00  0.00     0.037 C 
HETATM    2  C2  UNL     1      29.050  10.661  47.891  1.00  0.00     0.082 C 
HETATM    3 BR1  UNL     1      29.793  12.191  48.834  1.00  0.00    -0.076 Br
HETATM    4  C3  UNL     1      30.055  10.174  46.911  1.00  0.00    -0.001 C 
HETATM    5  C4  UNL     1      31.169   9.454  47.133  1.00  0.00    -0.001 C 
HETATM    6  C5  UNL     1      31.687   8.956  48.425  1.00  0.00     0.017 C 
HETATM    7  C6  UNL     1      31.019   8.974  49.579  1.00  0.00     0.085 C 
HETATM    8  N1  UNL     1      29.699   9.445  49.896  1.00  0.00    -0.367 N 
HETATM    9  C7  UNL     1      28.704   9.627  48.892  1.00  0.00     0.168 C 
HETATM   10  C8  UNL     1      28.420   8.302  48.252  1.00  0.00     0.055 C 
HETATM   11  C9  UNL     1      27.320   7.516  48.063  1.00  0.00     0.015 C 
HETATM   12  C10 UNL     1      26.891   6.190  48.609  1.00  0.00     0.099 C 
HETATM   13  C11 UNL     1      25.741   6.297  49.548  1.00  0.00    -0.009 C 
HETATM   14  C15 UNL     1      25.411   7.300  50.355  1.00  0.00     0.018 C 
HETATM   15  C16 UNL     1      26.456   8.338  50.445  1.00  0.00     0.137 C 
HETATM   16  C17 UNL     1      26.285   9.489  49.542  1.00  0.00     0.131 C 
HETATM   17  N3  UNL     1      27.483  10.114  49.634  1.00  0.00    -0.236 NA
HETATM   18  N4  UNL     1      24.975   9.462  48.824  1.00  0.00    -0.229 NA
HETATM   19  C18 UNL     1      25.003   8.611  47.724  1.00  0.00     0.209 C 
HETATM   20  N5  UNL     1      26.142   7.806  47.191  1.00  0.00    -0.354 N 
HETATM   21  H8  UNL     1      29.625   9.614  50.939  1.00  0.00     0.161 HD
HETATM   22  H20 UNL     1      25.876   7.581  46.230  1.00  0.00     0.166 HD
ENDROOT
BRANCH  13  23
HETATM   23  C12 UNL     1      24.858   5.102  49.560  1.00  0.00     0.040 C 
HETATM   24 CL1  UNL     1      23.462   4.990  48.471  1.00  0.00    -0.084 Cl
HETATM   25  C13 UNL     1      24.927   4.005  50.298  1.00  0.00     0.012 C 
BRANCH  25  26
HETATM   26  C14 UNL     1      24.034   2.825  50.291  1.00  0.00     0.143 C 
HETATM   27 CL2  UNL     1      24.504   1.739  51.594  1.00  0.00    -0.126 Cl
ENDBRANCH  25  26
ENDBRANCH  13  23
BRANCH  14  28
HETATM   28  N2  UNL     1      24.342   7.513  51.270  1.00  0.00    -0.402 N 
HETATM   29  H15 UNL     1      24.332   8.546  51.115  1.00  0.00     0.156 HD
HETATM   30  H16 UNL     1      23.926   6.691  51.772  1.00  0.00     0.156 HD
ENDBRANCH  14  28
TORSDOF 3
ENDMDL
MODEL 2
REMARK VINA RESULT:      -7.4      6.856      8.821
REMARK  3 active torsions:
REMARK  status: ('A' for Active; 'I' for Inactive)
REMARK    1  A    between atoms: C11_13  and  C12_14 
REMARK    2  A    between atoms: C13_16  and  C14_17 
REMARK    3  A    between atoms: C15_19  and  N2_20 
ROOT
HETATM    1  C1  UNL     1      23.732   3.584  48.873  1.00  0.00     0.037 C 
HETATM    2  C2  UNL     1      24.248   3.559  50.290  1.00  0.00     0.082 C 
HETATM    3 BR1  UNL     1      24.923   5.343  50.672  1.00  0.00    -0.076 Br
HETATM    4  C3  UNL     1      25.384   2.603  50.334  1.00  0.00    -0.001 C 
HETATM    5  C4  UNL     1      26.021   2.097  51.405  1.00  0.00    -0.001 C 
HETATM    6  C5  UNL     1      25.750   2.366  52.833  1.00  0.00     0.017 C 
HETATM    7  C6  UNL     1      24.685   3.015  53.305  1.00  0.00     0.085 C 
HETATM    8  N1  UNL     1      23.566   3.606  52.625  1.00  0.00    -0.367 N 
HETATM    9  C7  UNL     1      23.211   3.235  51.296  1.00  0.00     0.168 C 
HETATM   10  C8  UNL     1      22.855   1.779  51.282  1.00  0.00     0.055 C 
HETATM   11  C9  UNL     1      21.769   1.034  50.920  1.00  0.00     0.015 C 
HETATM   12  C10 UNL     1      20.773   0.221  51.685  1.00  0.00     0.099 C 
HETATM   13  C11 UNL     1      19.419   0.838  51.709  1.00  0.00    -0.009 C 
HETATM   14  C15 UNL     1      19.084   2.123  51.664  1.00  0.00     0.018 C 
HETATM   15  C16 UNL     1      20.241   3.028  51.811  1.00  0.00     0.137 C 
HETATM   16  C17 UNL     1      20.832   3.512  50.552  1.00  0.00     0.131 C 
HETATM   17  N3  UNL     1      21.995   4.067  50.967  1.00  0.00    -0.236 NA
HETATM   18  N4  UNL     1      20.023   3.125  49.356  1.00  0.00    -0.229 NA
HETATM   19  C18 UNL     1      20.273   1.815  48.962  1.00  0.00     0.209 C 
HETATM   20  N5  UNL     1      21.234   0.830  49.541  1.00  0.00    -0.354 N 
HETATM   21  H8  UNL     1      23.099   4.312  53.262  1.00  0.00     0.161 HD
HETATM   22  H20 UNL     1      21.360   0.126  48.810  1.00  0.00     0.166 HD
ENDROOT
BRANCH  13  23
HETATM   23  C12 UNL     1      18.309  -0.147  51.791  1.00  0.00     0.040 C 
HETATM   24 CL1  UNL     1      17.234  -0.425  50.406  1.00  0.00    -0.084 Cl
HETATM   25  C13 UNL     1      17.940  -0.925  52.795  1.00  0.00     0.012 C 
BRANCH  25  26
HETATM   26  C14 UNL     1      16.828  -1.901  52.852  1.00  0.00     0.143 C 
HETATM   27 CL2  UNL     1      17.405  -3.388  53.597  1.00  0.00    -0.126 Cl
ENDBRANCH  25  26
ENDBRANCH  13  23
BRANCH  14  28
HETATM   28  N2  UNL     1      17.841   2.815  51.664  1.00  0.00    -0.402 N 
HETATM   29  H15 UNL     1      17.848   2.957  50.629  1.00  0.00     0.156 HD
HETATM   30  H16 UNL     1      17.340   2.967  52.574  1.00  0.00     0.156 HD
ENDBRANCH  14  28
TORSDOF 3
ENDMDL
MODEL 3
REMARK VINA RESULT:      -7.1      2.248      3.453
REMARK  3 active torsions:
REMARK  status: ('A' for Active; 'I' for Inactive)
REMARK    1  A    between atoms: C11_13  and  C12_14 
REMARK    2  A    between atoms: C13_16  and  C14_17 
REMARK    3  A    between atoms: C15_19  and  N2_20 
ROOT
HETATM    1  C1  UNL     1      24.125   8.719  47.308  1.00  0.00     0.037 C 
HETATM    2  C2  UNL     1      25.542   8.764  47.822  1.00  0.00     0.082 C 
HETATM    3 BR1  UNL     1      25.918  10.620  48.266  1.00  0.00    -0.076 Br
HETATM    4  C3  UNL     1      26.434   8.354  46.707  1.00  0.00    -0.001 C 
HETATM    5  C4  UNL     1      27.742   8.046  46.742  1.00  0.00    -0.001 C 
HETATM    6  C5  UNL     1      28.641   8.036  47.915  1.00  0.00     0.017 C 
HETATM    7  C6  UNL     1      28.250   8.145  49.185  1.00  0.00     0.085 C 
HETATM    8  N1  UNL     1      26.940   8.294  49.757  1.00  0.00    -0.367 N 
HETATM    9  C7  UNL     1      25.761   7.947  49.037  1.00  0.00     0.168 C 
HETATM   10  C8  UNL     1      25.803   6.482  48.725  1.00  0.00     0.055 C 
HETATM   11  C9  UNL     1      25.005   5.400  48.967  1.00  0.00     0.015 C 
HETATM   12  C10 UNL     1      25.151   4.179  49.820  1.00  0.00     0.099 C 
HETATM   13  C11 UNL     1      24.242   4.186  50.999  1.00  0.00    -0.009 C 
HETATM   14  C15 UNL     1      23.771   5.221  51.685  1.00  0.00     0.018 C 
HETATM   15  C16 UNL     1      24.416   6.499  51.322  1.00  0.00     0.137 C 
HETATM   16  C17 UNL     1      23.701   7.305  50.317  1.00  0.00     0.131 C 
HETATM   17  N3  UNL     1      24.622   8.240  49.984  1.00  0.00    -0.236 NA
HETATM   18  N4  UNL     1      22.356   6.745  49.986  1.00  0.00    -0.229 NA
HETATM   19  C18 UNL     1      22.439   5.697  49.076  1.00  0.00     0.209 C 
HETATM   20  N5  UNL     1      23.648   5.135  48.402  1.00  0.00    -0.354 N 
HETATM   21  H8  UNL     1      27.026   8.681  50.739  1.00  0.00     0.161 HD
HETATM   22  H20 UNL     1      23.284   4.621  47.597  1.00  0.00     0.166 HD
ENDROOT
BRANCH  13  23
HETATM   23  C12 UNL     1      23.819   2.832  51.442  1.00  0.00     0.040 C 
HETATM   24 CL1  UNL     1      22.712   1.856  50.457  1.00  0.00    -0.084 Cl
HETATM   25  C13 UNL     1      24.146   2.159  52.534  1.00  0.00     0.012 C 
BRANCH  25  26
HETATM   26  C14 UNL     1      23.710   0.807  52.954  1.00  0.00     0.143 C 
HETATM   27 CL2  UNL     1      25.110  -0.259  53.003  1.00  0.00    -0.126 Cl
ENDBRANCH  25  26
ENDBRANCH  13  23
BRANCH  14  28
HETATM   28  N2  UNL     1      22.898   5.344  52.802  1.00  0.00    -0.402 N 
HETATM   29  H15 UNL     1      22.729   4.315  52.863  1.00  0.00     0.156 HD
HETATM   30  H16 UNL     1      22.698   6.297  53.194  1.00  0.00     0.156 HD
ENDBRANCH  14  28
TORSDOF 3
ENDMDL
MODEL 4
REMARK VINA RESULT:      -7.1      3.806      5.788
REMARK  3 active torsions:
REMARK  status: ('A' for Active; 'I' for Inactive)
REMARK    1  A    between atoms: C11_13  and  C12_14 
REMARK    2  A    between atoms: C13_16  and  C14_17 
REMARK    3  A    between atoms: C15_19  and  N2_20 
ROOT
HETATM    1  C1  UNL     1      34.473   7.875  47.139  1.00  0.00     0.037 C 
HETATM    2  C2  UNL     1      34.082   6.447  47.429  1.00  0.00     0.082 C 
HETATM    3 BR1  UNL     1      35.326   5.787  48.771  1.00  0.00    -0.076 Br
HETATM    4  C3  UNL     1      34.277   5.669  46.178  1.00  0.00    -0.001 C 
HETATM    5  C4  UNL     1      33.874   4.419  45.891  1.00  0.00    -0.001 C 
HETATM    6  C5  UNL     1      33.122   3.486  46.756  1.00  0.00     0.017 C 
HETATM    7  C6  UNL     1      32.543   3.807  47.913  1.00  0.00     0.085 C 
HETATM    8  N1  UNL     1      32.477   5.058  48.617  1.00  0.00    -0.367 N 
HETATM    9  C7  UNL     1      32.710   6.303  47.964  1.00  0.00     0.168 C 
HETATM   10  C8  UNL     1      31.672   6.487  46.898  1.00  0.00     0.055 C 
HETATM   11  C9  UNL     1      30.725   7.423  46.598  1.00  0.00     0.015 C 
HETATM   12  C10 UNL     1      29.229   7.424  46.620  1.00  0.00     0.099 C 
HETATM   13  C11 UNL     1      28.667   8.275  47.704  1.00  0.00    -0.009 C 
HETATM   14  C15 UNL     1      29.184   8.563  48.894  1.00  0.00     0.018 C 
HETATM   15  C16 UNL     1      30.376   7.754  49.219  1.00  0.00     0.137 C 
HETATM   16  C17 UNL     1      31.671   8.382  48.908  1.00  0.00     0.131 C 
HETATM   17  N3  UNL     1      32.537   7.349  49.039  1.00  0.00    -0.236 NA
HETATM   18  N4  UNL     1      31.528   9.806  48.480  1.00  0.00    -0.229 NA
HETATM   19  C18 UNL     1      31.164   9.912  47.142  1.00  0.00     0.209 C 
HETATM   20  N5  UNL     1      30.956   8.826  46.139  1.00  0.00    -0.354 N 
HETATM   21  H8  UNL     1      32.240   4.878  49.634  1.00  0.00     0.161 HD
HETATM   22  H20 UNL     1      31.018   9.292  45.231  1.00  0.00     0.166 HD
ENDROOT
BRANCH  13  23
HETATM   23  C12 UNL     1      27.346   8.873  47.379  1.00  0.00     0.040 C 
HETATM   24 CL1  UNL     1      27.203  10.591  46.960  1.00  0.00    -0.084 Cl
HETATM   25  C13 UNL     1      26.149   8.311  47.340  1.00  0.00     0.012 C 
BRANCH  25  26
HETATM   26  C14 UNL     1      24.844   8.929  47.011  1.00  0.00     0.143 C 
HETATM   27 CL2  UNL     1      23.985   9.288  48.505  1.00  0.00    -0.126 Cl
ENDBRANCH  25  26
ENDBRANCH  13  23
BRANCH  14  28
HETATM   28  N2  UNL     1      28.749   9.365  49.986  1.00  0.00    -0.402 N 
HETATM   29  H15 UNL     1      28.360  10.110  49.366  1.00  0.00     0.156 HD
HETATM   30  H16 UNL     1      28.918   9.029  50.967  1.00  0.00     0.156 HD
ENDBRANCH  14  28
TORSDOF 3
ENDMDL
MODEL 5
REMARK VINA RESULT:      -7.1      3.915      7.454
REMARK  3 active torsions:
REMARK  status: ('A' for Active; 'I' for Inactive)
REMARK    1  A    between atoms: C11_13  and  C12_14 
REMARK    2  A    between atoms: C13_16  and  C14_17 
REMARK    3  A    between atoms: C15_19  and  N2_20 
ROOT
HETATM    1  C1  UNL     1      21.594   5.312  51.096  1.00  0.00     0.037 C 
HETATM    2  C2  UNL     1      21.550   4.397  49.898  1.00  0.00     0.082 C 
HETATM    3 BR1  UNL     1      19.760   4.539  49.151  1.00  0.00    -0.076 Br
HETATM    4  C3  UNL     1      21.749   3.009  50.390  1.00  0.00    -0.001 C 
HETATM    5  C4  UNL     1      21.991   1.891  49.684  1.00  0.00    -0.001 C 
HETATM    6  C5  UNL     1      22.122   1.752  48.218  1.00  0.00     0.017 C 
HETATM    7  C6  UNL     1      22.216   2.765  47.355  1.00  0.00     0.085 C 
HETATM    8  N1  UNL     1      22.219   4.186  47.569  1.00  0.00    -0.367 N 
HETATM    9  C7  UNL     1      22.520   4.756  48.839  1.00  0.00     0.168 C 
HETATM   10  C8  UNL     1      23.921   4.379  49.214  1.00  0.00     0.055 C 
HETATM   11  C9  UNL     1      25.066   5.047  49.542  1.00  0.00     0.015 C 
HETATM   12  C10 UNL     1      26.387   5.227  48.863  1.00  0.00     0.099 C 
HETATM   13  C11 UNL     1      26.597   6.614  48.365  1.00  0.00    -0.009 C 
HETATM   14  C15 UNL     1      25.696   7.497  47.947  1.00  0.00     0.018 C 
HETATM   15  C16 UNL     1      24.348   6.918  47.786  1.00  0.00     0.137 C 
HETATM   16  C17 UNL     1      23.445   7.085  48.937  1.00  0.00     0.131 C 
HETATM   17  N3  UNL     1      22.424   6.248  48.633  1.00  0.00    -0.236 NA
HETATM   18  N4  UNL     1      24.021   7.974  49.990  1.00  0.00    -0.229 NA
HETATM   19  C18 UNL     1      24.921   7.298  50.805  1.00  0.00     0.209 C 
HETATM   20  N5  UNL     1      25.318   5.858  50.771  1.00  0.00    -0.354 N 
HETATM   21  H8  UNL     1      21.972   4.679  46.664  1.00  0.00     0.161 HD
HETATM   22  H20 UNL     1      25.729   5.678  51.689  1.00  0.00     0.166 HD
ENDROOT
BRANCH  13  23
HETATM   23  C12 UNL     1      28.020   7.040  48.347  1.00  0.00     0.040 C 
HETATM   24 CL1  UNL     1      28.544   8.500  49.210  1.00  0.00    -0.084 Cl
HETATM   25  C13 UNL     1      29.064   6.482  47.755  1.00  0.00     0.012 C 
BRANCH  25  26
HETATM   26  C14 UNL     1      30.476   6.927  47.752  1.00  0.00     0.143 C 
HETATM   27 CL2  UNL     1      31.321   6.165  49.095  1.00  0.00    -0.126 Cl
ENDBRANCH  25  26
ENDBRANCH  13  23
BRANCH  14  28
HETATM   28  N2  UNL     1      25.780   8.836  47.471  1.00  0.00    -0.402 N 
HETATM   29  H15 UNL     1      25.105   8.667  46.692  1.00  0.00     0.156 HD
HETATM   30  H16 UNL     1      26.407   9.517  47.966  1.00  0.00     0.156 HD
ENDBRANCH  14  28
TORSDOF 3
ENDMDL
MODEL 6
REMARK VINA RESULT:      -7.0      2.826      4.291
REMARK  3 active torsions:
REMARK  status: ('A' for Active; 'I' for Inactive)
REMARK    1  A    between atoms: C11_13  and  C12_14 
REMARK    2  A    between atoms: C13_16  and  C14_17 
REMARK    3  A    between atoms: C15_19  and  N2_20 
ROOT
HETATM    1  C1  UNL     1      32.673   8.969  45.503  1.00  0.00     0.037 C 
HETATM    2  C2  UNL     1      33.213   7.983  46.508  1.00  0.00     0.082 C 
HETATM    3 BR1  UNL     1      34.878   8.728  47.184  1.00  0.00    -0.076 Br
HETATM    4  C3  UNL     1      33.520   6.726  45.777  1.00  0.00    -0.001 C 
HETATM    5  C4  UNL     1      33.822   5.514  46.273  1.00  0.00    -0.001 C 
HETATM    6  C5  UNL     1      33.930   5.115  47.692  1.00  0.00     0.017 C 
HETATM    7  C6  UNL     1      33.547   5.858  48.732  1.00  0.00     0.085 C 
HETATM    8  N1  UNL     1      32.961   7.168  48.786  1.00  0.00    -0.367 N 
HETATM    9  C7  UNL     1      32.313   7.750  47.659  1.00  0.00     0.168 C 
HETATM   10  C8  UNL     1      31.139   6.896  47.286  1.00  0.00     0.055 C 
HETATM   11  C9  UNL     1      29.794   7.080  47.142  1.00  0.00     0.015 C 
HETATM   12  C10 UNL     1      28.598   6.601  47.904  1.00  0.00     0.099 C 
HETATM   13  C11 UNL     1      27.920   7.689  48.660  1.00  0.00    -0.009 C 
HETATM   14  C15 UNL     1      28.443   8.789  49.191  1.00  0.00     0.018 C 
HETATM   15  C16 UNL     1      29.919   8.793  49.179  1.00  0.00     0.137 C 
HETATM   16  C17 UNL     1      30.542   9.485  48.038  1.00  0.00     0.131 C 
HETATM   17  N3  UNL     1      31.837   9.102  48.134  1.00  0.00    -0.236 NA
HETATM   18  N4  UNL     1      29.543  10.210  47.196  1.00  0.00    -0.229 NA
HETATM   19  C18 UNL     1      28.892   9.356  46.313  1.00  0.00     0.209 C 
HETATM   20  N5  UNL     1      29.100   7.893  46.098  1.00  0.00    -0.354 N 
HETATM   21  H8  UNL     1      33.098   7.576  49.754  1.00  0.00     0.161 HD
HETATM   22  H20 UNL     1      28.688   7.701  45.183  1.00  0.00     0.166 HD
ENDROOT
BRANCH  13  23
HETATM   23  C12 UNL     1      26.457   7.490  48.822  1.00  0.00     0.040 C 
HETATM   24 CL1  UNL     1      25.735   7.317  50.434  1.00  0.00    -0.084 Cl
HETATM   25  C13 UNL     1      25.506   7.412  47.905  1.00  0.00     0.012 C 
BRANCH  25  26
HETATM   26  C14 UNL     1      24.050   7.214  48.093  1.00  0.00     0.143 C 
HETATM   27 CL2  UNL     1      23.720   5.492  48.252  1.00  0.00    -0.126 Cl
ENDBRANCH  25  26
ENDBRANCH  13  23
BRANCH  14  28
HETATM   28  N2  UNL     1      27.896   9.888  49.911  1.00  0.00    -0.402 N 
HETATM   29  H15 UNL     1      28.118   9.471  50.842  1.00  0.00     0.156 HD
HETATM   30  H16 UNL     1      27.483  10.694  49.379  1.00  0.00     0.156 HD
ENDBRANCH  14  28
TORSDOF 3
ENDMDL
MODEL 7
REMARK VINA RESULT:      -6.7      8.514     11.198
REMARK  3 active torsions:
REMARK  status: ('A' for Active; 'I' for Inactive)
REMARK    1  A    between atoms: C11_13  and  C12_14 
REMARK    2  A    between atoms: C13_16  and  C14_17 
REMARK    3  A    between atoms: C15_19  and  N2_20 
ROOT
HETATM    1  C1  UNL     1      17.317   4.179  50.735  1.00  0.00     0.037 C 
HETATM    2  C2  UNL     1      17.004   2.744  50.394  1.00  0.00     0.082 C 
HETATM    3 BR1  UNL     1      16.039   2.769  48.705  1.00  0.00    -0.076 Br
HETATM    4  C3  UNL     1      16.097   2.223  51.449  1.00  0.00    -0.001 C 
HETATM    5  C4  UNL     1      15.717   0.955  51.685  1.00  0.00    -0.001 C 
HETATM    6  C5  UNL     1      16.110  -0.263  50.945  1.00  0.00     0.017 C 
HETATM    7  C6  UNL     1      17.075  -0.327  50.027  1.00  0.00     0.085 C 
HETATM    8  N1  UNL     1      17.957   0.686  49.516  1.00  0.00    -0.367 N 
HETATM    9  C7  UNL     1      18.204   1.896  50.225  1.00  0.00     0.168 C 
HETATM   10  C8  UNL     1      18.840   1.560  51.540  1.00  0.00     0.055 C 
HETATM   11  C9  UNL     1      19.997   1.887  52.187  1.00  0.00     0.015 C 
HETATM   12  C10 UNL     1      21.226   1.118  52.559  1.00  0.00     0.099 C 
HETATM   13  C11 UNL     1      22.421   1.520  51.768  1.00  0.00    -0.009 C 
HETATM   14  C15 UNL     1      22.483   1.989  50.526  1.00  0.00     0.018 C 
HETATM   15  C16 UNL     1      21.196   1.896  49.807  1.00  0.00     0.137 C 
HETATM   16  C17 UNL     1      20.364   3.111  49.837  1.00  0.00     0.131 C 
HETATM   17  N3  UNL     1      19.177   2.665  49.364  1.00  0.00    -0.236 NA
HETATM   18  N4  UNL     1      21.074   4.274  50.452  1.00  0.00    -0.229 NA
HETATM   19  C18 UNL     1      21.042   4.227  51.841  1.00  0.00     0.209 C 
HETATM   20  N5  UNL     1      20.381   3.225  52.730  1.00  0.00    -0.354 N 
HETATM   21  H8  UNL     1      18.351   0.373  48.583  1.00  0.00     0.161 HD
HETATM   22  H20 UNL     1      20.306   3.690  53.637  1.00  0.00     0.166 HD
ENDROOT
BRANCH  13  23
HETATM   23  C12 UNL     1      23.707   1.366  52.496  1.00  0.00     0.040 C 
HETATM   24 CL1  UNL     1      24.542   2.776  53.177  1.00  0.00    -0.084 Cl
HETATM   25  C13 UNL     1      24.407   0.274  52.756  1.00  0.00     0.012 C 
BRANCH  25  26
HETATM   26  C14 UNL     1      25.689   0.146  53.486  1.00  0.00     0.143 C 
HETATM   27 CL2  UNL     1      26.954  -0.315  52.352  1.00  0.00    -0.126 Cl
ENDBRANCH  25  26
ENDBRANCH  13  23
BRANCH  14  28
HETATM   28  N2  UNL     1      23.552   2.413  49.688  1.00  0.00    -0.402 N 
HETATM   29  H15 UNL     1      24.024   1.482  49.712  1.00  0.00     0.156 HD
HETATM   30  H16 UNL     1      23.562   3.401  49.332  1.00  0.00     0.156 HD
ENDBRANCH  14  28
TORSDOF 3
ENDMDL
MODEL 8
REMARK VINA RESULT:      -6.7      4.926      7.010
REMARK  3 active torsions:
REMARK  status: ('A' for Active; 'I' for Inactive)
REMARK    1  A    between atoms: C11_13  and  C12_14 
REMARK    2  A    between atoms: C13_16  and  C14_17 
REMARK    3  A    between atoms: C15_19  and  N2_20 
ROOT
HETATM    1  C1  UNL     1      21.440   5.457  47.646  1.00  0.00     0.037 C 
HETATM    2  C2  UNL     1      22.080   6.459  48.574  1.00  0.00     0.082 C 
HETATM    3 BR1  UNL     1      20.882   7.989  48.658  1.00  0.00    -0.076 Br
HETATM    4  C3  UNL     1      23.357   6.892  47.948  1.00  0.00    -0.001 C 
HETATM    5  C4  UNL     1      24.360   7.607  48.487  1.00  0.00    -0.001 C 
HETATM    6  C5  UNL     1      24.452   8.153  49.857  1.00  0.00     0.017 C 
HETATM    7  C6  UNL     1      23.626   7.856  50.861  1.00  0.00     0.085 C 
HETATM    8  N1  UNL     1      22.486   6.984  50.914  1.00  0.00    -0.367 N 
HETATM    9  C7  UNL     1      22.279   5.955  49.950  1.00  0.00     0.168 C 
HETATM   10  C8  UNL     1      23.420   4.986  50.031  1.00  0.00     0.055 C 
HETATM   11  C9  UNL     1      23.559   3.645  50.248  1.00  0.00     0.015 C 
HETATM   12  C10 UNL     1      24.131   2.834  51.368  1.00  0.00     0.099 C 
HETATM   13  C11 UNL     1      23.090   2.103  52.142  1.00  0.00    -0.009 C 
HETATM   14  C15 UNL     1      21.824   2.438  52.365  1.00  0.00     0.018 C 
HETATM   15  C16 UNL     1      21.507   3.816  51.939  1.00  0.00     0.137 C 
HETATM   16  C17 UNL     1      20.924   3.944  50.592  1.00  0.00     0.131 C 
HETATM   17  N3  UNL     1      20.996   5.277  50.368  1.00  0.00    -0.236 NA
HETATM   18  N4  UNL     1      20.603   2.619  49.980  1.00  0.00    -0.229 NA
HETATM   19  C18 UNL     1      21.727   2.016  49.428  1.00  0.00     0.209 C 
HETATM   20  N5  UNL     1      23.125   2.535  49.348  1.00  0.00    -0.354 N 
HETATM   21  H8  UNL     1      21.883   7.242  51.746  1.00  0.00     0.161 HD
HETATM   22  H20 UNL     1      23.569   1.977  48.616  1.00  0.00     0.166 HD
ENDROOT
BRANCH  13  23
HETATM   23  C12 UNL     1      23.564   0.824  52.732  1.00  0.00     0.040 C 
HETATM   24 CL1  UNL     1      22.560  -0.638  52.664  1.00  0.00    -0.084 Cl
HETATM   25  C13 UNL     1      24.699   0.548  53.354  1.00  0.00     0.012 C 
BRANCH  25  26
HETATM   26  C14 UNL     1      25.150  -0.738  53.934  1.00  0.00     0.143 C 
HETATM   27 CL2  UNL     1      26.452  -1.390  52.946  1.00  0.00    -0.126 Cl
ENDBRANCH  25  26
ENDBRANCH  13  23
BRANCH  14  28
HETATM   28  N2  UNL     1      20.752   1.818  53.066  1.00  0.00    -0.402 N 
HETATM   29  H15 UNL     1      21.288   0.937  53.234  1.00  0.00     0.156 HD
HETATM   30  H16 UNL     1      19.854   2.345  53.198  1.00  0.00     0.156 HD
ENDBRANCH  14  28
TORSDOF 3
ENDMDL
MODEL 9
REMARK VINA RESULT:      -6.2      7.304      9.664
REMARK  3 active torsions:
REMARK  status: ('A' for Active; 'I' for Inactive)
REMARK    1  A    between atoms: C11_13  and  C12_14 
REMARK    2  A    between atoms: C13_16  and  C14_17 
REMARK    3  A    between atoms: C15_19  and  N2_20 
ROOT
HETATM    1  C1  UNL     1      34.820   8.755  46.093  1.00  0.00     0.037 C 
HETATM    2  C2  UNL     1      33.785   7.923  46.807  1.00  0.00     0.082 C 
HETATM    3 BR1  UNL     1      32.580   9.166  47.693  1.00  0.00    -0.076 Br
HETATM    4  C3  UNL     1      34.492   7.128  47.845  1.00  0.00    -0.001 C 
HETATM    5  C4  UNL     1      34.030   6.103  48.582  1.00  0.00    -0.001 C 
HETATM    6  C5  UNL     1      32.682   5.497  48.551  1.00  0.00     0.017 C 
HETATM    7  C6  UNL     1      31.748   5.744  47.631  1.00  0.00     0.085 C 
HETATM    8  N1  UNL     1      31.764   6.608  46.483  1.00  0.00    -0.367 N 
HETATM    9  C7  UNL     1      32.982   7.069  45.904  1.00  0.00     0.168 C 
HETATM   10  C8  UNL     1      33.760   5.883  45.418  1.00  0.00     0.055 C 
HETATM   11  C9  UNL     1      34.287   5.473  44.226  1.00  0.00     0.015 C 
HETATM   12  C10 UNL     1      33.962   4.358  43.283  1.00  0.00     0.099 C 
HETATM   13  C11 UNL     1      33.358   4.835  42.009  1.00  0.00    -0.009 C 
HETATM   14  C15 UNL     1      32.604   5.907  41.792  1.00  0.00     0.018 C 
HETATM   15  C16 UNL     1      32.171   6.573  43.037  1.00  0.00     0.137 C 
HETATM   16  C17 UNL     1      33.010   7.700  43.477  1.00  0.00     0.131 C 
HETATM   17  N3  UNL     1      32.562   7.926  44.735  1.00  0.00    -0.236 NA
HETATM   18  N4  UNL     1      34.051   8.065  42.469  1.00  0.00    -0.229 NA
HETATM   19  C18 UNL     1      35.157   7.226  42.537  1.00  0.00     0.209 C 
HETATM   20  N5  UNL     1      35.419   6.096  43.478  1.00  0.00    -0.354 N 
HETATM   21  H8  UNL     1      30.770   6.813  46.182  1.00  0.00     0.161 HD
HETATM   22  H20 UNL     1      36.429   5.944  43.429  1.00  0.00     0.166 HD
ENDROOT
BRANCH  13  23
HETATM   23  C12 UNL     1      33.660   3.973  40.837  1.00  0.00     0.040 C 
HETATM   24 CL1  UNL     1      34.990   4.371  39.733  1.00  0.00    -0.084 Cl
HETATM   25  C13 UNL     1      33.068   2.862  40.429  1.00  0.00     0.012 C 
BRANCH  25  26
HETATM   26  C14 UNL     1      33.389   2.018  39.255  1.00  0.00     0.143 C 
HETATM   27 CL2  UNL     1      32.352   2.483  37.911  1.00  0.00    -0.126 Cl
ENDBRANCH  25  26
ENDBRANCH  13  23
BRANCH  14  28
HETATM   28  N2  UNL     1      31.994   6.461  40.631  1.00  0.00    -0.402 N 
HETATM   29  H15 UNL     1      32.625   7.293  40.620  1.00  0.00     0.156 HD
HETATM   30  H16 UNL     1      31.196   5.949  40.179  1.00  0.00     0.156 HD
ENDBRANCH  14  28
TORSDOF 3
ENDMDL
