MODEL 1
REMARK VINA RESULT:      -7.9      0.000      0.000
REMARK  5 active torsions:
REMARK  status: ('A' for Active; 'I' for Inactive)
REMARK    1  A    between atoms: C5_5  and  C6_6 
REMARK    2  A    between atoms: C7_7  and  N1_8 
REMARK    3  A    between atoms: C7_7  and  C8_9 
REMARK       I    between atoms: C8_9  and  N2_11 
REMARK    4  A    between atoms: N2_11  and  P1_12 
REMARK    5  A    between atoms: C14_18  and  O2_19 
ROOT
HETATM    1  C6  UNL     1      25.306   2.023  53.015  1.00  0.00     0.047 C 
HETATM    2  C7  UNL     1      24.898   2.948  52.192  1.00  0.00     0.095 C 
ENDROOT
BRANCH   2   3
HETATM    3  N1  UNL     1      23.711   3.644  52.661  1.00  0.00    -0.395 N 
HETATM    4  H7  UNL     1      23.046   4.272  52.172  1.00  0.00     0.156 HD
HETATM    5  H8  UNL     1      22.892   4.085  53.108  1.00  0.00     0.156 HD
ENDBRANCH   2   3
BRANCH   2   6
HETATM    6  C8  UNL     1      24.936   3.746  50.988  1.00  0.00     0.271 C 
HETATM    7  O1  UNL     1      24.171   4.105  50.036  1.00  0.00    -0.266 OA
HETATM    8  N2  UNL     1      26.033   4.450  50.485  1.00  0.00    -0.331 N 
HETATM    9  H9  UNL     1      26.982   4.496  50.910  1.00  0.00     0.167 HD
BRANCH   8  10
HETATM   10  P1  UNL     1      26.225   5.457  49.044  1.00  0.00    -0.015 P 
HETATM   11  C9  UNL     1      27.933   5.381  48.311  1.00  0.00     0.056 C 
HETATM   12  C10 UNL     1      28.408   6.839  48.327  1.00  0.00     0.006 C 
HETATM   13  C11 UNL     1      27.544   7.734  47.487  1.00  0.00     0.001 C 
HETATM   14  C12 UNL     1      26.153   7.943  48.003  1.00  0.00     0.006 C 
HETATM   15  C13 UNL     1      25.940   7.267  49.358  1.00  0.00     0.056 C 
ENDBRANCH   8  10
ENDBRANCH   2   6
BRANCH   1  16
HETATM   16  C5  UNL     1      26.372   1.047  53.099  1.00  0.00    -0.002 C 
HETATM   17  C4  UNL     1      26.388  -0.221  52.721  1.00  0.00     0.012 C 
HETATM   18  C3  UNL     1      27.365  -1.330  52.735  1.00  0.00     0.005 C 
HETATM   19  C2  UNL     1      28.467  -1.225  53.469  1.00  0.00    -0.060 C 
HETATM   20  C1  UNL     1      29.266  -2.444  53.313  1.00  0.00     0.045 C 
HETATM   21  C15 UNL     1      28.995  -0.172  54.352  1.00  0.00     0.205 C 
HETATM   22  O3  UNL     1      28.026   0.762  54.714  1.00  0.00    -0.353 OA
HETATM   23  C14 UNL     1      27.618   1.590  53.702  1.00  0.00     0.291 C 
BRANCH  23  24
HETATM   24  O2  UNL     1      27.446   2.897  54.155  1.00  0.00    -0.367 OA
HETATM   25  H21 UNL     1      28.155   3.180  54.792  1.00  0.00     0.213 HD
ENDBRANCH  23  24
ENDBRANCH   1  16
TORSDOF 5
ENDMDL
MODEL 2
REMARK VINA RESULT:      -7.6      2.610      3.564
REMARK  5 active torsions:
REMARK  status: ('A' for Active; 'I' for Inactive)
REMARK    1  A    between atoms: C5_5  and  C6_6 
REMARK    2  A    between atoms: C7_7  and  N1_8 
REMARK    3  A    between atoms: C7_7  and  C8_9 
REMARK       I    between atoms: C8_9  and  N2_11 
REMARK    4  A    between atoms: N2_11  and  P1_12 
REMARK    5  A    between atoms: C14_18  and  O2_19 
ROOT
HETATM    1  C6  UNL     1      25.803   1.288  53.030  1.00  0.00     0.047 C 
HETATM    2  C7  UNL     1      26.165   2.130  52.103  1.00  0.00     0.095 C 
ENDROOT
BRANCH   2   3
HETATM    3  N1  UNL     1      27.504   2.658  52.306  1.00  0.00    -0.395 N 
HETATM    4  H7  UNL     1      28.427   2.188  52.350  1.00  0.00     0.156 HD
HETATM    5  H8  UNL     1      28.400   3.148  52.457  1.00  0.00     0.156 HD
ENDBRANCH   2   3
BRANCH   2   6
HETATM    6  C8  UNL     1      25.999   2.912  50.899  1.00  0.00     0.271 C 
HETATM    7  O1  UNL     1      25.213   3.004  49.902  1.00  0.00    -0.266 OA
HETATM    8  N2  UNL     1      26.818   3.955  50.458  1.00  0.00    -0.331 N 
HETATM    9  H9  UNL     1      27.669   4.314  50.939  1.00  0.00     0.167 HD
BRANCH   8  10
HETATM   10  P1  UNL     1      26.739   4.989  49.027  1.00  0.00    -0.015 P 
HETATM   11  C9  UNL     1      28.407   5.378  48.302  1.00  0.00     0.056 C 
HETATM   12  C10 UNL     1      28.475   6.910  48.332  1.00  0.00     0.006 C 
HETATM   13  C11 UNL     1      27.406   7.549  47.495  1.00  0.00     0.001 C 
HETATM   14  C12 UNL     1      26.009   7.375  48.004  1.00  0.00     0.006 C 
HETATM   15  C13 UNL     1      25.979   6.654  49.353  1.00  0.00     0.056 C 
ENDBRANCH   8  10
ENDBRANCH   2   6
BRANCH   1  16
HETATM   16  C5  UNL     1      24.652   0.474  53.359  1.00  0.00    -0.002 C 
HETATM   17  C4  UNL     1      23.380   0.640  53.035  1.00  0.00     0.012 C 
HETATM   18  C3  UNL     1      22.109  -0.075  53.282  1.00  0.00     0.005 C 
HETATM   19  C2  UNL     1      22.058  -1.017  54.216  1.00  0.00    -0.060 C 
HETATM   20  C1  UNL     1      20.702  -1.570  54.265  1.00  0.00     0.045 C 
HETATM   21  C15 UNL     1      23.053  -1.568  55.150  1.00  0.00     0.205 C 
HETATM   22  O3  UNL     1      24.178  -0.756  55.279  1.00  0.00    -0.353 OA
HETATM   23  C14 UNL     1      24.992  -0.720  54.178  1.00  0.00     0.291 C 
BRANCH  23  24
HETATM   24  O2  UNL     1      26.337  -0.730  54.542  1.00  0.00    -0.367 OA
HETATM   25  H21 UNL     1      26.777  -1.605  54.368  1.00  0.00     0.213 HD
ENDBRANCH  23  24
ENDBRANCH   1  16
TORSDOF 5
ENDMDL
MODEL 3
REMARK VINA RESULT:      -7.5      3.964      5.555
REMARK  5 active torsions:
REMARK  status: ('A' for Active; 'I' for Inactive)
REMARK    1  A    between atoms: C5_5  and  C6_6 
REMARK    2  A    between atoms: C7_7  and  N1_8 
REMARK    3  A    between atoms: C7_7  and  C8_9 
REMARK       I    between atoms: C8_9  and  N2_11 
REMARK    4  A    between atoms: N2_11  and  P1_12 
REMARK    5  A    between atoms: C14_18  and  O2_19 
ROOT
HETATM    1  C6  UNL     1      25.661   2.358  53.174  1.00  0.00     0.047 C 
HETATM    2  C7  UNL     1      24.421   2.571  52.832  1.00  0.00     0.095 C 
ENDROOT
BRANCH   2   3
HETATM    3  N1  UNL     1      23.994   3.941  53.065  1.00  0.00    -0.395 N 
HETATM    4  H7  UNL     1      23.796   4.457  53.942  1.00  0.00     0.156 HD
HETATM    5  H8  UNL     1      23.693   4.927  53.104  1.00  0.00     0.156 HD
ENDBRANCH   2   3
BRANCH   2   6
HETATM    6  C8  UNL     1      23.118   2.211  52.322  1.00  0.00     0.271 C 
HETATM    7  O1  UNL     1      21.962   2.721  52.165  1.00  0.00    -0.266 OA
HETATM    8  N2  UNL     1      22.743   0.982  51.773  1.00  0.00    -0.331 N 
HETATM    9  H9  UNL     1      23.356   0.148  51.657  1.00  0.00     0.167 HD
BRANCH   8  10
HETATM   10  P1  UNL     1      21.207   0.405  51.116  1.00  0.00    -0.015 P 
HETATM   11  C9  UNL     1      20.652   1.339  49.606  1.00  0.00     0.056 C 
HETATM   12  C10 UNL     1      19.276   1.893  49.999  1.00  0.00     0.006 C 
HETATM   13  C11 UNL     1      18.286   0.807  50.307  1.00  0.00     0.001 C 
HETATM   14  C12 UNL     1      18.574   0.016  51.545  1.00  0.00     0.006 C 
HETATM   15  C13 UNL     1      19.784   0.562  52.303  1.00  0.00     0.056 C 
ENDBRANCH   8  10
ENDBRANCH   2   6
BRANCH   1  16
HETATM   16  C5  UNL     1      26.606   1.260  53.180  1.00  0.00    -0.002 C 
HETATM   17  C4  UNL     1      26.442   0.003  52.803  1.00  0.00     0.012 C 
HETATM   18  C3  UNL     1      27.277  -1.216  52.745  1.00  0.00     0.005 C 
HETATM   19  C2  UNL     1      28.435  -1.248  53.395  1.00  0.00    -0.060 C 
HETATM   20  C1  UNL     1      29.068  -2.553  53.182  1.00  0.00     0.045 C 
HETATM   21  C15 UNL     1      29.149  -0.273  54.235  1.00  0.00     0.205 C 
HETATM   22  O3  UNL     1      28.329   0.767  54.667  1.00  0.00    -0.353 OA
HETATM   23  C14 UNL     1      27.950   1.646  53.687  1.00  0.00     0.291 C 
BRANCH  23  24
HETATM   24  O2  UNL     1      27.969   2.960  54.150  1.00  0.00    -0.367 OA
HETATM   25  H21 UNL     1      27.331   3.549  53.664  1.00  0.00     0.213 HD
ENDBRANCH  23  24
ENDBRANCH   1  16
TORSDOF 5
ENDMDL
MODEL 4
REMARK VINA RESULT:      -7.5      3.851      6.202
REMARK  5 active torsions:
REMARK  status: ('A' for Active; 'I' for Inactive)
REMARK    1  A    between atoms: C5_5  and  C6_6 
REMARK    2  A    between atoms: C7_7  and  N1_8 
REMARK    3  A    between atoms: C7_7  and  C8_9 
REMARK       I    between atoms: C8_9  and  N2_11 
REMARK    4  A    between atoms: N2_11  and  P1_12 
REMARK    5  A    between atoms: C14_18  and  O2_19 
ROOT
HETATM    1  C6  UNL     1      25.684   2.617  52.840  1.00  0.00     0.047 C 
HETATM    2  C7  UNL     1      24.435   2.977  52.743  1.00  0.00     0.095 C 
ENDROOT
BRANCH   2   3
HETATM    3  N1  UNL     1      24.255   4.419  52.762  1.00  0.00    -0.395 N 
HETATM    4  H7  UNL     1      23.490   5.019  52.403  1.00  0.00     0.156 HD
HETATM    5  H8  UNL     1      24.240   5.448  52.837  1.00  0.00     0.156 HD
ENDBRANCH   2   3
BRANCH   2   6
HETATM    6  C8  UNL     1      23.011   2.763  52.623  1.00  0.00     0.271 C 
HETATM    7  O1  UNL     1      21.960   3.391  52.272  1.00  0.00    -0.266 OA
HETATM    8  N2  UNL     1      22.312   1.590  52.921  1.00  0.00    -0.331 N 
HETATM    9  H9  UNL     1      22.725   0.702  53.276  1.00  0.00     0.167 HD
BRANCH   8  10
HETATM   10  P1  UNL     1      20.594   1.187  52.825  1.00  0.00    -0.015 P 
HETATM   11  C9  UNL     1      20.041  -0.015  54.133  1.00  0.00     0.056 C 
HETATM   12  C10 UNL     1      19.469  -1.194  53.334  1.00  0.00     0.006 C 
HETATM   13  C11 UNL     1      18.293  -0.799  52.491  1.00  0.00     0.001 C 
HETATM   14  C12 UNL     1      18.607   0.117  51.348  1.00  0.00     0.006 C 
HETATM   15  C13 UNL     1      20.109   0.377  51.222  1.00  0.00     0.056 C 
ENDBRANCH   8  10
ENDBRANCH   2   6
BRANCH   1  16
HETATM   16  C5  UNL     1      26.455   1.391  52.874  1.00  0.00    -0.002 C 
HETATM   17  C4  UNL     1      26.135   0.180  52.449  1.00  0.00     0.012 C 
HETATM   18  C3  UNL     1      26.784  -1.147  52.409  1.00  0.00     0.005 C 
HETATM   19  C2  UNL     1      27.877  -1.365  53.132  1.00  0.00    -0.060 C 
HETATM   20  C1  UNL     1      28.325  -2.744  52.921  1.00  0.00     0.045 C 
HETATM   21  C15 UNL     1      28.666  -0.524  54.047  1.00  0.00     0.205 C 
HETATM   22  O3  UNL     1      27.980   0.617  54.455  1.00  0.00    -0.353 OA
HETATM   23  C14 UNL     1      27.802   1.563  53.480  1.00  0.00     0.291 C 
BRANCH  23  24
HETATM   24  O2  UNL     1      27.982   2.850  53.983  1.00  0.00    -0.367 OA
HETATM   25  H21 UNL     1      27.134   3.262  54.299  1.00  0.00     0.213 HD
ENDBRANCH  23  24
ENDBRANCH   1  16
TORSDOF 5
ENDMDL
MODEL 5
REMARK VINA RESULT:      -7.4      1.503      1.738
REMARK  5 active torsions:
REMARK  status: ('A' for Active; 'I' for Inactive)
REMARK    1  A    between atoms: C5_5  and  C6_6 
REMARK    2  A    between atoms: C7_7  and  N1_8 
REMARK    3  A    between atoms: C7_7  and  C8_9 
REMARK       I    between atoms: C8_9  and  N2_11 
REMARK    4  A    between atoms: N2_11  and  P1_12 
REMARK    5  A    between atoms: C14_18  and  O2_19 
ROOT
HETATM    1  C6  UNL     1      24.505   1.250  52.879  1.00  0.00     0.047 C 
HETATM    2  C7  UNL     1      23.919   2.168  52.162  1.00  0.00     0.095 C 
ENDROOT
BRANCH   2   3
HETATM    3  N1  UNL     1      22.495   2.279  52.432  1.00  0.00    -0.395 N 
HETATM    4  H7  UNL     1      21.710   2.609  51.842  1.00  0.00     0.156 HD
HETATM    5  H8  UNL     1      21.511   2.311  52.740  1.00  0.00     0.156 HD
ENDBRANCH   2   3
BRANCH   2   6
HETATM    6  C8  UNL     1      23.852   3.219  51.173  1.00  0.00     0.271 C 
HETATM    7  O1  UNL     1      23.382   3.429  50.009  1.00  0.00    -0.266 OA
HETATM    8  N2  UNL     1      24.390   4.504  51.280  1.00  0.00    -0.331 N 
HETATM    9  H9  UNL     1      24.920   4.884  52.093  1.00  0.00     0.167 HD
BRANCH   8  10
HETATM   10  P1  UNL     1      24.386   5.878  50.168  1.00  0.00    -0.015 P 
HETATM   11  C9  UNL     1      26.083   6.359  49.579  1.00  0.00     0.056 C 
HETATM   12  C10 UNL     1      26.223   7.825  50.009  1.00  0.00     0.006 C 
HETATM   13  C11 UNL     1      25.201   8.713  49.362  1.00  0.00     0.001 C 
HETATM   14  C12 UNL     1      23.788   8.482  49.801  1.00  0.00     0.006 C 
HETATM   15  C13 UNL     1      23.700   7.437  50.915  1.00  0.00     0.056 C 
ENDBRANCH   8  10
ENDBRANCH   2   6
BRANCH   1  16
HETATM   16  C5  UNL     1      25.833   0.699  53.053  1.00  0.00    -0.002 C 
HETATM   17  C4  UNL     1      26.309  -0.484  52.702  1.00  0.00     0.012 C 
HETATM   18  C3  UNL     1      27.604  -1.191  52.802  1.00  0.00     0.005 C 
HETATM   19  C2  UNL     1      28.549  -0.716  53.604  1.00  0.00    -0.060 C 
HETATM   20  C1  UNL     1      29.727  -1.585  53.526  1.00  0.00     0.045 C 
HETATM   21  C15 UNL     1      28.622   0.451  54.499  1.00  0.00     0.205 C 
HETATM   22  O3  UNL     1      27.370   0.994  54.778  1.00  0.00    -0.353 OA
HETATM   23  C14 UNL     1      26.772   1.635  53.725  1.00  0.00     0.291 C 
BRANCH  23  24
HETATM   24  O2  UNL     1      26.131   2.801  54.139  1.00  0.00    -0.367 OA
HETATM   25  H21 UNL     1      26.769   3.524  54.386  1.00  0.00     0.213 HD
ENDBRANCH  23  24
ENDBRANCH   1  16
TORSDOF 5
ENDMDL
MODEL 6
REMARK VINA RESULT:      -7.2      3.335      8.232
REMARK  5 active torsions:
REMARK  status: ('A' for Active; 'I' for Inactive)
REMARK    1  A    between atoms: C5_5  and  C6_6 
REMARK    2  A    between atoms: C7_7  and  N1_8 
REMARK    3  A    between atoms: C7_7  and  C8_9 
REMARK       I    between atoms: C8_9  and  N2_11 
REMARK    4  A    between atoms: N2_11  and  P1_12 
REMARK    5  A    between atoms: C14_18  and  O2_19 
ROOT
HETATM    1  C6  UNL     1      25.931   7.815  50.247  1.00  0.00     0.047 C 
HETATM    2  C7  UNL     1      25.284   6.731  50.572  1.00  0.00     0.095 C 
ENDROOT
BRANCH   2   3
HETATM    3  N1  UNL     1      24.392   6.920  51.704  1.00  0.00    -0.395 N 
HETATM    4  H7  UNL     1      23.953   6.239  52.352  1.00  0.00     0.156 HD
HETATM    5  H8  UNL     1      23.766   7.179  52.483  1.00  0.00     0.156 HD
ENDBRANCH   2   3
BRANCH   2   6
HETATM    6  C8  UNL     1      24.909   5.340  50.461  1.00  0.00     0.271 C 
HETATM    7  O1  UNL     1      24.677   4.465  49.566  1.00  0.00    -0.266 OA
HETATM    8  N2  UNL     1      24.666   4.452  51.512  1.00  0.00    -0.331 N 
HETATM    9  H9  UNL     1      24.720   4.672  52.528  1.00  0.00     0.167 HD
BRANCH   8  10
HETATM   10  P1  UNL     1      24.207   2.745  51.528  1.00  0.00    -0.015 P 
HETATM   11  C9  UNL     1      22.371   2.471  51.403  1.00  0.00     0.056 C 
HETATM   12  C10 UNL     1      22.029   1.675  52.669  1.00  0.00     0.006 C 
HETATM   13  C11 UNL     1      22.729   0.349  52.720  1.00  0.00     0.001 C 
HETATM   14  C12 UNL     1      24.215   0.419  52.892  1.00  0.00     0.006 C 
HETATM   15  C13 UNL     1      24.700   1.857  53.086  1.00  0.00     0.056 C 
ENDBRANCH   8  10
ENDBRANCH   2   6
BRANCH   1  16
HETATM   16  C5  UNL     1      26.906   8.236  49.262  1.00  0.00    -0.002 C 
HETATM   17  C4  UNL     1      27.097   7.805  48.026  1.00  0.00     0.012 C 
HETATM   18  C3  UNL     1      28.023   8.114  46.915  1.00  0.00     0.005 C 
HETATM   19  C2  UNL     1      29.112   8.836  47.150  1.00  0.00    -0.060 C 
HETATM   20  C1  UNL     1      29.856   9.004  45.899  1.00  0.00     0.045 C 
HETATM   21  C15 UNL     1      29.669   9.457  48.363  1.00  0.00     0.205 C 
HETATM   22  O3  UNL     1      29.105   8.952  49.533  1.00  0.00    -0.353 OA
HETATM   23  C14 UNL     1      27.803   9.317  49.749  1.00  0.00     0.291 C 
BRANCH  23  24
HETATM   24  O2  UNL     1      27.575   9.611  51.092  1.00  0.00    -0.367 OA
HETATM   25  H21 UNL     1      28.385   9.488  51.656  1.00  0.00     0.213 HD
ENDBRANCH  23  24
ENDBRANCH   1  16
TORSDOF 5
ENDMDL
MODEL 7
REMARK VINA RESULT:      -7.1      2.964      4.167
REMARK  5 active torsions:
REMARK  status: ('A' for Active; 'I' for Inactive)
REMARK    1  A    between atoms: C5_5  and  C6_6 
REMARK    2  A    between atoms: C7_7  and  N1_8 
REMARK    3  A    between atoms: C7_7  and  C8_9 
REMARK       I    between atoms: C8_9  and  N2_11 
REMARK    4  A    between atoms: N2_11  and  P1_12 
REMARK    5  A    between atoms: C14_18  and  O2_19 
ROOT
HETATM    1  C6  UNL     1      25.804   1.188  53.172  1.00  0.00     0.047 C 
HETATM    2  C7  UNL     1      26.292   2.070  52.345  1.00  0.00     0.095 C 
ENDROOT
BRANCH   2   3
HETATM    3  N1  UNL     1      27.668   2.431  52.645  1.00  0.00    -0.395 N 
HETATM    4  H7  UNL     1      28.404   2.870  52.061  1.00  0.00     0.156 HD
HETATM    5  H8  UNL     1      28.623   2.641  52.974  1.00  0.00     0.156 HD
ENDBRANCH   2   3
BRANCH   2   6
HETATM    6  C8  UNL     1      26.260   2.975  51.219  1.00  0.00     0.271 C 
HETATM    7  O1  UNL     1      26.846   3.160  50.104  1.00  0.00    -0.266 OA
HETATM    8  N2  UNL     1      25.416   4.077  51.054  1.00  0.00    -0.331 N 
HETATM    9  H9  UNL     1      24.690   4.401  51.726  1.00  0.00     0.167 HD
BRANCH   8  10
HETATM   10  P1  UNL     1      25.265   5.258  49.748  1.00  0.00    -0.015 P 
HETATM   11  C9  UNL     1      25.491   7.017  50.311  1.00  0.00     0.056 C 
HETATM   12  C10 UNL     1      24.180   7.705  49.910  1.00  0.00     0.006 C 
HETATM   13  C11 UNL     1      23.949   7.682  48.427  1.00  0.00     0.001 C 
HETATM   14  C12 UNL     1      23.681   6.328  47.846  1.00  0.00     0.006 C 
HETATM   15  C13 UNL     1      23.596   5.249  48.927  1.00  0.00     0.056 C 
ENDBRANCH   8  10
ENDBRANCH   2   6
BRANCH   1  16
HETATM   16  C5  UNL     1      24.561   0.474  53.379  1.00  0.00    -0.002 C 
HETATM   17  C4  UNL     1      23.334   0.788  52.999  1.00  0.00     0.012 C 
HETATM   18  C3  UNL     1      21.987   0.190  53.125  1.00  0.00     0.005 C 
HETATM   19  C2  UNL     1      21.788  -0.800  53.986  1.00  0.00    -0.060 C 
HETATM   20  C1  UNL     1      20.384  -1.217  53.922  1.00  0.00     0.045 C 
HETATM   21  C15 UNL     1      22.666  -1.508  54.932  1.00  0.00     0.205 C 
HETATM   22  O3  UNL     1      23.853  -0.823  55.179  1.00  0.00    -0.353 OA
HETATM   23  C14 UNL     1      24.733  -0.798  54.129  1.00  0.00     0.291 C 
BRANCH  23  24
HETATM   24  O2  UNL     1      26.047  -0.967  54.565  1.00  0.00    -0.367 OA
HETATM   25  H21 UNL     1      26.159  -1.764  55.148  1.00  0.00     0.213 HD
ENDBRANCH  23  24
ENDBRANCH   1  16
TORSDOF 5
ENDMDL
MODEL 8
REMARK VINA RESULT:      -7.0      4.724      7.203
REMARK  5 active torsions:
REMARK  status: ('A' for Active; 'I' for Inactive)
REMARK    1  A    between atoms: C5_5  and  C6_6 
REMARK    2  A    between atoms: C7_7  and  N1_8 
REMARK    3  A    between atoms: C7_7  and  C8_9 
REMARK       I    between atoms: C8_9  and  N2_11 
REMARK    4  A    between atoms: N2_11  and  P1_12 
REMARK    5  A    between atoms: C14_18  and  O2_19 
ROOT
HETATM    1  C6  UNL     1      27.486   6.036  48.256  1.00  0.00     0.047 C 
HETATM    2  C7  UNL     1      28.777   6.130  48.101  1.00  0.00     0.095 C 
ENDROOT
BRANCH   2   3
HETATM    3  N1  UNL     1      29.167   7.214  47.215  1.00  0.00    -0.395 N 
HETATM    4  H7  UNL     1      29.785   7.231  46.383  1.00  0.00     0.156 HD
HETATM    5  H8  UNL     1      29.371   8.059  46.659  1.00  0.00     0.156 HD
ENDBRANCH   2   3
BRANCH   2   6
HETATM    6  C8  UNL     1      30.157   5.752  48.308  1.00  0.00     0.271 C 
HETATM    7  O1  UNL     1      30.961   5.496  49.260  1.00  0.00    -0.266 OA
HETATM    8  N2  UNL     1      31.122   5.537  47.321  1.00  0.00    -0.331 N 
HETATM    9  H9  UNL     1      30.980   5.621  46.293  1.00  0.00     0.167 HD
BRANCH   8  10
HETATM   10  P1  UNL     1      32.826   5.076  47.422  1.00  0.00    -0.015 P 
HETATM   11  C9  UNL     1      33.791   5.470  45.881  1.00  0.00     0.056 C 
HETATM   12  C10 UNL     1      34.352   4.112  45.439  1.00  0.00     0.006 C 
HETATM   13  C11 UNL     1      35.269   3.509  46.462  1.00  0.00     0.001 C 
HETATM   14  C12 UNL     1      34.608   3.077  47.734  1.00  0.00     0.006 C 
HETATM   15  C13 UNL     1      33.090   3.253  47.677  1.00  0.00     0.056 C 
ENDBRANCH   8  10
ENDBRANCH   2   6
BRANCH   1  16
HETATM   16  C5  UNL     1      26.542   5.206  48.975  1.00  0.00    -0.002 C 
HETATM   17  C4  UNL     1      26.690   3.984  49.458  1.00  0.00     0.012 C 
HETATM   18  C3  UNL     1      25.852   3.015  50.197  1.00  0.00     0.005 C 
HETATM   19  C2  UNL     1      24.541   3.211  50.278  1.00  0.00    -0.060 C 
HETATM   20  C1  UNL     1      23.941   2.123  51.056  1.00  0.00     0.045 C 
HETATM   21  C15 UNL     1      23.642   4.255  49.762  1.00  0.00     0.205 C 
HETATM   22  O3  UNL     1      24.230   5.024  48.759  1.00  0.00    -0.353 OA
HETATM   23  C14 UNL     1      25.225   5.863  49.186  1.00  0.00     0.291 C 
BRANCH  23  24
HETATM   24  O2  UNL     1      25.156   7.098  48.544  1.00  0.00    -0.367 OA
HETATM   25  H21 UNL     1      25.986   7.636  48.651  1.00  0.00     0.213 HD
ENDBRANCH  23  24
ENDBRANCH   1  16
TORSDOF 5
ENDMDL
MODEL 9
REMARK VINA RESULT:      -7.0      5.870      7.701
REMARK  5 active torsions:
REMARK  status: ('A' for Active; 'I' for Inactive)
REMARK    1  A    between atoms: C5_5  and  C6_6 
REMARK    2  A    between atoms: C7_7  and  N1_8 
REMARK    3  A    between atoms: C7_7  and  C8_9 
REMARK       I    between atoms: C8_9  and  N2_11 
REMARK    4  A    between atoms: N2_11  and  P1_12 
REMARK    5  A    between atoms: C14_18  and  O2_19 
ROOT
HETATM    1  C6  UNL     1      31.715   7.986  49.195  1.00  0.00     0.047 C 
HETATM    2  C7  UNL     1      30.506   8.473  49.192  1.00  0.00     0.095 C 
ENDROOT
BRANCH   2   3
HETATM    3  N1  UNL     1      30.365   9.651  50.031  1.00  0.00    -0.395 N 
HETATM    4  H7  UNL     1      30.380   9.765  51.062  1.00  0.00     0.156 HD
HETATM    5  H8  UNL     1      30.253  10.554  50.518  1.00  0.00     0.156 HD
ENDBRANCH   2   3
BRANCH   2   6
HETATM    6  C8  UNL     1      29.111   8.528  48.817  1.00  0.00     0.271 C 
HETATM    7  O1  UNL     1      28.324   9.228  48.102  1.00  0.00    -0.266 OA
HETATM    8  N2  UNL     1      28.099   7.657  49.228  1.00  0.00    -0.331 N 
HETATM    9  H9  UNL     1      28.210   6.843  49.868  1.00  0.00     0.167 HD
BRANCH   8  10
HETATM   10  P1  UNL     1      26.372   7.600  48.856  1.00  0.00    -0.015 P 
HETATM   11  C9  UNL     1      25.333   8.629  50.005  1.00  0.00     0.056 C 
HETATM   12  C10 UNL     1      24.346   7.624  50.612  1.00  0.00     0.006 C 
HETATM   13  C11 UNL     1      23.464   6.988  49.577  1.00  0.00     0.001 C 
HETATM   14  C12 UNL     1      24.163   6.070  48.622  1.00  0.00     0.006 C 
HETATM   15  C13 UNL     1      25.640   5.894  48.978  1.00  0.00     0.056 C 
ENDBRANCH   8  10
ENDBRANCH   2   6
BRANCH   1  16
HETATM   16  C5  UNL     1      32.437   6.886  48.589  1.00  0.00    -0.002 C 
HETATM   17  C4  UNL     1      33.259   6.884  47.553  1.00  0.00     0.012 C 
HETATM   18  C3  UNL     1      34.058   5.878  46.822  1.00  0.00     0.005 C 
HETATM   19  C2  UNL     1      33.825   4.586  47.019  1.00  0.00    -0.060 C 
HETATM   20  C1  UNL     1      34.741   3.800  46.187  1.00  0.00     0.045 C 
HETATM   21  C15 UNL     1      32.874   3.849  47.867  1.00  0.00     0.205 C 
HETATM   22  O3  UNL     1      31.833   4.652  48.329  1.00  0.00    -0.353 OA
HETATM   23  C14 UNL     1      32.196   5.584  49.266  1.00  0.00     0.291 C 
BRANCH  23  24
HETATM   24  O2  UNL     1      31.236   5.693  50.270  1.00  0.00    -0.367 OA
HETATM   25  H21 UNL     1      30.917   6.626  50.398  1.00  0.00     0.213 HD
ENDBRANCH  23  24
ENDBRANCH   1  16
TORSDOF 5
ENDMDL
