MODEL 1
REMARK VINA RESULT:      -8.9      0.000      0.000
REMARK  2 active torsions:
REMARK  status: ('A' for Active; 'I' for Inactive)
REMARK    1  A    between atoms: O1_2  and  C2_3 
REMARK    2  A    between atoms: C8_9  and  N1_10 
ROOT
HETATM    1  C2  UNL     1      21.238   0.080  52.328  1.00  0.00     0.069 A 
HETATM    2  C3  UNL     1      21.213  -0.732  53.440  1.00  0.00     0.037 A 
HETATM    3  C4  UNL     1      22.405  -0.853  54.124  1.00  0.00     0.012 A 
HETATM    4  C5  UNL     1      23.546  -0.207  53.722  1.00  0.00    -0.025 A 
HETATM    5  C6  UNL     1      23.480   0.617  52.559  1.00  0.00     0.021 A 
HETATM    6  C7  UNL     1      22.333   0.769  51.848  1.00  0.00     0.052 A 
HETATM    7  C8  UNL     1      24.611   1.425  52.023  1.00  0.00     0.142 C 
HETATM    8  N2  UNL     1      25.598   0.670  52.020  1.00  0.00    -0.223 NA
HETATM    9  C15 UNL     1      26.930   0.611  51.714  1.00  0.00     0.236 C 
HETATM   10  N3  UNL     1      27.717   0.247  52.696  1.00  0.00    -0.233 NA
HETATM   11  C16 UNL     1      27.419  -0.095  54.017  1.00  0.00     0.255 C 
HETATM   12  N4  UNL     1      26.942  -0.430  55.203  1.00  0.00    -0.172 NA
HETATM   13  N5  UNL     1      25.513  -0.663  55.374  1.00  0.00    -0.309 N 
HETATM   14  C17 UNL     1      24.822  -0.260  54.262  1.00  0.00     0.181 C 
HETATM   15  H16 UNL     1      25.481  -1.081  56.332  1.00  0.00     0.182 HD
ENDROOT
BRANCH   7  16
HETATM   16  N1  UNL     1      24.435   2.814  51.638  1.00  0.00    -0.331 N 
HETATM   17  C9  UNL     1      25.571   3.008  50.754  1.00  0.00     0.117 A 
HETATM   18  C10 UNL     1      25.842   4.101  50.052  1.00  0.00     0.049 A 
HETATM   19 CL1  UNL     1      27.207   4.366  48.968  1.00  0.00    -0.083 Cl
HETATM   20  C11 UNL     1      24.985   5.277  50.149  1.00  0.00     0.023 A 
HETATM   21  C12 UNL     1      24.001   5.043  50.997  1.00  0.00    -0.000 A 
HETATM   22  C13 UNL     1      23.538   3.919  51.868  1.00  0.00     0.109 A 
HETATM   23  C14 UNL     1      23.698   4.496  53.291  1.00  0.00     0.037 C 
ENDBRANCH   7  16
BRANCH   1  24
HETATM   24  O1  UNL     1      20.037   0.197  51.646  1.00  0.00    -0.356 OA
HETATM   25  C1  UNL     1      18.825  -0.209  52.236  1.00  0.00     0.210 C 
ENDBRANCH   1  24
TORSDOF 2
ENDMDL
MODEL 2
REMARK VINA RESULT:      -8.8      1.729      2.127
REMARK  2 active torsions:
REMARK  status: ('A' for Active; 'I' for Inactive)
REMARK    1  A    between atoms: O1_2  and  C2_3 
REMARK    2  A    between atoms: C8_9  and  N1_10 
ROOT
HETATM    1  C2  UNL     1      21.320  -0.869  53.630  1.00  0.00     0.069 A 
HETATM    2  C3  UNL     1      21.622  -1.400  54.864  1.00  0.00     0.037 A 
HETATM    3  C4  UNL     1      22.931  -1.257  55.276  1.00  0.00     0.012 A 
HETATM    4  C5  UNL     1      23.875  -0.626  54.507  1.00  0.00    -0.025 A 
HETATM    5  C6  UNL     1      23.473  -0.104  53.241  1.00  0.00     0.021 A 
HETATM    6  C7  UNL     1      22.198  -0.219  52.787  1.00  0.00     0.052 A 
HETATM    7  C8  UNL     1      24.358   0.652  52.312  1.00  0.00     0.142 C 
HETATM    8  N2  UNL     1      25.417   0.004  52.248  1.00  0.00    -0.223 NA
HETATM    9  C15 UNL     1      26.658  -0.010  51.673  1.00  0.00     0.236 C 
HETATM   10  N3  UNL     1      27.664  -0.069  52.510  1.00  0.00    -0.233 NA
HETATM   11  C16 UNL     1      27.681  -0.119  53.905  1.00  0.00     0.255 C 
HETATM   12  N4  UNL     1      27.495  -0.210  55.211  1.00  0.00    -0.172 NA
HETATM   13  N5  UNL     1      26.172  -0.519  55.739  1.00  0.00    -0.309 N 
HETATM   14  C17 UNL     1      25.228  -0.444  54.749  1.00  0.00     0.181 C 
HETATM   15  H16 UNL     1      26.384  -0.704  56.745  1.00  0.00     0.182 HD
ENDROOT
BRANCH   7  16
HETATM   16  N1  UNL     1      23.927   1.894  51.695  1.00  0.00    -0.331 N 
HETATM   17  C9  UNL     1      23.975   2.804  52.825  1.00  0.00     0.117 A 
HETATM   18  C10 UNL     1      23.750   4.111  52.791  1.00  0.00     0.049 A 
HETATM   19 CL1  UNL     1      23.804   5.241  54.143  1.00  0.00    -0.083 Cl
HETATM   20  C11 UNL     1      23.379   4.769  51.544  1.00  0.00     0.023 A 
HETATM   21  C12 UNL     1      23.316   3.877  50.572  1.00  0.00    -0.000 A 
HETATM   22  C13 UNL     1      23.518   2.404  50.410  1.00  0.00     0.109 A 
HETATM   23  C14 UNL     1      22.111   1.903  50.019  1.00  0.00     0.037 C 
ENDBRANCH   7  16
BRANCH   1  24
HETATM   24  O1  UNL     1      20.003  -1.016  53.222  1.00  0.00    -0.356 OA
HETATM   25  C1  UNL     1      19.362  -0.016  52.467  1.00  0.00     0.210 C 
ENDBRANCH   1  24
TORSDOF 2
ENDMDL
MODEL 3
REMARK VINA RESULT:      -8.6      1.594      1.626
REMARK  2 active torsions:
REMARK  status: ('A' for Active; 'I' for Inactive)
REMARK    1  A    between atoms: O1_2  and  C2_3 
REMARK    2  A    between atoms: C8_9  and  N1_10 
ROOT
HETATM    1  C2  UNL     1      20.663  -0.609  53.159  1.00  0.00     0.069 A 
HETATM    2  C3  UNL     1      20.940  -1.432  54.227  1.00  0.00     0.037 A 
HETATM    3  C4  UNL     1      22.236  -1.390  54.698  1.00  0.00     0.012 A 
HETATM    4  C5  UNL     1      23.191  -0.580  54.139  1.00  0.00    -0.025 A 
HETATM    5  C6  UNL     1      22.815   0.242  53.035  1.00  0.00     0.021 A 
HETATM    6  C7  UNL     1      21.553   0.239  52.532  1.00  0.00     0.052 A 
HETATM    7  C8  UNL     1      23.714   1.213  52.352  1.00  0.00     0.142 C 
HETATM    8  N2  UNL     1      24.782   0.608  52.156  1.00  0.00    -0.223 NA
HETATM    9  C15 UNL     1      26.037   0.747  51.631  1.00  0.00     0.236 C 
HETATM   10  N3  UNL     1      27.022   0.485  52.454  1.00  0.00    -0.233 NA
HETATM   11  C16 UNL     1      27.004   0.085  53.791  1.00  0.00     0.255 C 
HETATM   12  N4  UNL     1      26.787  -0.334  55.026  1.00  0.00    -0.172 NA
HETATM   13  N5  UNL     1      25.454  -0.773  55.422  1.00  0.00    -0.309 N 
HETATM   14  C17 UNL     1      24.535  -0.457  54.457  1.00  0.00     0.181 C 
HETATM   15  H16 UNL     1      25.643  -1.205  56.355  1.00  0.00     0.182 HD
ENDROOT
BRANCH   7  16
HETATM   16  N1  UNL     1      23.283   2.568  52.056  1.00  0.00    -0.331 N 
HETATM   17  C9  UNL     1      23.255   2.546  50.604  1.00  0.00     0.117 A 
HETATM   18  C10 UNL     1      22.843   3.526  49.811  1.00  0.00     0.049 A 
HETATM   19 CL1  UNL     1      22.793   3.528  48.049  1.00  0.00    -0.083 Cl
HETATM   20  C11 UNL     1      22.393   4.795  50.371  1.00  0.00     0.023 A 
HETATM   21  C12 UNL     1      22.483   4.757  51.688  1.00  0.00    -0.000 A 
HETATM   22  C13 UNL     1      22.916   3.784  52.738  1.00  0.00     0.109 A 
HETATM   23  C14 UNL     1      24.143   4.477  53.368  1.00  0.00     0.037 C 
ENDBRANCH   7  16
BRANCH   1  24
HETATM   24  O1  UNL     1      19.359  -0.655  52.691  1.00  0.00    -0.356 OA
HETATM   25  C1  UNL     1      18.361  -1.360  53.391  1.00  0.00     0.210 C 
ENDBRANCH   1  24
TORSDOF 2
ENDMDL
MODEL 4
REMARK VINA RESULT:      -8.5      3.122      5.007
REMARK  2 active torsions:
REMARK  status: ('A' for Active; 'I' for Inactive)
REMARK    1  A    between atoms: O1_2  and  C2_3 
REMARK    2  A    between atoms: C8_9  and  N1_10 
ROOT
HETATM    1  C2  UNL     1      26.067   1.658  53.772  1.00  0.00     0.069 A 
HETATM    2  C3  UNL     1      25.752   0.395  54.220  1.00  0.00     0.037 A 
HETATM    3  C4  UNL     1      24.479  -0.048  53.925  1.00  0.00     0.012 A 
HETATM    4  C5  UNL     1      23.582   0.720  53.229  1.00  0.00    -0.025 A 
HETATM    5  C6  UNL     1      23.994   2.017  52.800  1.00  0.00     0.021 A 
HETATM    6  C7  UNL     1      25.234   2.502  53.066  1.00  0.00     0.052 A 
HETATM    7  C8  UNL     1      23.162   2.950  51.992  1.00  0.00     0.142 C 
HETATM    8  N2  UNL     1      22.040   2.957  52.527  1.00  0.00    -0.223 NA
HETATM    9  C15 UNL     1      20.786   3.495  52.433  1.00  0.00     0.236 C 
HETATM   10  N3  UNL     1      19.807   2.627  52.353  1.00  0.00    -0.233 NA
HETATM   11  C16 UNL     1      19.831   1.232  52.348  1.00  0.00     0.255 C 
HETATM   12  N4  UNL     1      20.049  -0.071  52.408  1.00  0.00    -0.172 NA
HETATM   13  N5  UNL     1      21.350  -0.573  52.833  1.00  0.00    -0.309 N 
HETATM   14  C17 UNL     1      22.264   0.446  52.897  1.00  0.00     0.181 C 
HETATM   15  H16 UNL     1      21.153  -1.592  52.956  1.00  0.00     0.182 HD
ENDROOT
BRANCH   7  16
HETATM   16  N1  UNL     1      23.698   3.631  50.827  1.00  0.00    -0.331 N 
HETATM   17  C9  UNL     1      23.615   5.019  51.246  1.00  0.00     0.117 A 
HETATM   18  C10 UNL     1      24.060   6.071  50.571  1.00  0.00     0.049 A 
HETATM   19 CL1  UNL     1      23.978   7.764  51.055  1.00  0.00    -0.083 Cl
HETATM   20  C11 UNL     1      24.672   5.907  49.258  1.00  0.00     0.023 A 
HETATM   21  C12 UNL     1      24.678   4.629  48.926  1.00  0.00    -0.000 A 
HETATM   22  C13 UNL     1      24.232   3.331  49.521  1.00  0.00     0.109 A 
HETATM   23  C14 UNL     1      23.129   2.864  48.548  1.00  0.00     0.037 C 
ENDBRANCH   7  16
BRANCH   1  24
HETATM   24  O1  UNL     1      27.347   2.097  54.072  1.00  0.00    -0.356 OA
HETATM   25  C1  UNL     1      28.469   1.574  53.401  1.00  0.00     0.210 C 
ENDBRANCH   1  24
TORSDOF 2
ENDMDL
MODEL 5
REMARK VINA RESULT:      -8.1      3.559      6.361
REMARK  2 active torsions:
REMARK  status: ('A' for Active; 'I' for Inactive)
REMARK    1  A    between atoms: O1_2  and  C2_3 
REMARK    2  A    between atoms: C8_9  and  N1_10 
ROOT
HETATM    1  C2  UNL     1      26.433  -0.081  53.490  1.00  0.00     0.069 A 
HETATM    2  C3  UNL     1      27.089   1.100  53.754  1.00  0.00     0.037 A 
HETATM    3  C4  UNL     1      26.357   2.252  53.556  1.00  0.00     0.012 A 
HETATM    4  C5  UNL     1      25.056   2.226  53.124  1.00  0.00    -0.025 A 
HETATM    5  C6  UNL     1      24.454   0.956  52.877  1.00  0.00     0.021 A 
HETATM    6  C7  UNL     1      25.130  -0.208  53.054  1.00  0.00     0.052 A 
HETATM    7  C8  UNL     1      23.039   0.752  52.457  1.00  0.00     0.142 C 
HETATM    8  N2  UNL     1      22.837   1.565  51.538  1.00  0.00    -0.223 NA
HETATM    9  C15 UNL     1      21.885   2.012  50.664  1.00  0.00     0.236 C 
HETATM   10  N3  UNL     1      21.636   3.298  50.713  1.00  0.00    -0.233 NA
HETATM   11  C16 UNL     1      22.186   4.297  51.519  1.00  0.00     0.255 C 
HETATM   12  N4  UNL     1      22.852   5.104  52.327  1.00  0.00    -0.172 NA
HETATM   13  N5  UNL     1      24.063   4.635  52.989  1.00  0.00    -0.309 N 
HETATM   14  C17 UNL     1      24.206   3.281  52.831  1.00  0.00     0.181 C 
HETATM   15  H16 UNL     1      24.444   5.523  53.386  1.00  0.00     0.182 HD
ENDROOT
BRANCH   7  16
HETATM   16  N1  UNL     1      22.190  -0.233  53.102  1.00  0.00    -0.331 N 
HETATM   17  C9  UNL     1      20.873   0.203  52.672  1.00  0.00     0.117 A 
HETATM   18  C10 UNL     1      19.723  -0.411  52.918  1.00  0.00     0.049 A 
HETATM   19 CL1  UNL     1      18.112   0.089  52.406  1.00  0.00    -0.083 Cl
HETATM   20  C11 UNL     1      19.688  -1.628  53.722  1.00  0.00     0.023 A 
HETATM   21  C12 UNL     1      20.911  -1.940  54.110  1.00  0.00    -0.000 A 
HETATM   22  C13 UNL     1      22.293  -1.393  53.953  1.00  0.00     0.109 A 
HETATM   23  C14 UNL     1      22.680  -1.008  55.397  1.00  0.00     0.037 C 
ENDBRANCH   7  16
BRANCH   1  24
HETATM   24  O1  UNL     1      27.174  -1.235  53.692  1.00  0.00    -0.356 OA
HETATM   25  C1  UNL     1      28.540  -1.288  53.355  1.00  0.00     0.210 C 
ENDBRANCH   1  24
TORSDOF 2
ENDMDL
MODEL 6
REMARK VINA RESULT:      -7.9      3.695      6.269
REMARK  2 active torsions:
REMARK  status: ('A' for Active; 'I' for Inactive)
REMARK    1  A    between atoms: O1_2  and  C2_3 
REMARK    2  A    between atoms: C8_9  and  N1_10 
ROOT
HETATM    1  C2  UNL     1      25.469   0.088  53.478  1.00  0.00     0.069 A 
HETATM    2  C3  UNL     1      26.215   1.192  53.827  1.00  0.00     0.037 A 
HETATM    3  C4  UNL     1      25.631   2.416  53.574  1.00  0.00     0.012 A 
HETATM    4  C5  UNL     1      24.386   2.529  53.011  1.00  0.00    -0.025 A 
HETATM    5  C6  UNL     1      23.683   1.332  52.684  1.00  0.00     0.021 A 
HETATM    6  C7  UNL     1      24.212   0.101  52.909  1.00  0.00     0.052 A 
HETATM    7  C8  UNL     1      22.306   1.280  52.118  1.00  0.00     0.142 C 
HETATM    8  N2  UNL     1      22.285   2.115  51.197  1.00  0.00    -0.223 NA
HETATM    9  C15 UNL     1      21.480   2.665  50.238  1.00  0.00     0.236 C 
HETATM   10  N3  UNL     1      21.363   3.969  50.283  1.00  0.00    -0.233 NA
HETATM   11  C16 UNL     1      21.927   4.900  51.157  1.00  0.00     0.255 C 
HETATM   12  N4  UNL     1      22.588   5.628  52.041  1.00  0.00    -0.172 NA
HETATM   13  N5  UNL     1      23.668   5.030  52.816  1.00  0.00    -0.309 N 
HETATM   14  C17 UNL     1      23.685   3.670  52.651  1.00  0.00     0.181 C 
HETATM   15  H16 UNL     1      24.097   5.871  53.264  1.00  0.00     0.182 HD
ENDROOT
BRANCH   7  16
HETATM   16  N1  UNL     1      21.296   0.386  52.657  1.00  0.00    -0.331 N 
HETATM   17  C9  UNL     1      20.095   0.901  52.025  1.00  0.00     0.117 A 
HETATM   18  C10 UNL     1      18.877   0.384  52.115  1.00  0.00     0.049 A 
HETATM   19 CL1  UNL     1      17.402   0.982  51.357  1.00  0.00    -0.083 Cl
HETATM   20  C11 UNL     1      18.629  -0.794  52.938  1.00  0.00     0.023 A 
HETATM   21  C12 UNL     1      19.753  -1.181  53.511  1.00  0.00    -0.000 A 
HETATM   22  C13 UNL     1      21.183  -0.745  53.545  1.00  0.00     0.109 A 
HETATM   23  C14 UNL     1      21.385  -0.334  55.019  1.00  0.00     0.037 C 
ENDBRANCH   7  16
BRANCH   1  24
HETATM   24  O1  UNL     1      26.062  -1.139  53.735  1.00  0.00    -0.356 OA
HETATM   25  C1  UNL     1      26.941  -1.729  52.807  1.00  0.00     0.210 C 
ENDBRANCH   1  24
TORSDOF 2
ENDMDL
MODEL 7
REMARK VINA RESULT:      -7.6      2.251      2.984
REMARK  2 active torsions:
REMARK  status: ('A' for Active; 'I' for Inactive)
REMARK    1  A    between atoms: O1_2  and  C2_3 
REMARK    2  A    between atoms: C8_9  and  N1_10 
ROOT
HETATM    1  C2  UNL     1      21.123   2.037  48.843  1.00  0.00     0.069 A 
HETATM    2  C3  UNL     1      20.408   0.987  49.376  1.00  0.00     0.037 A 
HETATM    3  C4  UNL     1      20.920   0.435  50.531  1.00  0.00     0.012 A 
HETATM    4  C5  UNL     1      22.071   0.900  51.115  1.00  0.00    -0.025 A 
HETATM    5  C6  UNL     1      22.746   1.993  50.496  1.00  0.00     0.021 A 
HETATM    6  C7  UNL     1      22.286   2.573  49.357  1.00  0.00     0.052 A 
HETATM    7  C8  UNL     1      23.973   2.648  51.030  1.00  0.00     0.142 C 
HETATM    8  N2  UNL     1      24.744   1.724  51.342  1.00  0.00    -0.223 NA
HETATM    9  C15 UNL     1      25.979   1.460  51.867  1.00  0.00     0.236 C 
HETATM   10  N3  UNL     1      25.986   0.689  52.926  1.00  0.00    -0.233 NA
HETATM   11  C16 UNL     1      24.933   0.085  53.615  1.00  0.00     0.255 C 
HETATM   12  N4  UNL     1      23.821  -0.438  54.103  1.00  0.00    -0.172 NA
HETATM   13  N5  UNL     1      22.590  -0.391  53.322  1.00  0.00    -0.309 N 
HETATM   14  C17 UNL     1      22.739   0.430  52.235  1.00  0.00     0.181 C 
HETATM   15  H16 UNL     1      21.969  -1.028  53.870  1.00  0.00     0.182 HD
ENDROOT
BRANCH   7  16
HETATM   16  N1  UNL     1      24.086   4.093  51.116  1.00  0.00    -0.331 N 
HETATM   17  C9  UNL     1      25.193   4.346  50.211  1.00  0.00     0.117 A 
HETATM   18  C10 UNL     1      25.661   5.535  49.855  1.00  0.00     0.049 A 
HETATM   19 CL1  UNL     1      26.998   5.873  48.757  1.00  0.00    -0.083 Cl
HETATM   20  C11 UNL     1      25.087   6.755  50.410  1.00  0.00     0.023 A 
HETATM   21  C12 UNL     1      24.117   6.449  51.251  1.00  0.00    -0.000 A 
HETATM   22  C13 UNL     1      23.463   5.212  51.779  1.00  0.00     0.109 A 
HETATM   23  C14 UNL     1      23.813   5.250  53.283  1.00  0.00     0.037 C 
ENDBRANCH   7  16
BRANCH   1  24
HETATM   24  O1  UNL     1      20.602   2.587  47.682  1.00  0.00    -0.356 OA
HETATM   25  C1  UNL     1      21.312   3.566  46.961  1.00  0.00     0.210 C 
ENDBRANCH   1  24
TORSDOF 2
ENDMDL
MODEL 8
REMARK VINA RESULT:      -7.5      3.056      4.398
REMARK  2 active torsions:
REMARK  status: ('A' for Active; 'I' for Inactive)
REMARK    1  A    between atoms: O1_2  and  C2_3 
REMARK    2  A    between atoms: C8_9  and  N1_10 
ROOT
HETATM    1  C2  UNL     1      22.155   2.833  47.748  1.00  0.00     0.069 A 
HETATM    2  C3  UNL     1      21.397   1.814  48.280  1.00  0.00     0.037 A 
HETATM    3  C4  UNL     1      21.784   1.364  49.525  1.00  0.00     0.012 A 
HETATM    4  C5  UNL     1      22.857   1.897  50.193  1.00  0.00    -0.025 A 
HETATM    5  C6  UNL     1      23.585   2.952  49.567  1.00  0.00     0.021 A 
HETATM    6  C7  UNL     1      23.247   3.431  48.342  1.00  0.00     0.052 A 
HETATM    7  C8  UNL     1      24.736   3.672  50.179  1.00  0.00     0.142 C 
HETATM    8  N2  UNL     1      25.478   2.791  50.647  1.00  0.00    -0.223 NA
HETATM    9  C15 UNL     1      26.650   2.594  51.324  1.00  0.00     0.236 C 
HETATM   10  N3  UNL     1      26.549   1.908  52.435  1.00  0.00    -0.233 NA
HETATM   11  C16 UNL     1      25.432   1.339  53.050  1.00  0.00     0.255 C 
HETATM   12  N4  UNL     1      24.279   0.833  53.453  1.00  0.00    -0.172 NA
HETATM   13  N5  UNL     1      23.142   0.793  52.540  1.00  0.00    -0.309 N 
HETATM   14  C17 UNL     1      23.402   1.530  51.414  1.00  0.00     0.181 C 
HETATM   15  H16 UNL     1      22.471   0.189  53.066  1.00  0.00     0.182 HD
ENDROOT
BRANCH   7  16
HETATM   16  N1  UNL     1      24.822   5.121  50.161  1.00  0.00    -0.331 N 
HETATM   17  C9  UNL     1      23.454   5.490  50.478  1.00  0.00     0.117 A 
HETATM   18  C10 UNL     1      22.997   6.720  50.670  1.00  0.00     0.049 A 
HETATM   19 CL1  UNL     1      21.345   7.199  51.059  1.00  0.00    -0.083 Cl
HETATM   20  C11 UNL     1      23.882   7.872  50.534  1.00  0.00     0.023 A 
HETATM   21  C12 UNL     1      25.095   7.465  50.208  1.00  0.00    -0.000 A 
HETATM   22  C13 UNL     1      25.790   6.168  49.944  1.00  0.00     0.109 A 
HETATM   23  C14 UNL     1      26.181   6.281  48.454  1.00  0.00     0.037 C 
ENDBRANCH   7  16
BRANCH   1  24
HETATM   24  O1  UNL     1      21.760   3.281  46.496  1.00  0.00    -0.356 OA
HETATM   25  C1  UNL     1      21.926   4.628  46.121  1.00  0.00     0.210 C 
ENDBRANCH   1  24
TORSDOF 2
ENDMDL
MODEL 9
REMARK VINA RESULT:      -7.5      3.281      5.168
REMARK  2 active torsions:
REMARK  status: ('A' for Active; 'I' for Inactive)
REMARK    1  A    between atoms: O1_2  and  C2_3 
REMARK    2  A    between atoms: C8_9  and  N1_10 
ROOT
HETATM    1  C2  UNL     1      22.543  -0.702  53.314  1.00  0.00     0.069 A 
HETATM    2  C3  UNL     1      23.834  -0.543  53.765  1.00  0.00     0.037 A 
HETATM    3  C4  UNL     1      24.548   0.491  53.195  1.00  0.00     0.012 A 
HETATM    4  C5  UNL     1      24.008   1.310  52.237  1.00  0.00    -0.025 A 
HETATM    5  C6  UNL     1      22.661   1.075  51.830  1.00  0.00     0.021 A 
HETATM    6  C7  UNL     1      21.915   0.070  52.358  1.00  0.00     0.052 A 
HETATM    7  C8  UNL     1      21.912   1.903  50.845  1.00  0.00     0.142 C 
HETATM    8  N2  UNL     1      22.682   2.066  49.882  1.00  0.00    -0.223 NA
HETATM    9  C15 UNL     1      22.786   2.655  48.653  1.00  0.00     0.236 C 
HETATM   10  N3  UNL     1      23.795   3.479  48.508  1.00  0.00    -0.233 NA
HETATM   11  C16 UNL     1      24.791   3.859  49.409  1.00  0.00     0.255 C 
HETATM   12  N4  UNL     1      25.671   4.058  50.376  1.00  0.00    -0.172 NA
HETATM   13  N5  UNL     1      25.698   3.168  51.531  1.00  0.00    -0.309 N 
HETATM   14  C17 UNL     1      24.599   2.350  51.536  1.00  0.00     0.181 C 
HETATM   15  H16 UNL     1      26.587   3.457  51.999  1.00  0.00     0.182 HD
ENDROOT
BRANCH   7  16
HETATM   16  N1  UNL     1      20.561   2.363  51.111  1.00  0.00    -0.331 N 
HETATM   17  C9  UNL     1      19.776   1.279  50.550  1.00  0.00     0.117 A 
HETATM   18  C10 UNL     1      18.456   1.156  50.600  1.00  0.00     0.049 A 
HETATM   19 CL1  UNL     1      17.476  -0.149  49.934  1.00  0.00    -0.083 Cl
HETATM   20  C11 UNL     1      17.638   2.185  51.232  1.00  0.00     0.023 A 
HETATM   21  C12 UNL     1      18.413   3.155  51.682  1.00  0.00    -0.000 A 
HETATM   22  C13 UNL     1      19.873   3.477  51.716  1.00  0.00     0.109 A 
HETATM   23  C14 UNL     1      19.968   4.748  50.845  1.00  0.00     0.037 C 
ENDBRANCH   7  16
BRANCH   1  24
HETATM   24  O1  UNL     1      21.832  -1.742  53.892  1.00  0.00    -0.356 OA
HETATM   25  C1  UNL     1      20.467  -1.599  54.209  1.00  0.00     0.210 C 
ENDBRANCH   1  24
TORSDOF 2
ENDMDL
